186

C          1.07730       -4.83470       -5.64180
C          0.08090       -5.08310       -4.72700
C         -0.13470       -4.18540       -3.57140
O          0.48720       -3.17650       -3.28910
C         -1.36210       -4.65860       -2.91570
C         -1.95220       -4.11730       -1.77690
C         -3.08440       -4.77800       -1.36620
C         -3.59630       -5.89210       -2.04520
C         -3.03690       -6.41650       -3.18980
C         -1.88140       -5.76010       -3.62480
C         -1.02260       -6.00640       -4.78610
C         -1.20630       -6.97310       -5.74570
C         -2.27510       -7.89000       -5.75750
N         -3.12220       -8.66320       -5.81800
C         -0.34590       -7.16280       -6.84240
N          0.31890       -7.37480       -7.75650
C         -4.75190       -6.03850       -1.08370
C         -4.67900       -7.14320       -0.00070
C         -3.21710       -7.39450        0.27290
C         -2.73350       -6.33350        0.90550
C         -3.86100       -5.34470        1.07430
C         -5.04370       -6.31270        1.24130
C         -4.18270       -4.79120       -0.33560
C          2.21120       -4.10650       -5.19760
C          2.69990       -2.86020       -5.60820
N          2.32440       -2.22530       -6.76310
C          2.08950       -0.83490       -6.74030
C          2.53920       -0.03700       -7.78490
C          2.32190        1.32730       -7.76750
C          1.65340        1.90970       -6.69830
S          1.32850        3.63640       -6.55370
C          2.10400        4.35780       -8.02770
C          1.18890        1.10650       -5.65730
C          1.39900       -0.25370       -5.67720
C          1.93990       -2.97280       -7.88240
C          2.61000       -4.15170       -8.20750
C          2.18970       -4.93520       -9.26270
C          1.09220       -4.54830      -10.02310
S          0.45660       -5.49910      -11.36030
C          1.06880       -7.16970      -10.99800
C          0.45440       -3.34210       -9.73540
C          0.86770       -2.56440       -8.67760
C          3.46710       -2.26900       -4.57390
S          4.08190       -0.67170       -4.27820
C          4.36040       -1.06500       -2.58550
C          4.18940       -2.42500       -2.33430
N          4.48050       -3.04630       -1.13310
C          3.65870       -4.09720       -0.69740
C          2.27590       -4.00610       -0.85110
C          1.46830       -5.07840       -0.53340
C          2.03220       -6.25340       -0.05930
S          1.03410       -7.69280        0.22060
C          0.04430       -7.68460       -1.30800
C          3.40070       -6.32050        0.17490
C          4.21050       -5.25030       -0.14130
C          5.57440       -2.62950       -0.36330
C          5.49930       -2.64770        1.02990
C          6.56820       -2.22850        1.78860
C          7.73550       -1.77400        1.17820
S          9.03140       -1.25080        2.25620
C         10.39380       -0.82680        1.13410
C          7.81470       -1.75490       -0.20770
C          6.74420       -2.18160       -0.96830
C          3.64270       -3.07940       -3.45830
S          2.91230       -4.62350       -3.66940
C          4.33830       -0.01250       -1.62110
C          3.71580       -0.20680       -0.43590
C          3.24470        0.75890        0.48890
C          2.18410        0.50250        1.31850
C          1.70280        1.62990        2.00990
C          0.54950        1.71690        2.82200
C         -0.42190        0.65170        2.85950
C         -0.74290       -0.19810        1.82970
C         -1.71780       -1.16990        2.10470
C         -2.22710       -1.13100        3.37420
S         -3.48680       -2.21770        3.91730
C         -3.69920       -1.72000        5.66000
C         -2.61600       -2.28730        6.55500
Se        -1.46850        0.27310        4.37970
C          0.40000        2.90430        3.53280
C          1.27160        4.01520        3.38420
C          2.32480        3.98440        2.42730
C          3.12480        5.15000        2.15510
C          2.72150        6.46070        2.16190
C          3.71960        7.41880        1.91730
C          4.97200        6.90960        1.70850
S          6.35670        7.89940        1.31860
C          7.73460        6.73160        1.59220
C          7.98690        6.47810        3.06450
Se         4.96530        5.02500        1.76020
C          2.52080        2.76730        1.78840
S          3.75640        2.42770        0.59410
C          0.93730        5.03840        4.28150
C         -0.17040        4.77060        5.06820
S         -0.84350        3.19500        4.70760
C         -0.66600        5.69350        6.00850
C         -1.74740        5.61620        6.84280
C         -2.66270        4.47120        6.98780
O         -2.63170        3.40750        6.39640
C         -3.64630        4.85690        8.01240
C         -4.70930        4.08710        8.47860
C         -5.47430        4.71120        9.43370
C         -5.19680        6.00470        9.89620
C         -4.14800        6.77190        9.44820
C         -3.36010        6.15880        8.46940
C         -2.18720        6.65790        7.75400
C         -1.63290        7.90160        7.91970
C         -2.11210        8.87780        8.81860
N         -2.43830        9.72470        9.52220
C         -0.51580        8.41440        7.22770
N          0.37930        8.92050        6.71440
C         -6.37620        6.00750       10.83580
C         -7.63410        6.80300       10.40730
C         -7.62450        6.84160        8.89920
C         -7.88780        5.61770        8.46100
C         -8.08010        4.72920        9.66530
C         -8.71140        5.73240       10.64370
C         -6.68570        4.56660       10.32020
H          0.98020       -5.13590       -6.67540
H         -1.52710       -3.25340       -1.28880
H         -3.45640       -7.25860       -3.71530
H         -5.74360       -5.95920       -1.52480
H         -5.28380       -8.02100       -0.21230
H         -2.69300       -8.27500       -0.04930
H         -1.72200       -6.14990        1.21900
H         -3.72500       -4.58340        1.83890
H         -6.01520       -5.82590        1.17010
H         -4.98750       -6.88900        2.16330
H         -4.80130       -3.89660       -0.29490
H          3.06180       -0.49020       -8.61420
H          2.68400        1.92160       -8.59030
H          3.16930        4.14690       -8.02710
H          1.62450        3.97940       -8.92580
H          1.94070        5.42800       -7.94730
H          0.65780        1.56510       -4.83760
H          1.02640       -0.87570       -4.87640
H          3.46220       -4.46010       -7.62000
H          2.72010       -5.84710       -9.48110
H          2.12450       -7.24650      -11.24230
H          0.49680       -7.83680      -11.63540
H          0.88010       -7.39590       -9.95240
H         -0.38670       -3.03730      -10.33870
H          0.34510       -1.64950       -8.44200
H          1.83500       -3.10440       -1.25030
H          0.40100       -5.00170       -0.66940
H          0.68380       -7.39680       -2.13730
H         -0.31320       -8.69980       -1.44760
H         -0.79870       -7.00670       -1.21360
H          3.82490       -7.22850        0.57410
H          5.27840       -5.31240        0.00620
H          4.59730       -2.99270        1.51310
H          6.50930       -2.23920        2.86600
H         11.21890       -0.53460        1.77620
H         10.67470       -1.69580        0.54640
H         10.10900        0.00670        0.49870
H          8.70540       -1.41580       -0.71120
H          6.82020       -2.17010       -2.04540
H          4.64030        0.97640       -1.93560
H          3.34000       -1.19610       -0.21370
H          1.76530       -0.48160        1.42180
H         -0.31660       -0.09150        0.84650
H         -2.05240       -1.88720        1.37470
H         -3.71110       -0.62610        5.68110
H         -4.68230       -2.09790        5.93960
H         -2.61250       -3.37390        6.50750
H         -2.79040       -1.97960        7.58370
H         -1.63530       -1.92200        6.24820
H          1.69130        6.74130        2.30190
H          3.52120        8.47640        1.89960
H          7.48620        5.80910        1.05760
H          8.59490        7.20180        1.11690
H          8.82880        5.79960        3.18340
H          7.11180        6.02580        3.53140
H          8.21070        7.41040        3.57750
H          1.50000        5.94850        4.39210
H         -0.08160        6.60490        6.04790
H         -4.88350        3.09410        8.09450
H         -3.95020        7.76370        9.81840
H         -6.14550        6.13320       11.89170
H         -7.75700        7.75800       10.91080
H         -7.37830        7.71510        8.32430
H         -7.90540        5.26410        7.44670
H         -8.61000        3.79580        9.49370
H         -8.74780        5.37260       11.67110
H         -9.70310        6.05700       10.33210
H         -6.65750        3.75040       11.03960
