237

C         -3.11340       -6.13040        3.40020
C         -2.98750       -6.13690        4.76990
C         -2.35620       -5.10060        5.58960
O         -2.02330       -3.97800        5.24920
C         -2.18500       -5.68630        6.93230
C         -1.60270       -5.08230        8.04380
C         -1.57410       -5.88070        9.16240
C         -2.08230       -7.18560        9.17270
C         -2.66270       -7.79220        8.08340
C         -2.70850       -6.99470        6.93630
C         -3.27170       -7.27270        5.61460
C         -3.95950       -8.41100        5.26680
C         -4.65790       -8.59670        4.05880
N         -5.28690       -8.80750        3.11960
C         -4.09470       -9.54310        6.09390
N         -4.21610      -10.50700        6.70700
C         -1.73180       -7.39720       10.62480
C         -2.89630       -7.30610       11.63320
C         -2.20960       -7.06970       12.95900
C         -1.73060       -5.83230       12.95010
C         -2.08550       -5.21160       11.61820
C         -3.43420       -5.89560       11.35960
C         -1.16730       -5.94040       10.61420
C         -2.73550       -5.16850        2.46240
C         -2.68970       -5.41080        1.06350
N         -2.75150       -6.66110        0.49600
C         -3.32400       -6.86720       -0.76680
C         -4.41630       -6.11860       -1.19630
C         -5.03980       -6.40660       -2.39480
C         -4.59610       -7.46400       -3.17750
S         -5.40210       -8.01690       -4.64360
C         -6.43140       -6.60360       -5.12120
C         -3.47910       -8.19070       -2.76790
C         -2.84080       -7.88780       -1.58820
C         -2.25700       -7.77920        1.20080
C         -2.95510       -8.98660        1.20240
C         -2.52800      -10.02980        1.99490
C         -1.40760       -9.88620        2.80810
S         -1.00180      -11.23360        3.87430
C         -0.07290      -10.42040        5.20860
C         -0.66350       -8.71320        2.74590
C         -1.07960       -7.67450        1.93940
C         -2.47520       -4.21500        0.35720
S         -2.30280       -3.79100       -1.32420
C         -1.99440       -2.11720       -0.88000
C         -1.94350       -1.93260        0.49450
N         -1.56020       -0.76860        1.15490
C         -2.32690       -0.41360        2.28140
C         -3.71420       -0.41820        2.18860
C         -4.49560       -0.07820        3.27550
C         -3.89310        0.28130        4.47260
S         -4.78240        0.75700        5.92000
C         -6.50080        0.88620        5.35020
C         -2.50280        0.27180        4.57340
C         -1.72530       -0.07620        3.49240
C         -0.44370       -0.02530        0.77450
C         -0.31000        1.31410        1.15630
C          0.74460        2.07880        0.70600
C          1.71280        1.52660       -0.12940
S          3.00300        2.59910       -0.69010
C          3.91750        1.58290       -1.88690
C          1.62980        0.18140       -0.45150
C          0.56790       -0.58280       -0.00580
C         -2.27330       -3.11750        1.18660
S         -2.34300       -3.49740        2.86460
C         -1.78230       -1.03050       -1.78750
C         -0.78160       -0.85170       -2.72840
N         -0.07230       -1.89070       -3.30850
C         -0.75290       -2.93840       -3.93730
C         -0.05040       -4.08000       -4.31730
C         -0.68220       -5.11260       -4.98080
C         -2.03550       -5.02740       -5.27540
S         -2.92960       -6.25330       -6.17480
C         -1.87910       -7.72500       -6.05370
C         -2.74370       -3.89290       -4.89280
C         -2.11480       -2.86020       -4.23630
C          1.27050       -1.63560       -3.71930
C          1.53910       -1.06150       -4.95540
C          2.83420       -0.73010       -5.31220
C          3.88120       -0.99630       -4.43940
S          5.55940       -0.55490       -4.73800
C          5.54690        0.19970       -6.38660
C          3.61930       -1.65010       -3.23480
C          2.32560       -1.96380       -2.87570
C         -0.59560        0.52880       -2.98480
S          0.66110        1.43950       -3.72830
C         -0.10680        2.95590       -3.26150
C         -1.33640        2.74180       -2.65000
N         -2.26290        3.73630       -2.39980
C         -2.37190        4.83600       -3.26530
C         -2.16190        4.70510       -4.63790
C         -2.27630        5.79830       -5.46550
C         -2.60260        7.05100       -4.94770
S         -2.71200        8.37260       -6.11180
C         -3.06800        9.82980       -5.09090
C         -2.82620        7.18400       -3.58450
C         -2.70990        6.08600       -2.75440
C         -3.20220        3.57670       -1.36870
C         -2.78470        3.13580       -0.11470
C         -3.70100        2.93930        0.89440
C         -5.05220        3.19180        0.67330
S         -6.13810        2.88360        2.02990
C         -7.75310        3.48250        1.45210
C         -5.46990        3.65620       -0.56700
C         -4.55080        3.84580       -1.58060
C         -1.54840        1.36030       -2.41370
S         -2.66270        0.45910       -1.45190
C          0.74460        4.11340       -3.19210
C          0.59700        5.05000       -2.15170
C          1.63090        5.85890       -1.75220
C          2.91880        5.72890       -2.29640
C          3.05180        4.87610       -3.40130
C          4.21120        4.40890       -4.14080
C          5.48680        4.45270       -3.68290
C          6.70010        3.92270       -4.22810
C          7.86920        3.78700       -3.41170
C          8.92110        3.26350       -4.07540
S          8.53900        2.93590       -5.72610
C          6.94470        3.50060       -5.51360
C          3.65960        3.64260       -5.28630
O          4.22550        3.15860       -6.25100
N          2.30670        3.51010       -5.07100
C          1.42780        3.25600       -6.19350
C          1.00080        4.56620       -6.84970
C          1.94140        4.19070       -3.91260
C          4.02930        6.48740       -1.79280
C          4.30230        6.76670       -0.49200
C          3.66990        6.13060        0.69920
O          2.66300        5.46090        0.75630
C          4.54850        6.46840        1.83610
C          4.39910        6.03860        3.15290
C          5.35510        6.52340        4.01190
C          6.39490        7.36440        3.59070
C          6.55800        7.79060        2.29490
C          5.58620        7.31900        1.40600
C          5.42520        7.56390       -0.02220
C          6.16680        8.43800       -0.77310
C          5.95760        8.71770       -2.14050
N          5.84880        9.01370       -3.24500
C          7.23310        9.21510       -0.27420
N          8.11100        9.87530        0.06010
C          6.97970        7.46810        4.97680
C          6.71830        8.77160        5.77110
C          5.42770        9.34490        5.24040
C          4.43990        8.55420        5.63820
C          5.04460        7.43240        6.44580
C          6.22330        8.17300        7.09750
C          5.81850        6.53630        5.44690
H         -3.53120       -7.02990        2.96810
H         -1.22190       -4.07440        7.98970
H         -3.04960       -8.79720        8.10900
H         -1.04960       -8.21890       10.83510
H         -3.60310       -8.13010       11.58750
H         -2.09810       -7.82040       13.71920
H         -1.13910       -5.34290       13.70180
H         -2.05460       -4.12690       11.55970
H         -3.81700       -5.75430       10.35070
H         -4.19220       -5.59690       12.08180
H         -0.10870       -5.79040       10.81950
H         -4.80720       -5.33130       -0.56950
H         -5.89550       -5.82060       -2.68890
H         -7.26110       -6.48710       -4.43000
H         -6.80750       -6.83530       -6.11250
H         -5.81210       -5.71310       -5.16080
H         -3.13150       -9.00760       -3.38150
H         -1.97470       -8.45530       -1.28200
H         -3.85740       -9.08820        0.62060
H         -3.08630      -10.95200        2.02390
H          0.94020      -10.19490        4.88800
H         -0.04870      -11.13350        6.02640
H         -0.59590       -9.52010        5.51810
H          0.24190       -8.60160        3.32110
H         -0.50450       -6.76100        1.90390
H         -4.18240       -0.68110        1.25090
H         -5.56760       -0.08690        3.16980
H         -6.88310       -0.09660        5.08940
H         -6.55280        1.56980        4.50790
H         -7.05860        1.28600        6.19130
H         -2.04390        0.53380        5.51420
H         -0.64940       -0.09290        3.57760
H         -1.04670        1.75220        1.81140
H          0.83400        3.11750        0.98750
H          3.24850        1.23940       -2.67080
H          4.39710        0.74650       -1.38780
H          4.67450        2.23440       -2.31250
H          2.38840       -0.28490       -1.05670
H          0.53030       -1.63210       -0.25780
H          1.00540       -4.15240       -4.10320
H         -0.10410       -5.97490       -5.27270
H         -1.02320       -7.63410       -6.71690
H         -1.56910       -7.85770       -5.02180
H         -2.50360       -8.55640       -6.36570
H         -3.79330       -3.81970       -5.13340
H         -2.68030       -1.98040       -3.97070
H          0.72560       -0.85800       -5.63640
H          3.01130       -0.25100       -6.26090
H          5.15990       -0.50960       -7.11210
H          4.97250        1.12230       -6.37520
H          6.58700        0.41980       -6.60810
H          4.44480       -1.89460       -2.58320
H          2.12340       -2.46940       -1.94340
H         -1.92250        3.73920       -5.05590
H         -2.12560        5.69630       -6.52930
H         -2.26920        9.98160       -4.37090
H         -4.02980        9.71560       -4.59910
H         -3.10560       10.66660       -5.78140
H         -3.08700        8.13610       -3.15180
H         -2.88530        6.19790       -1.69430
H         -1.73490        2.95660        0.05260
H         -3.38530        2.59000        1.86580
H         -8.42730        3.37210        2.29600
H         -7.68010        4.52980        1.17440
H         -8.10200        2.87560        0.62160
H         -6.50950        3.86250       -0.76490
H         -4.88220        4.19630       -2.54710
H         -0.32800        5.08420       -1.60150
H          1.46260        6.58170       -0.97180
H          5.62130        4.90190       -2.70430
H          7.89490        4.06260       -2.37200
H          9.90510        3.04860       -3.70960
H          6.26410        3.50120       -6.33990
H          0.55170        2.69450       -5.87140
H          1.99930        2.64790       -6.89880
H          0.34720        4.36210       -7.69340
H          0.46870        5.19230       -6.13580
H          1.87230        5.10930       -7.20860
H          4.71870        6.84750       -2.54800
H          3.58750        5.38460        3.43090
H          7.36680        8.43120        1.98520
H          8.00040        7.10900        5.09250
H          7.56440        9.45210        5.81270
H          5.37390       10.20710        4.60170
H          3.39500        8.62330        5.39810
H          4.36640        6.89420        7.10280
H          6.94550        7.50870        7.57020
H          5.90210        8.93280        7.80840
H          6.07980        5.56990        5.87370
