
  xtb     02082200423D
 energy: -352.835327092926 gnorm: 0.000991290668 xtb: 6.4.1 (unknown)
205224  0     0  0            999 V2000
   -0.5778   -1.4892    5.5804 C   0  0  0  0  0  0  0  0  0  0  0  0
   -0.3027   -2.5692    6.3905 C   0  0  0  0  0  0  0  0  0  0  0  0
   -0.3684   -3.9811    6.0110 C   0  0  0  0  0  0  0  0  0  0  0  0
   -0.5842   -4.4508    4.9048 O   0  0  0  0  0  0  0  0  0  0  0  0
   -0.1389   -4.7527    7.2464 C   0  0  0  0  0  0  0  0  0  0  0  0
   -0.0888   -6.1384    7.3767 C   0  0  0  0  0  0  0  0  0  0  0  0
    0.1711   -6.5715    8.6552 C   0  0  0  0  0  0  0  0  0  0  0  0
    0.3694   -5.6907    9.7255 C   0  0  0  0  0  0  0  0  0  0  0  0
    0.3231   -4.3210    9.6103 C   0  0  0  0  0  0  0  0  0  0  0  0
    0.0558   -3.8600    8.3187 C   0  0  0  0  0  0  0  0  0  0  0  0
   -0.0243   -2.4930    7.8037 C   0  0  0  0  0  0  0  0  0  0  0  0
    0.1639   -1.3557    8.5533 C   0  0  0  0  0  0  0  0  0  0  0  0
    0.3124   -1.3323    9.9541 C   0  0  0  0  0  0  0  0  0  0  0  0
    0.4045   -1.2183   11.0939 N   0  0  0  0  0  0  0  0  0  0  0  0
    0.2689   -0.0464    8.0501 C   0  0  0  0  0  0  0  0  0  0  0  0
    0.4221    1.0491    7.7334 N   0  0  0  0  0  0  0  0  0  0  0  0
    0.5957   -6.8107   10.7108 C   0  0  0  0  0  0  0  0  0  0  0  0
   -0.5756   -7.1486   11.6568 C   0  0  0  0  0  0  0  0  0  0  0  0
   -0.2554   -8.5434   12.1437 C   0  0  0  0  0  0  0  0  0  0  0  0
   -0.4456   -9.3783   11.1301 C   0  0  0  0  0  0  0  0  0  0  0  0
   -0.8974   -8.5617    9.9408 C   0  0  0  0  0  0  0  0  0  0  0  0
   -1.6972   -7.4678   10.6600 C   0  0  0  0  0  0  0  0  0  0  0  0
    0.3726   -7.7937    9.5170 C   0  0  0  0  0  0  0  0  0  0  0  0
   -0.8507   -1.4265    4.2162 C   0  0  0  0  0  0  0  0  0  0  0  0
   -1.1568   -0.2195    3.5332 C   0  0  0  0  0  0  0  0  0  0  0  0
   -1.4028    1.0000    4.1106 N   0  0  0  0  0  0  0  0  0  0  0  0
   -1.0635    2.1601    3.3887 C   0  0  0  0  0  0  0  0  0  0  0  0
    0.1681    2.2424    2.7371 C   0  0  0  0  0  0  0  0  0  0  0  0
    0.4814    3.3489    1.9812 C   0  0  0  0  0  0  0  0  0  0  0  0
   -0.4185    4.4076    1.8755 C   0  0  0  0  0  0  0  0  0  0  0  0
    0.0726    5.7473    0.8382 S   0  0  0  0  0  0  0  0  0  0  0  0
   -1.4071    6.7954    0.7378 C   0  0  0  0  0  0  0  0  0  0  0  0
   -1.6230    4.3521    2.5660 C   0  0  0  0  0  0  0  0  0  0  0  0
   -1.9452    3.2328    3.3082 C   0  0  0  0  0  0  0  0  0  0  0  0
   -2.0607    1.1367    5.3451 C   0  0  0  0  0  0  0  0  0  0  0  0
   -1.6922    2.1550    6.2192 C   0  0  0  0  0  0  0  0  0  0  0  0
   -2.2921    2.2659    7.4584 C   0  0  0  0  0  0  0  0  0  0  0  0
   -3.2546    1.3461    7.8494 C   0  0  0  0  0  0  0  0  0  0  0  0
   -4.0096    1.3446    9.4434 S   0  0  0  0  0  0  0  0  0  0  0  0
   -2.8562    2.3244   10.4466 C   0  0  0  0  0  0  0  0  0  0  0  0
   -3.6667    0.3603    6.9524 C   0  0  0  0  0  0  0  0  0  0  0  0
   -3.0859    0.2617    5.7093 C   0  0  0  0  0  0  0  0  0  0  0  0
   -1.1599   -0.4217    2.1450 C   0  0  0  0  0  0  0  0  0  0  0  0
   -1.4047    0.6136    0.7778 S   0  0  0  0  0  0  0  0  0  0  0  0
   -1.1258   -0.7262   -0.3213 C   0  0  0  0  0  0  0  0  0  0  0  0
   -0.8319   -1.9071    0.3611 C   0  0  0  0  0  0  0  0  0  0  0  0
   -0.4880   -3.1377   -0.2140 N   0  0  0  0  0  0  0  0  0  0  0  0
   -1.3181   -4.2165    0.1726 C   0  0  0  0  0  0  0  0  0  0  0  0
   -0.8360   -5.2714    0.9382 C   0  0  0  0  0  0  0  0  0  0  0  0
   -1.6720   -6.3092    1.3008 C   0  0  0  0  0  0  0  0  0  0  0  0
   -3.0043   -6.2963    0.9082 C   0  0  0  0  0  0  0  0  0  0  0  0
   -4.1472   -7.5863    1.2943 S   0  0  0  0  0  0  0  0  0  0  0  0
   -3.3399   -8.4667    2.6623 C   0  0  0  0  0  0  0  0  0  0  0  0
   -3.4912   -5.2353    0.1477 C   0  0  0  0  0  0  0  0  0  0  0  0
   -2.6554   -4.2014   -0.2143 C   0  0  0  0  0  0  0  0  0  0  0  0
    0.7269   -3.3553   -0.8449 C   0  0  0  0  0  0  0  0  0  0  0  0
    0.9825   -4.5780   -1.4721 C   0  0  0  0  0  0  0  0  0  0  0  0
    2.1311   -4.7657   -2.2037 C   0  0  0  0  0  0  0  0  0  0  0  0
    3.0525   -3.7338   -2.3618 C   0  0  0  0  0  0  0  0  0  0  0  0
    4.4134   -4.0587   -3.4453 S   0  0  0  0  0  0  0  0  0  0  0  0
    5.5361   -2.6628   -3.1706 C   0  0  0  0  0  0  0  0  0  0  0  0
    2.8301   -2.5302   -1.7099 C   0  0  0  0  0  0  0  0  0  0  0  0
    1.6913   -2.3512   -0.9481 C   0  0  0  0  0  0  0  0  0  0  0  0
   -0.8927   -1.7294    1.7566 C   0  0  0  0  0  0  0  0  0  0  0  0
   -0.6872   -2.7917    3.1030 S   0  0  0  0  0  0  0  0  0  0  0  0
   -1.0734   -0.4934   -1.7157 C   0  0  0  0  0  0  0  0  0  0  0  0
   -1.0910    0.7323   -2.3863 C   0  0  0  0  0  0  0  0  0  0  0  0
   -1.4644    1.9522   -1.8333 N   0  0  0  0  0  0  0  0  0  0  0  0
   -2.7385    2.0990   -1.2732 C   0  0  0  0  0  0  0  0  0  0  0  0
   -2.9703    3.0885   -0.3146 C   0  0  0  0  0  0  0  0  0  0  0  0
   -4.2096    3.2255    0.2620 C   0  0  0  0  0  0  0  0  0  0  0  0
   -5.2555    2.3744   -0.0944 C   0  0  0  0  0  0  0  0  0  0  0  0
   -6.7941    2.6427    0.7266 S   0  0  0  0  0  0  0  0  0  0  0  0
   -7.9122    1.4246   -0.0208 C   0  0  0  0  0  0  0  0  0  0  0  0
   -5.0315    1.3868   -1.0428 C   0  0  0  0  0  0  0  0  0  0  0  0
   -3.7864    1.2547   -1.6283 C   0  0  0  0  0  0  0  0  0  0  0  0
   -0.6632    3.0649   -2.1258 C   0  0  0  0  0  0  0  0  0  0  0  0
    0.7229    2.9168   -2.1408 C   0  0  0  0  0  0  0  0  0  0  0  0
    1.5357    3.9845   -2.4573 C   0  0  0  0  0  0  0  0  0  0  0  0
    0.9787    5.2221   -2.7441 C   0  0  0  0  0  0  0  0  0  0  0  0
    2.0580    6.5699   -3.1705 S   0  0  0  0  0  0  0  0  0  0  0  0
    1.5182    7.8147   -1.9569 C   0  0  0  0  0  0  0  0  0  0  0  0
   -0.3998    5.3784   -2.7300 C   0  0  0  0  0  0  0  0  0  0  0  0
   -1.2153    4.3078   -2.4294 C   0  0  0  0  0  0  0  0  0  0  0  0
   -0.6591    0.5831   -3.7231 C   0  0  0  0  0  0  0  0  0  0  0  0
   -0.2084    1.6870   -4.9742 S   0  0  0  0  0  0  0  0  0  0  0  0
    0.3520    0.3409   -5.9656 C   0  0  0  0  0  0  0  0  0  0  0  0
    0.1768   -0.8984   -5.3544 C   0  0  0  0  0  0  0  0  0  0  0  0
    0.5732   -2.1404   -5.8279 N   0  0  0  0  0  0  0  0  0  0  0  0
   -0.2626   -3.2069   -5.4398 C   0  0  0  0  0  0  0  0  0  0  0  0
    0.2322   -4.3637   -4.8477 C   0  0  0  0  0  0  0  0  0  0  0  0
   -0.6319   -5.3213   -4.3531 C   0  0  0  0  0  0  0  0  0  0  0  0
   -2.0053   -5.1335   -4.4316 C   0  0  0  0  0  0  0  0  0  0  0  0
   -3.1965   -6.2411   -3.7479 S   0  0  0  0  0  0  0  0  0  0  0  0
   -2.2291   -7.2752   -2.6144 C   0  0  0  0  0  0  0  0  0  0  0  0
   -2.5033   -4.0074   -5.0849 C   0  0  0  0  0  0  0  0  0  0  0  0
   -1.6435   -3.0587   -5.5881 C   0  0  0  0  0  0  0  0  0  0  0  0
    1.8918   -2.3660   -6.2356 C   0  0  0  0  0  0  0  0  0  0  0  0
    2.1999   -3.4787   -7.0152 C   0  0  0  0  0  0  0  0  0  0  0  0
    3.5035   -3.7450   -7.3845 C   0  0  0  0  0  0  0  0  0  0  0  0
    4.5258   -2.8891   -6.9977 C   0  0  0  0  0  0  0  0  0  0  0  0
    6.2276   -3.1428   -7.3875 S   0  0  0  0  0  0  0  0  0  0  0  0
    6.2928   -4.8982   -7.8465 C   0  0  0  0  0  0  0  0  0  0  0  0
    4.2163   -1.7497   -6.2597 C   0  0  0  0  0  0  0  0  0  0  0  0
    2.9210   -1.4967   -5.8705 C   0  0  0  0  0  0  0  0  0  0  0  0
   -0.4155   -0.7342   -4.0859 C   0  0  0  0  0  0  0  0  0  0  0  0
   -0.7529   -1.8363   -2.8021 S   0  0  0  0  0  0  0  0  0  0  0  0
    0.9661    0.7151   -7.1836 C   0  0  0  0  0  0  0  0  0  0  0  0
    1.4382    0.0326   -8.3064 C   0  0  0  0  0  0  0  0  0  0  0  0
    1.9499    1.0023   -9.1573 C   0  0  0  0  0  0  0  0  0  0  0  0
    1.7632    2.2397   -8.5295 C   0  0  0  0  0  0  0  0  0  0  0  0
    1.1670    2.0291   -7.3382 O   0  0  0  0  0  0  0  0  0  0  0  0
    2.1545    3.5174   -8.9565 C   0  0  0  0  0  0  0  0  0  0  0  0
    1.9142    4.7277   -8.3494 C   0  0  0  0  0  0  0  0  0  0  0  0
    0.9893    4.9918   -7.2197 C   0  0  0  0  0  0  0  0  0  0  0  0
    0.2427    4.2374   -6.6370 O   0  0  0  0  0  0  0  0  0  0  0  0
    1.0852    6.4496   -6.9703 C   0  0  0  0  0  0  0  0  0  0  0  0
    0.4089    7.1879   -6.0222 C   0  0  0  0  0  0  0  0  0  0  0  0
    0.6533    8.5551   -5.9818 C   0  0  0  0  0  0  0  0  0  0  0  0
   -0.0582    9.4373   -4.9974 C   0  0  0  0  0  0  0  0  0  0  0  0
    0.7899   10.1353   -4.2205 F   0  0  0  0  0  0  0  0  0  0  0  0
   -0.8619    8.7636   -4.1600 F   0  0  0  0  0  0  0  0  0  0  0  0
   -0.8366   10.3516   -5.6060 F   0  0  0  0  0  0  0  0  0  0  0  0
    1.5511    9.1503   -6.8628 C   0  0  0  0  0  0  0  0  0  0  0  0
    2.2194    8.3997   -7.8183 C   0  0  0  0  0  0  0  0  0  0  0  0
    1.9786    7.0345   -7.8781 C   0  0  0  0  0  0  0  0  0  0  0  0
    2.4957    5.9874   -8.7634 C   0  0  0  0  0  0  0  0  0  0  0  0
    3.3892    6.2035   -9.7832 C   0  0  0  0  0  0  0  0  0  0  0  0
    3.9183    5.2239  -10.6488 C   0  0  0  0  0  0  0  0  0  0  0  0
    4.4036    4.4982  -11.3959 N   0  0  0  0  0  0  0  0  0  0  0  0
    3.9137    7.4681  -10.1232 C   0  0  0  0  0  0  0  0  0  0  0  0
    4.3787    8.4620  -10.4620 N   0  0  0  0  0  0  0  0  0  0  0  0
   -0.5771   -0.5249    6.0719 H   0  0  0  0  0  0  0  0  0  0  0  0
   -0.2345   -6.7814    6.5226 H   0  0  0  0  0  0  0  0  0  0  0  0
    0.4863   -3.6568   10.4426 H   0  0  0  0  0  0  0  0  0  0  0  0
    1.5618   -6.8119   11.2121 H   0  0  0  0  0  0  0  0  0  0  0  0
   -0.7781   -6.3988   12.4165 H   0  0  0  0  0  0  0  0  0  0  0  0
    0.1182   -8.7650   13.1262 H   0  0  0  0  0  0  0  0  0  0  0  0
   -0.2624  -10.4364   11.0968 H   0  0  0  0  0  0  0  0  0  0  0  0
   -1.3942   -9.1004    9.1380 H   0  0  0  0  0  0  0  0  0  0  0  0
   -2.5848   -7.8626   11.1516 H   0  0  0  0  0  0  0  0  0  0  0  0
   -1.9754   -6.6302   10.0231 H   0  0  0  0  0  0  0  0  0  0  0  0
    1.1898   -8.4511    9.2249 H   0  0  0  0  0  0  0  0  0  0  0  0
    0.8729    1.4290    2.8248 H   0  0  0  0  0  0  0  0  0  0  0  0
    1.4246    3.4087    1.4605 H   0  0  0  0  0  0  0  0  0  0  0  0
   -1.1568    7.5868    0.0382 H   0  0  0  0  0  0  0  0  0  0  0  0
   -2.2443    6.2180    0.3566 H   0  0  0  0  0  0  0  0  0  0  0  0
   -1.6297    7.2248    1.7101 H   0  0  0  0  0  0  0  0  0  0  0  0
   -2.3270    5.1671    2.5220 H   0  0  0  0  0  0  0  0  0  0  0  0
   -2.8937    3.1839    3.8214 H   0  0  0  0  0  0  0  0  0  0  0  0
   -0.9153    2.8480    5.9373 H   0  0  0  0  0  0  0  0  0  0  0  0
   -1.9764    3.0566    8.1180 H   0  0  0  0  0  0  0  0  0  0  0  0
   -1.8428    1.9712   10.2802 H   0  0  0  0  0  0  0  0  0  0  0  0
   -3.1446    2.1523   11.4789 H   0  0  0  0  0  0  0  0  0  0  0  0
   -2.9513    3.3803   10.2101 H   0  0  0  0  0  0  0  0  0  0  0  0
   -4.4443   -0.3270    7.2482 H   0  0  0  0  0  0  0  0  0  0  0  0
   -3.4038   -0.5080    5.0218 H   0  0  0  0  0  0  0  0  0  0  0  0
    0.1963   -5.2756    1.2534 H   0  0  0  0  0  0  0  0  0  0  0  0
   -1.2736   -7.1157    1.8941 H   0  0  0  0  0  0  0  0  0  0  0  0
   -3.0217   -7.7500    3.4132 H   0  0  0  0  0  0  0  0  0  0  0  0
   -2.5025   -9.0527    2.2943 H   0  0  0  0  0  0  0  0  0  0  0  0
   -4.0964   -9.1277    3.0739 H   0  0  0  0  0  0  0  0  0  0  0  0
   -4.5256   -5.2383   -0.1593 H   0  0  0  0  0  0  0  0  0  0  0  0
   -3.0256   -3.3785   -0.8076 H   0  0  0  0  0  0  0  0  0  0  0  0
    0.2652   -5.3788   -1.3920 H   0  0  0  0  0  0  0  0  0  0  0  0
    2.3219   -5.7150   -2.6813 H   0  0  0  0  0  0  0  0  0  0  0  0
    5.0633   -1.7390   -3.4893 H   0  0  0  0  0  0  0  0  0  0  0  0
    6.4067   -2.8600   -3.7885 H   0  0  0  0  0  0  0  0  0  0  0  0
    5.8210   -2.6236   -2.1232 H   0  0  0  0  0  0  0  0  0  0  0  0
    3.5346   -1.7172   -1.7874 H   0  0  0  0  0  0  0  0  0  0  0  0
    1.5375   -1.4077   -0.4452 H   0  0  0  0  0  0  0  0  0  0  0  0
   -2.1540    3.7240   -0.0136 H   0  0  0  0  0  0  0  0  0  0  0  0
   -4.3861    3.9847    1.0083 H   0  0  0  0  0  0  0  0  0  0  0  0
   -7.9894    1.5999   -1.0898 H   0  0  0  0  0  0  0  0  0  0  0  0
   -8.8768    1.5875    0.4499 H   0  0  0  0  0  0  0  0  0  0  0  0
   -7.5638    0.4183    0.1926 H   0  0  0  0  0  0  0  0  0  0  0  0
   -5.8177    0.7126   -1.3423 H   0  0  0  0  0  0  0  0  0  0  0  0
   -3.6308    0.4863   -2.3711 H   0  0  0  0  0  0  0  0  0  0  0  0
    1.1558    1.9571   -1.8979 H   0  0  0  0  0  0  0  0  0  0  0  0
    2.6084    3.8703   -2.4758 H   0  0  0  0  0  0  0  0  0  0  0  0
    0.4866    8.0953   -2.1386 H   0  0  0  0  0  0  0  0  0  0  0  0
    1.6360    7.4046   -0.9584 H   0  0  0  0  0  0  0  0  0  0  0  0
    2.1650    8.6747   -2.0949 H   0  0  0  0  0  0  0  0  0  0  0  0
   -0.8438    6.3338   -2.9661 H   0  0  0  0  0  0  0  0  0  0  0  0
   -2.2880    4.4282   -2.4521 H   0  0  0  0  0  0  0  0  0  0  0  0
    1.2974   -4.4989   -4.7430 H   0  0  0  0  0  0  0  0  0  0  0  0
   -0.2191   -6.2022   -3.8898 H   0  0  0  0  0  0  0  0  0  0  0  0
   -2.9575   -7.8484   -2.0490 H   0  0  0  0  0  0  0  0  0  0  0  0
   -1.5818   -7.9469   -3.1709 H   0  0  0  0  0  0  0  0  0  0  0  0
   -1.6621   -6.6394   -1.9412 H   0  0  0  0  0  0  0  0  0  0  0  0
   -3.5711   -3.8833   -5.1781 H   0  0  0  0  0  0  0  0  0  0  0  0
   -2.0327   -2.1780   -6.0777 H   0  0  0  0  0  0  0  0  0  0  0  0
    1.4094   -4.1449   -7.3274 H   0  0  0  0  0  0  0  0  0  0  0  0
    3.7074   -4.6207   -7.9790 H   0  0  0  0  0  0  0  0  0  0  0  0
    5.8331   -5.0530   -8.8185 H   0  0  0  0  0  0  0  0  0  0  0  0
    5.8039   -5.4879   -7.0768 H   0  0  0  0  0  0  0  0  0  0  0  0
    7.3474   -5.1507   -7.8967 H   0  0  0  0  0  0  0  0  0  0  0  0
    5.0121   -1.0757   -5.9811 H   0  0  0  0  0  0  0  0  0  0  0  0
    2.7058   -0.6331   -5.2601 H   0  0  0  0  0  0  0  0  0  0  0  0
    1.4035   -1.0244   -8.4692 H   0  0  0  0  0  0  0  0  0  0  0  0
    2.4018    0.8507  -10.1167 H   0  0  0  0  0  0  0  0  0  0  0  0
    2.7395    3.5079   -9.8653 H   0  0  0  0  0  0  0  0  0  0  0  0
   -0.2812    6.7033   -5.3502 H   0  0  0  0  0  0  0  0  0  0  0  0
    1.7235   10.2144   -6.8023 H   0  0  0  0  0  0  0  0  0  0  0  0
    2.9034    8.8877   -8.4921 H   0  0  0  0  0  0  0  0  0  0  0  0
  1  2  2  0  0  0  0
  2  3  1  0  0  0  0
  3  4  2  0  0  0  0
  3  5  1  0  0  0  0
  5  6  2  0  0  0  0
  6  7  1  0  0  0  0
  7  8  2  0  0  0  0
  8  9  1  0  0  0  0
  9 10  2  0  0  0  0
 10 11  1  0  0  0  0
 11 12  2  0  0  0  0
 12 13  1  0  0  0  0
 13 14  3  0  0  0  0
 12 15  1  0  0  0  0
 15 16  3  0  0  0  0
  8 17  1  0  0  0  0
 17 18  1  0  0  0  0
 18 19  1  0  0  0  0
 19 20  2  0  0  0  0
 20 21  1  0  0  0  0
 21 22  1  0  0  0  0
 21 23  1  0  0  0  0
  1 24  1  0  0  0  0
 24 25  2  0  0  0  0
 25 26  1  0  0  0  0
 26 27  1  0  0  0  0
 27 28  2  0  0  0  0
 28 29  1  0  0  0  0
 29 30  2  0  0  0  0
 30 31  1  0  0  0  0
 31 32  1  0  0  0  0
 30 33  1  0  0  0  0
 33 34  2  0  0  0  0
 26 35  1  0  0  0  0
 35 36  2  0  0  0  0
 36 37  1  0  0  0  0
 37 38  2  0  0  0  0
 38 39  1  0  0  0  0
 39 40  1  0  0  0  0
 38 41  1  0  0  0  0
 41 42  2  0  0  0  0
 25 43  1  0  0  0  0
 43 44  1  0  0  0  0
 44 45  1  0  0  0  0
 45 46  2  0  0  0  0
 46 47  1  0  0  0  0
 47 48  1  0  0  0  0
 48 49  2  0  0  0  0
 49 50  1  0  0  0  0
 50 51  2  0  0  0  0
 51 52  1  0  0  0  0
 52 53  1  0  0  0  0
 51 54  1  0  0  0  0
 54 55  2  0  0  0  0
 47 56  1  0  0  0  0
 56 57  2  0  0  0  0
 57 58  1  0  0  0  0
 58 59  2  0  0  0  0
 59 60  1  0  0  0  0
 60 61  1  0  0  0  0
 59 62  1  0  0  0  0
 62 63  2  0  0  0  0
 46 64  1  0  0  0  0
 64 65  1  0  0  0  0
 45 66  1  0  0  0  0
 66 67  2  0  0  0  0
 67 68  1  0  0  0  0
 68 69  1  0  0  0  0
 69 70  2  0  0  0  0
 70 71  1  0  0  0  0
 71 72  2  0  0  0  0
 72 73  1  0  0  0  0
 73 74  1  0  0  0  0
 72 75  1  0  0  0  0
 75 76  2  0  0  0  0
 68 77  1  0  0  0  0
 77 78  2  0  0  0  0
 78 79  1  0  0  0  0
 79 80  2  0  0  0  0
 80 81  1  0  0  0  0
 81 82  1  0  0  0  0
 80 83  1  0  0  0  0
 83 84  2  0  0  0  0
 67 85  1  0  0  0  0
 85 86  1  0  0  0  0
 86 87  1  0  0  0  0
 87 88  2  0  0  0  0
 88 89  1  0  0  0  0
 89 90  1  0  0  0  0
 90 91  2  0  0  0  0
 91 92  1  0  0  0  0
 92 93  2  0  0  0  0
 93 94  1  0  0  0  0
 94 95  1  0  0  0  0
 93 96  1  0  0  0  0
 96 97  2  0  0  0  0
 89 98  1  0  0  0  0
 98 99  2  0  0  0  0
 99100  1  0  0  0  0
100101  2  0  0  0  0
101102  1  0  0  0  0
102103  1  0  0  0  0
101104  1  0  0  0  0
104105  2  0  0  0  0
 88106  1  0  0  0  0
106107  1  0  0  0  0
 87108  1  0  0  0  0
108109  2  0  0  0  0
109110  1  0  0  0  0
110111  2  0  0  0  0
111112  1  0  0  0  0
111113  1  0  0  0  0
113114  2  0  0  0  0
114115  1  0  0  0  0
115116  2  0  0  0  0
115117  1  0  0  0  0
117118  2  0  0  0  0
118119  1  0  0  0  0
119120  1  0  0  0  0
120121  1  0  0  0  0
120122  1  0  0  0  0
120123  1  0  0  0  0
119124  2  0  0  0  0
124125  1  0  0  0  0
125126  2  0  0  0  0
126127  1  0  0  0  0
127128  2  0  0  0  0
128129  1  0  0  0  0
129130  3  0  0  0  0
128131  1  0  0  0  0
131132  3  0  0  0  0
 11  2  1  0  0  0  0
 23 17  1  0  0  0  0
 65 24  1  0  0  0  0
107 66  1  0  0  0  0
112108  1  0  0  0  0
127114  1  0  0  0  0
 10  5  1  0  0  0  0
 22 18  1  0  0  0  0
 34 27  1  0  0  0  0
 42 35  1  0  0  0  0
 64 43  2  0  0  0  0
 76 69  1  0  0  0  0
 84 77  1  0  0  0  0
106 85  2  0  0  0  0
126117  1  0  0  0  0
 23  7  1  0  0  0  0
 55 48  1  0  0  0  0
 63 56  1  0  0  0  0
 97 90  1  0  0  0  0
105 98  1  0  0  0  0
  1133  1  0  0  0  0
  6134  1  0  0  0  0
  9135  1  0  0  0  0
 17136  1  0  0  0  0
 18137  1  0  0  0  0
 19138  1  0  0  0  0
 20139  1  0  0  0  0
 21140  1  0  0  0  0
 22141  1  0  0  0  0
 22142  1  0  0  0  0
 23143  1  0  0  0  0
 28144  1  0  0  0  0
 29145  1  0  0  0  0
 32146  1  0  0  0  0
 32147  1  0  0  0  0
 32148  1  0  0  0  0
 33149  1  0  0  0  0
 34150  1  0  0  0  0
 36151  1  0  0  0  0
 37152  1  0  0  0  0
 40153  1  0  0  0  0
 40154  1  0  0  0  0
 40155  1  0  0  0  0
 41156  1  0  0  0  0
 42157  1  0  0  0  0
 49158  1  0  0  0  0
 50159  1  0  0  0  0
 53160  1  0  0  0  0
 53161  1  0  0  0  0
 53162  1  0  0  0  0
 54163  1  0  0  0  0
 55164  1  0  0  0  0
 57165  1  0  0  0  0
 58166  1  0  0  0  0
 61167  1  0  0  0  0
 61168  1  0  0  0  0
 61169  1  0  0  0  0
 62170  1  0  0  0  0
 63171  1  0  0  0  0
 70172  1  0  0  0  0
 71173  1  0  0  0  0
 74174  1  0  0  0  0
 74175  1  0  0  0  0
 74176  1  0  0  0  0
 75177  1  0  0  0  0
 76178  1  0  0  0  0
 78179  1  0  0  0  0
 79180  1  0  0  0  0
 82181  1  0  0  0  0
 82182  1  0  0  0  0
 82183  1  0  0  0  0
 83184  1  0  0  0  0
 84185  1  0  0  0  0
 91186  1  0  0  0  0
 92187  1  0  0  0  0
 95188  1  0  0  0  0
 95189  1  0  0  0  0
 95190  1  0  0  0  0
 96191  1  0  0  0  0
 97192  1  0  0  0  0
 99193  1  0  0  0  0
100194  1  0  0  0  0
103195  1  0  0  0  0
103196  1  0  0  0  0
103197  1  0  0  0  0
104198  1  0  0  0  0
105199  1  0  0  0  0
109200  1  0  0  0  0
110201  1  0  0  0  0
113202  1  0  0  0  0
118203  1  0  0  0  0
124204  1  0  0  0  0
125205  1  0  0  0  0
M  END
