119

C          1.33260       -3.92940       -3.93750
C          2.64280       -3.66820       -3.78590
C          3.20730       -2.98010       -2.58420
O          2.62180       -2.66970       -1.57110
C          4.60430       -2.67460       -2.92410
C          5.51420       -1.97320       -2.13300
C          6.74410       -1.79700       -2.71710
C          7.04990       -2.27860       -3.99910
C          6.16370       -2.96750       -4.79090
C          4.90260       -3.16320       -4.21390
C          3.72230       -3.82320       -4.75680
C          3.64570       -4.50390       -5.93830
C          4.71940       -4.66170       -6.84210
N          5.54920       -4.82370       -7.61780
C          2.48830       -5.15970       -6.41420
N          1.59210       -5.71690       -6.86460
C          8.45600       -1.73520       -3.95370
C          9.58170       -2.75410       -3.67600
C         10.73970       -1.89600       -3.21950
C         10.45090       -1.43980       -2.00740
C          9.09280       -1.98180       -1.62400
C          9.14310       -3.34340       -2.32910
C          8.11500       -1.19900       -2.52610
C          0.37930       -3.70030       -2.85530
C          0.39390       -4.42530       -1.68640
F          1.24280       -5.45560       -1.55510
C         -0.46200       -4.12520       -0.61340
F         -0.44390       -4.94110        0.44770
C         -1.31190       -3.04150       -0.65820
C         -1.36820       -2.29130       -1.86220
N         -2.15620       -1.20610       -1.93640
C         -2.24720       -0.54980       -3.06440
C         -3.20640        0.59980       -3.07220
C         -4.61000        0.08910       -3.41260
C         -1.50460       -0.96800       -4.20860
N         -0.66490       -1.96990       -4.12870
C         -0.56690       -2.65210       -2.97350
C         -1.57270       -0.26970       -5.53230
C         -0.54720        0.86600       -5.58520
C         -2.02940       -2.54140        0.51370
C         -3.34540       -2.13610        0.48010
F         -4.12130       -2.40370       -0.57870
C         -3.93030       -1.45710        1.56030
F         -5.20850       -1.06630        1.43410
C         -3.24380       -1.19550        2.73120
C         -1.90750       -1.68000        2.82320
N         -1.19740       -1.48740        3.94740
C          0.04310       -1.90440        4.01140
C          0.72670       -1.71150        5.33000
C          0.69140       -3.00880        6.14250
C          0.66370       -2.51490        2.88070
N         -0.01270       -2.68500        1.77440
C         -1.30110       -2.31780        1.71310
C          2.09310       -2.96130        2.83860
C          2.89420       -2.10810        1.85270
C         -3.80810       -0.40170        3.79670
C         -3.59290       -0.54000        5.16390
N         -4.15470        0.38290        5.92030
C         -4.79300        1.30020        5.22540
S         -4.76050        0.99730        3.48920
C         -5.39050        2.38660        5.89290
C         -5.93390        3.53110        5.37900
C         -5.94400        3.90770        3.95660
O         -5.66570        3.21000        2.99970
C         -6.34530        5.32450        3.91260
C         -6.42720        6.15160        2.83000
C         -6.81380        7.49600        3.02400
C         -6.90340        8.39620        1.94460
C         -7.27120        9.69450        2.16100
F         -7.35230       10.55110        1.13400
C         -7.56690       10.14730        3.46270
F         -7.92380       11.42510        3.64450
C         -7.49010        9.29660        4.52970
C         -7.11200        7.95200        4.34090
C         -7.02440        7.06750        5.44070
C         -6.64520        5.76770        5.23080
C         -6.45460        4.64830        6.15080
C         -6.76020        4.65800        7.48450
C         -6.64330        3.55810        8.36290
N         -6.59730        2.71690        9.14220
C         -7.27360        5.78370        8.16420
N         -7.68790        6.66610        8.76980
H          0.91920       -4.24710       -4.88480
H          5.23180       -1.61260       -1.15620
H          6.40950       -3.31820       -5.77930
H          8.71220       -1.01980       -4.73260
H          9.77680       -3.44860       -4.48820
H         11.59650       -1.67220       -3.82730
H         11.01800       -0.75860       -1.40060
H          8.84300       -1.97280       -0.56650
H          9.89940       -3.99950       -1.90200
H          8.18710       -3.86260       -2.36120
H          8.14240       -0.12500       -2.35200
H         -2.90030        1.36370       -3.78610
H         -3.22440        1.03350       -2.07160
H         -5.32050        0.91140       -3.39480
H         -4.63000       -0.36760       -4.40000
H         -4.91740       -0.65540       -2.68300
H         -1.33500       -0.99650       -6.30980
H         -2.57380        0.12270       -5.70860
H          0.45410        0.46780       -5.44010
H         -0.73870        1.60300       -4.80820
H         -0.58890        1.36160       -6.55180
H          0.19060       -0.93310        5.87400
H          1.75860       -1.39030        5.18240
H          1.17970       -2.86040        7.10220
H          1.19600       -3.81520        5.61530
H         -0.33830       -3.30860        6.32090
H          2.10700       -3.99610        2.49090
H          2.54760       -2.91800        3.82710
H          2.87220       -1.06020        2.14700
H          2.47750       -2.20120        0.85360
H          3.92890       -2.44210        1.83340
H         -3.02900       -1.33390        5.61620
H         -5.33160        2.28200        6.96980
H         -6.19490        5.78590        1.84140
H         -6.68020        8.06450        0.94270
H         -7.72070        9.65990        5.51900
H         -7.25200        7.44610        6.42390
