219

C          5.45070       -3.15100       -8.03760
C          5.40960       -2.27350       -9.07390
C          4.59670       -1.03400       -9.14510
O          3.81870       -0.58710       -8.32520
C          5.01450       -0.34990      -10.38290
C          4.52070        0.85800      -10.87400
C          5.13330        1.28970      -12.02480
C          6.17040        0.57670      -12.64160
C          6.66500       -0.61570      -12.17140
C          6.04720       -1.07840      -11.00410
C          6.29260       -2.29030      -10.23060
C          7.15730       -3.29310      -10.57900
C          7.97450       -3.28200      -11.72970
N          8.66520       -3.34700      -12.64450
C          7.35140       -4.49790       -9.86950
N          7.56870       -5.50970       -9.37110
C          6.31570        1.59040      -13.74940
C          5.70570        1.20950      -15.11500
C          5.56940        2.53340      -15.83180
C          4.58700        3.20850      -15.24910
C          4.04250        2.35210      -14.12860
C          4.23880        0.95960      -14.74160
C          5.15820        2.38430      -13.06260
C          4.55760       -3.19680       -6.92150
C          5.04260       -3.54240       -5.66520
C          4.27520       -3.38060       -4.52200
F          4.84090       -3.71480       -3.34050
C          2.97330       -2.88590       -4.51900
C          2.38610       -2.75910       -5.80210
C          3.17090       -2.90840       -6.99920
N          2.42950       -2.77160       -8.09330
S          0.91970       -2.43370       -7.66370
N          1.11580       -2.46930       -6.06670
C          2.29600       -2.46200       -3.33160
C          2.86060       -1.79620       -2.24710
N          4.14950       -1.30860       -2.19150
C          4.78210       -0.84150       -3.35290
C          6.13460       -1.10110       -3.57470
C          6.73470       -0.70320       -4.75020
C          6.00110       -0.03530       -5.72610
S          6.83010        0.38180       -7.23160
C          5.91360        1.84590       -7.79160
C          4.66160        0.25420       -5.49760
C          4.06300       -0.14080       -4.32010
C          4.81340       -1.23770       -0.95880
C          5.61340       -0.13430       -0.66030
C          6.28440       -0.07270        0.53890
C          6.17530       -1.10920        1.46530
S          7.08700       -0.91840        2.96350
C          7.13360       -2.59270        3.65970
C          5.37010       -2.20400        1.17790
C          4.69410       -2.26370       -0.02530
C          1.88040       -1.53990       -1.25740
S          1.90080       -0.69040        0.24460
C          0.16370       -0.90940        0.40700
C         -0.39400       -1.57750       -0.66530
N         -1.75770       -1.76970       -0.82660
C         -2.59250       -0.67640       -0.49760
C         -2.29200        0.58800       -1.00040
C         -3.05860        1.67680       -0.64640
C         -4.13870        1.52390        0.21970
S         -5.02340        2.98880        0.64830
C         -6.59200        2.36110        1.30930
C         -4.45410        0.26110        0.70670
C         -3.69180       -0.83080        0.33880
C         -2.27100       -2.92530       -1.40520
C         -1.53090       -4.10700       -1.43610
C         -2.04400       -5.25500       -2.00690
C         -3.31570       -5.25040       -2.55920
S         -4.08380       -6.67520       -3.27940
C         -2.68660       -7.79130       -3.59330
C         -4.06530       -4.07690       -2.52620
C         -3.55100       -2.93050       -1.96480
C          0.60420       -1.94950       -1.60560
S          0.56170       -2.66050       -3.18440
C         -0.51620       -0.26180        1.50840
C         -1.04810       -0.81560        2.65260
N         -1.01120       -2.19030        2.95310
C         -2.17620       -2.93340        2.63670
C         -3.40060       -2.62490        3.22470
C         -4.53980       -3.31420        2.86840
C         -4.48450       -4.33220        1.91720
S         -6.00780       -5.11970        1.51110
C         -5.54770       -6.36120        0.27100
C         -3.26210       -4.65920        1.34590
C         -2.12480       -3.96040        1.70120
C          0.20600       -2.80720        3.20590
C          0.26650       -4.16700        3.51960
C          1.47280       -4.78930        3.76800
C          2.65350       -4.06250        3.74250
S          4.25070       -4.79150        3.99300
C          3.88240       -6.33240        4.87520
C          2.60010       -2.69560        3.49750
C          1.39760       -2.07670        3.23830
C         -1.60900        0.18080        3.48480
S         -2.41080        0.16470        5.01260
C         -2.67430        1.90830        4.93210
C         -2.14670        2.46090        3.75500
N         -2.28140        3.76040        3.36230
C         -1.36610        4.27150        2.41980
C          0.00110        4.14080        2.64170
C          0.91130        4.59990        1.70940
C          0.46020        5.19760        0.54040
S          1.52410        5.78980       -0.73360
C          3.16110        5.16320       -0.25880
C         -0.91050        5.35810        0.33310
C         -1.81790        4.90280        1.26200
C         -3.38950        4.55820        3.70720
C         -4.66770        4.01240        3.81930
C         -5.73390        4.81820        4.14090
C         -5.55450        6.18590        4.34940
S         -6.99870        7.11220        4.75170
C         -6.36090        8.76400        5.15150
C         -4.28600        6.73340        4.22050
C         -3.21260        5.92270        3.90280
C         -1.51050        1.46590        2.97370
S         -0.64940        1.48460        1.47980
C         -3.20890        2.62180        6.01680
C         -3.88290        2.15010        7.10710
C         -3.91460        2.95090        8.35450
O         -3.60480        4.11650        8.47680
C         -4.34960        2.01240        9.40930
C         -4.42340        2.25340       10.77850
C         -4.83910        1.17080       11.51690
C         -5.14870       -0.06810       10.94060
C         -5.08660       -0.31980        9.59030
C         -4.67830        0.77210        8.82230
C         -4.54360        0.89780        7.37270
C         -5.18270        0.10670        6.44750
C         -5.31590        0.45980        5.09390
N         -5.51390        0.74150        3.99640
C         -5.87870       -1.07750        6.75550
N         -6.44590       -2.05950        6.93750
C         -5.48970       -0.69160       12.27080
C         -6.98860       -0.87440       12.61430
C         -7.73640        0.18310       11.84070
C         -7.45140        1.35910       12.38400
C         -6.50560        1.11790       13.53450
C         -7.01180       -0.25020       14.01870
C         -5.15260        0.69140       12.91210
H          6.27470       -3.85180       -7.98960
H          3.72030        1.37910      -10.37100
H          7.46750       -1.14750      -12.65390
H          7.29220        2.06280      -13.83630
H          6.23090        0.41820      -15.64260
H          6.21650        2.85470      -16.62660
H          4.24970        4.20650      -15.45970
H          3.05170        2.60250      -13.75890
H          3.61210        0.80410      -15.61810
H          4.09260        0.14070      -14.03970
H          5.36290        3.38700      -12.69120
H          6.06560       -3.86690       -5.55160
H          6.70150       -1.63610       -2.82800
H          7.77670       -0.91890       -4.92970
H          4.91250        1.56100       -8.09820
H          6.46500        2.23700       -8.64100
H          5.88620        2.57700       -6.98940
H          4.07130        0.76590       -6.23830
H          3.02020        0.08560       -4.15290
H          5.70530        0.66780       -1.37760
H          6.90550        0.77780        0.77480
H          7.84590       -2.54970        4.47760
H          7.47790       -3.29000        2.90230
H          6.15670       -2.87980        4.03600
H          5.26690       -3.01910        1.87630
H          4.08410       -3.12470       -0.25320
H         -1.44830        0.71290       -1.66330
H         -2.82200        2.65830       -1.02770
H         -7.05680        1.71450        0.57080
H         -7.20760        3.23920        1.47870
H         -6.42620        1.83780        2.24560
H         -5.27460        0.11560        1.38940
H         -3.94290       -1.81010        0.71350
H         -0.54680       -4.14360       -0.99570
H         -1.44170       -6.14960       -2.00320
H         -3.08030       -8.58770       -4.21700
H         -1.90590       -7.25400       -4.12320
H         -2.31630       -8.20700       -2.66040
H         -5.05530       -4.07350       -2.95630
H         -4.13970       -2.02660       -1.96660
H         -3.46660       -1.84360        3.96290
H         -5.48640       -3.06910        3.32490
H         -4.85410       -7.07740        0.70180
H         -6.47270       -6.86190        0.00300
H         -5.12670       -5.87660       -0.60470
H         -3.18170       -5.44090        0.60880
H         -1.18140       -4.21280        1.24300
H         -0.64170       -4.74660        3.57770
H          1.47440       -5.84610        3.98430
H          4.83520       -6.69550        5.24790
H          3.21250       -6.12210        5.70350
H          3.45230       -7.06280        4.19550
H          3.50700       -2.11150        3.50820
H          1.39000       -1.01080        3.07300
H          0.35300        3.67590        3.55120
H          1.96390        4.48480        1.90940
H          3.81860        5.40690       -1.08750
H          3.50820        5.66150        0.64170
H          3.11700        4.08640       -0.12450
H         -1.25090        5.83230       -0.57440
H         -2.87860        5.00440        1.09050
H         -4.81900        2.95760        3.65950
H         -6.72420        4.39870        4.22970
H         -7.22010        9.33490        5.48930
H         -5.62870        8.69040        5.95010
H         -5.93750        9.22760        4.26520
H         -4.11430        7.78720        4.36730
H         -2.22640        6.35320        3.80920
H         -2.96350        3.67860        6.05540
H         -4.17110        3.21970       11.18640
H         -5.31940       -1.27790        9.15470
H         -4.88800       -1.54950       12.56470
H         -7.35440       -1.89250       12.51180
H         -8.32970       -0.02090       10.96880
H         -7.75980        2.33470       12.05660
H         -6.43240        1.91390       14.27100
H         -6.33800       -0.73820       14.72190
H         -8.01400       -0.20270       14.44200
H         -4.33460        0.73590       13.62880
