265

C         -0.96440       -2.75530       -8.05600
C          0.17240       -2.29580       -8.68570
C          1.10680       -1.33440       -8.07620
O          1.06490       -0.86860       -6.95140
C          2.04190       -0.94650       -9.14960
C          3.10540       -0.05400       -9.05010
C          3.82210        0.08900      -10.21500
C          3.50130       -0.59800      -11.39220
C          2.45050       -1.47890      -11.50360
C          1.71120       -1.63960      -10.33010
C          0.56180       -2.49770      -10.05250
C          0.04170       -3.44760      -10.89760
C          0.47960       -3.67990      -12.21460
N          0.77960       -3.93820      -13.29340
C         -0.94700       -4.37540      -10.51850
N         -1.70870       -5.20080      -10.27370
C          4.63410        0.03230      -12.16460
C          4.25920        1.17460      -13.13200
C          5.56690        1.89680      -13.36360
C          5.87260        2.54590      -12.24750
C          4.77670        2.27340      -11.24270
C          3.57240        2.16950      -12.18740
C          4.99380        0.79660      -10.85010
C         -1.13380       -2.79750       -6.66880
C         -0.17710       -2.88500       -5.63640
N          1.11810       -3.27850       -5.76480
C          1.61020       -3.93720       -6.90280
C          2.83370       -3.54460       -7.44680
C          3.29780       -4.13410       -8.60180
C          2.56310       -5.14010       -9.22850
S          3.20960       -5.76000      -10.74220
C          1.95580       -6.93880      -11.31530
C          1.38120       -5.58540       -8.64370
C          0.90910       -4.98370       -7.49590
C          2.03830       -3.05550       -4.71370
C          2.25390       -1.77460       -4.21290
C          3.13670       -1.58920       -3.17260
C          3.81620       -2.67090       -2.61690
S          4.89150       -2.31240       -1.26680
C          5.73510       -3.88620       -0.94130
C          3.62250       -3.94430       -3.13670
C          2.74220       -4.13100       -4.18520
C         -0.78990       -2.64070       -4.38360
S         -0.18080       -2.47450       -2.77470
C         -1.79670       -2.14210       -2.18900
C         -2.76440       -2.24580       -3.16680
N         -4.12800       -2.17360       -2.90770
C         -4.96590       -1.46530       -3.77530
C         -6.31070       -1.79750       -3.92170
C         -7.13390       -1.05660       -4.74600
C         -6.62610        0.02100       -5.45800
S         -7.60350        1.02580       -6.53440
C         -9.27960        0.82020       -5.86680
C         -5.27370        0.32620       -5.35570
C         -4.45800       -0.40360       -4.52240
C         -4.60930       -2.81680       -1.75680
C         -5.67910       -2.30300       -1.02220
C         -6.10200       -2.93090        0.12920
C         -5.47470       -4.08970        0.57870
S         -6.08860       -4.81750        2.06570
C         -4.76570       -5.95850        2.55780
C         -4.43350       -4.62640       -0.16410
C         -4.01140       -3.99710       -1.31760
C         -2.17040       -2.50160       -4.42930
S         -2.78290       -2.65810       -6.03290
C         -1.94150       -1.60990       -0.85530
C         -2.07870       -0.26470       -0.60150
N         -2.13350        0.70330       -1.62060
C         -3.34340        1.29470       -1.94920
C         -4.52040        0.83030       -1.35600
C         -5.74200        1.35090       -1.71480
C         -5.83110        2.35440       -2.67380
S         -7.45870        2.88940       -3.10680
C         -7.19160        4.00630       -4.51040
C         -4.66350        2.87460       -3.21120
C         -3.43510        2.36000       -2.84400
C         -0.90830        0.97270       -2.26290
C          0.23500        1.16090       -1.48990
C          1.45220        1.44690       -2.07530
C          1.55090        1.55060       -3.45560
S          3.04730        1.93890       -4.30690
C          4.12970        2.56330       -2.98840
C          0.42340        1.31270       -4.23940
C         -0.78830        1.02380       -3.65120
C         -1.99980        0.00560        0.78080
S         -1.87310        1.45180        1.71000
C         -1.42490        0.52300        3.13960
C         -1.46130       -0.83200        2.91130
N         -1.07210       -1.81500        3.84350
C          0.19020       -2.37680        3.58170
C          1.24340       -1.53520        3.22700
C          2.48680       -2.04270        2.90520
C          2.70870       -3.41100        2.94660
S          4.25360       -4.16610        2.53560
C          5.42270       -2.77590        2.56450
C          1.66360       -4.25890        3.30390
C          0.41900       -3.75290        3.60870
C         -2.08400       -2.54600        4.48170
C         -1.79360       -3.26210        5.64440
C         -2.77240       -3.99830        6.27250
C         -4.07230       -4.02210        5.77120
S         -5.24570       -5.02120        6.63340
C         -6.83600       -4.60860        5.86080
C         -4.37680       -3.27790        4.64250
C         -3.39060       -2.55270        4.00290
C         -1.77540       -1.11820        1.55870
S         -1.71360       -2.55690        0.60030
C         -0.79220        1.26540        4.19200
C         -0.83420        1.22880        5.57250
N         -1.65370        0.45680        6.37380
C         -2.98960        0.17880        6.10050
C         -3.70120        0.85370        5.11030
C         -5.01680        0.53200        4.84110
C         -5.65920       -0.45180        5.57600
S         -7.33280       -0.93970        5.25790
C         -7.44940       -0.73020        3.45510
C         -4.97840       -1.08200        6.61180
C         -3.65880       -0.78340        6.86150
C         -1.10570        0.13400        7.64030
C         -1.71080        0.56360        8.81520
C         -1.10640        0.33700       10.03500
C          0.11940       -0.31280       10.09240
S          0.99930       -0.59170       11.59100
C          0.15560        0.49810       12.77460
C          0.70700       -0.78080        8.91960
C          0.09990       -0.56030        7.70270
C          0.10160        2.15240        6.12500
S          0.56840        2.54480        7.74050
C          1.70520        3.75460        7.13700
C          1.76830        3.76560        5.72030
N          2.67030        4.46120        4.96300
C          2.42410        4.62920        3.58470
C          1.20740        5.13630        3.13690
C          0.92820        5.19420        1.78440
C          1.86440        4.74340        0.86350
S          1.56000        4.67960       -0.87350
C         -0.24890        4.59680       -0.97420
C          3.11480        4.31550        1.30750
C          3.39500        4.26080        2.65390
C          3.94630        4.82670        5.44220
C          4.69580        3.95660        6.23640
C          5.88670        4.37810        6.77990
C          6.36760        5.66330        6.52200
S          7.84560        6.13940        7.35430
C          7.84070        7.94810        7.21320
C          5.67410        6.48800        5.64630
C          4.46690        6.07390        5.11650
C          0.82370        2.87200        5.18300
S          0.36640        2.44300        3.57520
C          2.43220        4.61990        7.95250
C          2.72210        4.54480        9.29670
C          2.31480        3.48160       10.21900
O          1.43440        2.65200       10.06920
C          3.17480        3.63350       11.41040
C          3.26260        2.83300       12.53150
C          4.15530        3.19050       13.53170
C          4.93030        4.33080       13.38730
I          6.27320        4.85680       14.93130
C          4.86120        5.14000       12.26030
C          3.97480        4.77950       11.26030
C          3.67510        5.39580        9.96690
C          4.22630        6.56280        9.49880
C          3.85490        7.22450        8.31340
N          3.60930        7.85180        7.38130
C          5.23950        7.28970       10.15570
N          6.08040        7.92680       10.60950
H         -1.81870       -3.04750       -8.65490
H          3.32190        0.45210       -8.12170
H          2.21350       -2.00160      -12.41540
H          5.36430       -0.65780      -12.58300
H          3.71010        0.86100      -14.01560
H          6.14390        1.81840      -14.26640
H          6.75610        3.11800      -12.03170
H          4.69840        2.96060      -10.40440
H          2.67100        1.78330      -11.71540
H          3.35050        3.11620      -12.67740
H          5.96470        0.61610      -10.39210
H          3.40000       -2.75910       -6.96960
H          4.22660       -3.80980       -9.04510
H          1.89970       -7.78420      -10.63580
H          2.29780       -7.26970      -12.29100
H          0.99370       -6.44540      -11.41570
H          0.81300       -6.39120       -9.07790
H         -0.01840       -5.32580       -7.06210
H          1.74040       -0.94010       -4.66260
H          3.30940       -0.60220       -2.77640
H          5.03530       -4.60400       -0.52310
H          6.50780       -3.66290       -0.21260
H          6.19010       -4.25300       -1.85620
H          4.13720       -4.79940       -2.72970
H          2.58790       -5.12120       -4.58880
H         -6.71660       -2.64660       -3.39300
H         -8.17120       -1.33750       -4.83420
H         -9.67430       -0.15790       -6.12650
H         -9.88240        1.59230       -6.33470
H         -9.25280        0.96650       -4.79110
H         -4.86980        1.14820       -5.92680
H         -3.41810       -0.13870       -4.43060
H         -6.17560       -1.40600       -1.35510
H         -6.92650       -2.52450        0.69560
H         -5.00740       -6.28760        3.56380
H         -3.81740       -5.42870        2.56280
H         -4.74190       -6.81510        1.89030
H         -3.94430       -5.53800        0.13830
H         -3.20400       -4.43400       -1.88620
H         -4.46980        0.04640       -0.61560
H         -6.64900        0.98110       -1.25960
H         -6.66550        3.47890       -5.30040
H         -6.65020        4.89080       -4.18690
H         -8.18230        4.28770       -4.85340
H         -4.69150        3.68550       -3.92120
H         -2.54020        2.79180       -3.26490
H          0.17450        1.09460       -0.41390
H          2.30940        1.59710       -1.43960
H          3.60720        3.33240       -2.42680
H          4.45310        1.74980       -2.34420
H          4.99000        2.99070       -3.49390
H          0.51050        1.34180       -5.31480
H         -1.64590        0.83800       -4.27840
H          1.09010       -0.46720        3.18930
H          3.26800       -1.35840        2.61580
H          6.41160       -3.22110        2.51280
H          5.31410       -2.23070        3.49720
H          5.26080       -2.12980        1.70560
H          1.83410       -5.32450        3.32360
H         -0.38580       -4.42800        3.85590
H         -0.79340       -3.23670        6.04980
H         -2.54200       -4.55950        7.16520
H         -6.85610       -4.93930        4.82620
H         -7.58270       -5.14990        6.43350
H         -7.01810       -3.54010        5.93190
H         -5.37540       -3.26780        4.23960
H         -3.64990       -1.99170        3.11700
H         -3.24090        1.65650        4.55690
H         -5.53740        1.06810        4.06260
H         -6.53660       -1.09690        2.99580
H         -7.62230        0.31220        3.20270
H         -8.29690       -1.33010        3.13830
H         -5.48690       -1.81840        7.21410
H         -3.13460       -1.31080        7.64240
H         -2.65030        1.09420        8.76830
H         -1.59280        0.69160       10.92830
H          0.11040        1.50100       12.35960
H         -0.83590        0.11590       13.00020
H          0.75970        0.48590       13.67710
H          1.65020       -1.30260        8.97480
H          0.56430       -0.90000        6.78780
H          0.47490        5.47660        3.85380
H         -0.02470        5.58100        1.46130
H         -0.47150        4.25910       -1.98160
H         -0.61700        3.87400       -0.25230
H         -0.68360        5.57850       -0.80970
H          3.85200        4.00230        0.58430
H          4.35310        3.90020        2.99730
H          4.32260        2.96570        6.44870
H          6.45930        3.72280        7.41830
H          8.59130        8.29750        7.91500
H          6.86490        8.33090        7.49710
H          8.10810        8.24980        6.20450
H          6.04530        7.46680        5.39300
H          3.90880        6.73330        4.47010
H          2.89560        5.44180        7.42270
H          2.65920        1.94330       12.61600
H          4.24720        2.58230       14.41820
H          5.48650        6.01380       12.17680
