
  xtb     02142212243D
 energy: -385.127539443659 gnorm: 0.000662676757 xtb: 6.4.1 (unknown)
233256  0     0  0            999 V2000
    4.9604   -5.2050   -4.1048 C   0  0  0  0  0  0  0  0  0  0  0  0
    4.8350   -5.4791   -5.4419 C   0  0  0  0  0  0  0  0  0  0  0  0
    5.4922   -6.6793   -6.0079 C   0  0  0  0  0  0  0  0  0  0  0  0
    6.2910   -7.4074   -5.4564 O   0  0  0  0  0  0  0  0  0  0  0  0
    4.8922   -6.8583   -7.3456 C   0  0  0  0  0  0  0  0  0  0  0  0
    5.0852   -7.9255   -8.2203 C   0  0  0  0  0  0  0  0  0  0  0  0
    4.3307   -7.8550   -9.3667 C   0  0  0  0  0  0  0  0  0  0  0  0
    3.4649   -6.7880   -9.6391 C   0  0  0  0  0  0  0  0  0  0  0  0
    3.2860   -5.7146   -8.7993 C   0  0  0  0  0  0  0  0  0  0  0  0
    4.0240   -5.7822   -7.6156 C   0  0  0  0  0  0  0  0  0  0  0  0
    4.0641   -4.8606   -6.4831 C   0  0  0  0  0  0  0  0  0  0  0  0
    3.6403   -3.5505   -6.4848 C   0  0  0  0  0  0  0  0  0  0  0  0
    2.8509   -2.9719   -7.4931 C   0  0  0  0  0  0  0  0  0  0  0  0
    2.1643   -2.4627   -8.2614 N   0  0  0  0  0  0  0  0  0  0  0  0
    4.0175   -2.6379   -5.4863 C   0  0  0  0  0  0  0  0  0  0  0  0
    4.3360   -1.8557   -4.7063 N   0  0  0  0  0  0  0  0  0  0  0  0
    3.0180   -7.3814  -10.9519 C   0  0  0  0  0  0  0  0  0  0  0  0
    3.6190   -6.7650  -12.2320 C   0  0  0  0  0  0  0  0  0  0  0  0
    3.3909   -7.8243  -13.2859 C   0  0  0  0  0  0  0  0  0  0  0  0
    4.2148   -8.8324  -13.0298 C   0  0  0  0  0  0  0  0  0  0  0  0
    5.0135   -8.4716  -11.7980 C   0  0  0  0  0  0  0  0  0  0  0  0
    5.1222   -6.9533  -11.9893 C   0  0  0  0  0  0  0  0  0  0  0  0
    3.9870   -8.5692  -10.6504 C   0  0  0  0  0  0  0  0  0  0  0  0
    4.1329   -4.4831   -3.2316 C   0  0  0  0  0  0  0  0  0  0  0  0
    2.7869   -4.0766   -3.2877 C   0  0  0  0  0  0  0  0  0  0  0  0
    1.8544   -4.3753   -4.2556 N   0  0  0  0  0  0  0  0  0  0  0  0
    0.6947   -3.5562   -4.3156 C   0  0  0  0  0  0  0  0  0  0  0  0
   -0.5587   -4.1256   -4.1149 C   0  0  0  0  0  0  0  0  0  0  0  0
   -1.6930   -3.3417   -4.1439 C   0  0  0  0  0  0  0  0  0  0  0  0
   -1.5843   -1.9759   -4.3714 C   0  0  0  0  0  0  0  0  0  0  0  0
   -2.9960   -0.9186   -4.4152 S   0  0  0  0  0  0  0  0  0  0  0  0
   -4.1336   -1.7243   -3.2506 C   0  0  0  0  0  0  0  0  0  0  0  0
   -0.3358   -1.4051   -4.5933 C   0  0  0  0  0  0  0  0  0  0  0  0
    0.7984   -2.1895   -4.5626 C   0  0  0  0  0  0  0  0  0  0  0  0
    1.8146   -5.5745   -4.9738 C   0  0  0  0  0  0  0  0  0  0  0  0
    2.4085   -6.7453   -4.5086 C   0  0  0  0  0  0  0  0  0  0  0  0
    2.3895   -7.8998   -5.2676 C   0  0  0  0  0  0  0  0  0  0  0  0
    1.7611   -7.9119   -6.5047 C   0  0  0  0  0  0  0  0  0  0  0  0
    1.7369   -9.2998   -7.5869 S   0  0  0  0  0  0  0  0  0  0  0  0
    2.9400  -10.4385   -6.8461 C   0  0  0  0  0  0  0  0  0  0  0  0
    1.1000   -6.7641   -6.9429 C   0  0  0  0  0  0  0  0  0  0  0  0
    1.1308   -5.6120   -6.1949 C   0  0  0  0  0  0  0  0  0  0  0  0
    2.4502   -3.3324   -2.1330 C   0  0  0  0  0  0  0  0  0  0  0  0
    1.0243   -2.5200   -1.5918 S   0  0  0  0  0  0  0  0  0  0  0  0
    1.8290   -1.9780   -0.1175 C   0  0  0  0  0  0  0  0  0  0  0  0
    3.1397   -2.4306   -0.0531 C   0  0  0  0  0  0  0  0  0  0  0  0
    4.0861   -2.1875    0.9406 N   0  0  0  0  0  0  0  0  0  0  0  0
    4.3598   -0.8879    1.3757 C   0  0  0  0  0  0  0  0  0  0  0  0
    4.0362    0.2184    0.5871 C   0  0  0  0  0  0  0  0  0  0  0  0
    4.3295    1.4941    1.0178 C   0  0  0  0  0  0  0  0  0  0  0  0
    4.9589    1.7054    2.2431 C   0  0  0  0  0  0  0  0  0  0  0  0
    5.2384    3.3833    2.7184 S   0  0  0  0  0  0  0  0  0  0  0  0
    6.0776    3.2482    4.3231 C   0  0  0  0  0  0  0  0  0  0  0  0
    5.2864    0.6107    3.0303 C   0  0  0  0  0  0  0  0  0  0  0  0
    4.9830   -0.6657    2.6023 C   0  0  0  0  0  0  0  0  0  0  0  0
    4.9122   -3.2723    1.2737 C   0  0  0  0  0  0  0  0  0  0  0  0
    6.2681   -3.1252    1.5677 C   0  0  0  0  0  0  0  0  0  0  0  0
    7.0300   -4.2213    1.9098 C   0  0  0  0  0  0  0  0  0  0  0  0
    6.4705   -5.4958    1.9382 C   0  0  0  0  0  0  0  0  0  0  0  0
    7.5106   -6.8344    2.4431 S   0  0  0  0  0  0  0  0  0  0  0  0
    6.6635   -8.2920    1.7635 C   0  0  0  0  0  0  0  0  0  0  0  0
    5.1355   -5.6572    1.5994 C   0  0  0  0  0  0  0  0  0  0  0  0
    4.3701   -4.5567    1.2772 C   0  0  0  0  0  0  0  0  0  0  0  0
    3.4636   -3.2035   -1.1978 C   0  0  0  0  0  0  0  0  0  0  0  0
    4.8920   -4.0203   -1.7019 S   0  0  0  0  0  0  0  0  0  0  0  0
    1.0415   -1.0814    0.6689 C   0  0  0  0  0  0  0  0  0  0  0  0
    0.9927   -0.7556    2.0173 C   0  0  0  0  0  0  0  0  0  0  0  0
    1.7462   -1.2849    3.0580 N   0  0  0  0  0  0  0  0  0  0  0  0
    1.9751   -0.4170    4.1443 C   0  0  0  0  0  0  0  0  0  0  0  0
    1.7622   -0.8090    5.4655 C   0  0  0  0  0  0  0  0  0  0  0  0
    1.8958    0.1031    6.4893 C   0  0  0  0  0  0  0  0  0  0  0  0
    2.2353    1.4271    6.2223 C   0  0  0  0  0  0  0  0  0  0  0  0
    2.3179    2.5369    7.5940 S   0  0  0  0  0  0  0  0  0  0  0  0
    2.0695    4.1624    6.8206 C   0  0  0  0  0  0  0  0  0  0  0  0
    2.4812    1.8156    4.9131 C   0  0  0  0  0  0  0  0  0  0  0  0
    2.3477    0.9007    3.8890 C   0  0  0  0  0  0  0  0  0  0  0  0
    1.9700   -2.6566    3.1980 C   0  0  0  0  0  0  0  0  0  0  0  0
    1.1567   -3.6044    2.5752 C   0  0  0  0  0  0  0  0  0  0  0  0
    1.3817   -4.9510    2.7668 C   0  0  0  0  0  0  0  0  0  0  0  0
    2.4227   -5.3910    3.5808 C   0  0  0  0  0  0  0  0  0  0  0  0
    2.6481   -7.1368    3.7216 S   0  0  0  0  0  0  0  0  0  0  0  0
    4.0798   -7.3045    4.8256 C   0  0  0  0  0  0  0  0  0  0  0  0
    3.2320   -4.4544    4.2072 C   0  0  0  0  0  0  0  0  0  0  0  0
    3.0051   -3.1078    4.0158 C   0  0  0  0  0  0  0  0  0  0  0  0
    0.0008    0.2344    2.2565 C   0  0  0  0  0  0  0  0  0  0  0  0
   -0.5586    1.0338    3.6819 S   0  0  0  0  0  0  0  0  0  0  0  0
   -1.6649    1.9998    2.7419 C   0  0  0  0  0  0  0  0  0  0  0  0
   -1.6975    1.6205    1.4059 C   0  0  0  0  0  0  0  0  0  0  0  0
   -2.6230    2.0587    0.4733 N   0  0  0  0  0  0  0  0  0  0  0  0
   -2.2183    2.2442   -0.8549 C   0  0  0  0  0  0  0  0  0  0  0  0
   -3.0999    1.9998   -1.9036 C   0  0  0  0  0  0  0  0  0  0  0  0
   -2.6943    2.1451   -3.2156 C   0  0  0  0  0  0  0  0  0  0  0  0
   -1.3845    2.5057   -3.5010 C   0  0  0  0  0  0  0  0  0  0  0  0
   -0.7276    2.6500   -5.1325 S   0  0  0  0  0  0  0  0  0  0  0  0
   -2.1393    2.2975   -6.2166 C   0  0  0  0  0  0  0  0  0  0  0  0
   -0.5044    2.7720   -2.4541 C   0  0  0  0  0  0  0  0  0  0  0  0
   -0.9180    2.6575   -1.1463 C   0  0  0  0  0  0  0  0  0  0  0  0
   -3.9154    2.3933    0.8910 C   0  0  0  0  0  0  0  0  0  0  0  0
   -4.5898    3.4902    0.3516 C   0  0  0  0  0  0  0  0  0  0  0  0
   -5.8055    3.8839    0.8674 C   0  0  0  0  0  0  0  0  0  0  0  0
   -6.3859    3.1834    1.9207 C   0  0  0  0  0  0  0  0  0  0  0  0
   -7.8884    3.8225    2.6017 S   0  0  0  0  0  0  0  0  0  0  0  0
   -8.6933    2.3308    3.2672 C   0  0  0  0  0  0  0  0  0  0  0  0
   -5.7537    2.0517    2.4172 C   0  0  0  0  0  0  0  0  0  0  0  0
   -4.5381    1.6578    1.8997 C   0  0  0  0  0  0  0  0  0  0  0  0
   -0.7163    0.6336    1.1423 C   0  0  0  0  0  0  0  0  0  0  0  0
   -0.1872   -0.2099   -0.2655 S   0  0  0  0  0  0  0  0  0  0  0  0
   -2.4451    3.0575    3.3328 C   0  0  0  0  0  0  0  0  0  0  0  0
   -3.0547    2.9969    4.5736 C   0  0  0  0  0  0  0  0  0  0  0  0
   -2.7939    1.9467    5.4160 O   0  0  0  0  0  0  0  0  0  0  0  0
   -1.7081    2.1509    6.3230 C   0  0  0  0  0  0  0  0  0  0  0  0
   -1.9980    3.1106    7.4672 C   0  0  0  0  0  0  0  0  0  0  0  0
   -4.0637    3.9397    4.9734 C   0  0  0  0  0  0  0  0  0  0  0  0
   -4.5944    3.6089    6.1599 O   0  0  0  0  0  0  0  0  0  0  0  0
   -5.5649    4.3781    6.8393 C   0  0  0  0  0  0  0  0  0  0  0  0
   -6.9802    3.8809    6.5668 C   0  0  0  0  0  0  0  0  0  0  0  0
   -4.3611    5.0600    4.1988 C   0  0  0  0  0  0  0  0  0  0  0  0
   -3.5567    5.2555    3.0433 C   0  0  0  0  0  0  0  0  0  0  0  0
   -2.6356    4.2558    2.5963 C   0  0  0  0  0  0  0  0  0  0  0  0
   -1.9864    4.6187    1.4962 N   0  0  0  0  0  0  0  0  0  0  0  0
   -2.5090    6.0701    1.0397 S   0  0  0  0  0  0  0  0  0  0  0  0
   -3.5776    6.3058    2.2259 N   0  0  0  0  0  0  0  0  0  0  0  0
   -5.4248    6.0089    4.4291 C   0  0  0  0  0  0  0  0  0  0  0  0
   -5.3822    7.3478    4.2370 C   0  0  0  0  0  0  0  0  0  0  0  0
   -6.6522    8.1172    4.1287 C   0  0  0  0  0  0  0  0  0  0  0  0
   -7.7542    7.7395    4.4566 O   0  0  0  0  0  0  0  0  0  0  0  0
   -6.2732    9.4071    3.5230 C   0  0  0  0  0  0  0  0  0  0  0  0
   -7.1266   10.4217    3.0951 C   0  0  0  0  0  0  0  0  0  0  0  0
   -6.4812   11.5001    2.5398 C   0  0  0  0  0  0  0  0  0  0  0  0
   -5.0872   11.5631    2.4043 C   0  0  0  0  0  0  0  0  0  0  0  0
   -4.2324   10.5729    2.8244 C   0  0  0  0  0  0  0  0  0  0  0  0
   -4.8680    9.4734    3.4077 C   0  0  0  0  0  0  0  0  0  0  0  0
   -4.2901    8.2661    3.9876 C   0  0  0  0  0  0  0  0  0  0  0  0
   -2.9896    8.1183    4.3898 C   0  0  0  0  0  0  0  0  0  0  0  0
   -2.5091    7.0211    5.1281 C   0  0  0  0  0  0  0  0  0  0  0  0
   -2.0593    6.1779    5.7663 N   0  0  0  0  0  0  0  0  0  0  0  0
   -1.9752    9.0726    4.1720 C   0  0  0  0  0  0  0  0  0  0  0  0
   -1.1016    9.8023    4.0210 N   0  0  0  0  0  0  0  0  0  0  0  0
   -5.1318   12.9256    1.7594 C   0  0  0  0  0  0  0  0  0  0  0  0
   -4.7492   14.1459    2.6325 C   0  0  0  0  0  0  0  0  0  0  0  0
   -5.0483   13.7607    4.0602 C   0  0  0  0  0  0  0  0  0  0  0  0
   -6.3664   13.7036    4.1961 C   0  0  0  0  0  0  0  0  0  0  0  0
   -6.9823   14.0487    2.8627 C   0  0  0  0  0  0  0  0  0  0  0  0
   -5.9496   15.0606    2.3413 C   0  0  0  0  0  0  0  0  0  0  0  0
   -6.6837   12.8587    1.9170 C   0  0  0  0  0  0  0  0  0  0  0  0
    5.8117   -5.6841   -3.6286 H   0  0  0  0  0  0  0  0  0  0  0  0
    5.7727   -8.7228   -7.9809 H   0  0  0  0  0  0  0  0  0  0  0  0
    2.6165   -4.8981   -9.0148 H   0  0  0  0  0  0  0  0  0  0  0  0
    1.9535   -7.5916  -11.0346 H   0  0  0  0  0  0  0  0  0  0  0  0
    3.2702   -5.7620  -12.4618 H   0  0  0  0  0  0  0  0  0  0  0  0
    2.6396   -7.7580  -14.0509 H   0  0  0  0  0  0  0  0  0  0  0  0
    4.2890   -9.7759  -13.5381 H   0  0  0  0  0  0  0  0  0  0  0  0
    5.9357   -9.0231  -11.6345 H   0  0  0  0  0  0  0  0  0  0  0  0
    5.4998   -6.4221  -11.1176 H   0  0  0  0  0  0  0  0  0  0  0  0
    5.7168   -6.6897  -12.8625 H   0  0  0  0  0  0  0  0  0  0  0  0
    3.5630   -9.5652  -10.5372 H   0  0  0  0  0  0  0  0  0  0  0  0
   -0.6397   -5.1871   -3.9311 H   0  0  0  0  0  0  0  0  0  0  0  0
   -2.6556   -3.8019   -3.9867 H   0  0  0  0  0  0  0  0  0  0  0  0
   -4.6187   -2.5775   -3.7158 H   0  0  0  0  0  0  0  0  0  0  0  0
   -3.5792   -2.0182   -2.3649 H   0  0  0  0  0  0  0  0  0  0  0  0
   -4.8770   -0.9763   -2.9943 H   0  0  0  0  0  0  0  0  0  0  0  0
   -0.2562   -0.3454   -4.7771 H   0  0  0  0  0  0  0  0  0  0  0  0
    1.7665   -1.7386   -4.7114 H   0  0  0  0  0  0  0  0  0  0  0  0
    2.8818   -6.7634   -3.5393 H   0  0  0  0  0  0  0  0  0  0  0  0
    2.8717   -8.7807   -4.8768 H   0  0  0  0  0  0  0  0  0  0  0  0
    3.0825  -11.2315   -7.5737 H   0  0  0  0  0  0  0  0  0  0  0  0
    3.8763   -9.9152   -6.6768 H   0  0  0  0  0  0  0  0  0  0  0  0
    2.5454  -10.8546   -5.9236 H   0  0  0  0  0  0  0  0  0  0  0  0
    0.5827   -6.7849   -7.8892 H   0  0  0  0  0  0  0  0  0  0  0  0
    0.6455   -4.7205   -6.5630 H   0  0  0  0  0  0  0  0  0  0  0  0
    3.5710    0.0783   -0.3765 H   0  0  0  0  0  0  0  0  0  0  0  0
    4.0767    2.3445    0.4028 H   0  0  0  0  0  0  0  0  0  0  0  0
    7.0198    2.7210    4.2055 H   0  0  0  0  0  0  0  0  0  0  0  0
    5.4342    2.7491    5.0426 H   0  0  0  0  0  0  0  0  0  0  0  0
    6.2661    4.2696    4.6398 H   0  0  0  0  0  0  0  0  0  0  0  0
    5.7683    0.7327    3.9866 H   0  0  0  0  0  0  0  0  0  0  0  0
    5.2377   -1.5027    3.2323 H   0  0  0  0  0  0  0  0  0  0  0  0
    6.7317   -2.1526    1.5100 H   0  0  0  0  0  0  0  0  0  0  0  0
    8.0763   -4.1018    2.1454 H   0  0  0  0  0  0  0  0  0  0  0  0
    7.3642   -9.1145    1.8685 H   0  0  0  0  0  0  0  0  0  0  0  0
    5.7590   -8.5077    2.3250 H   0  0  0  0  0  0  0  0  0  0  0  0
    6.4429   -8.1218    0.7142 H   0  0  0  0  0  0  0  0  0  0  0  0
    4.6715   -6.6300    1.5936 H   0  0  0  0  0  0  0  0  0  0  0  0
    3.3290   -4.6963    1.0318 H   0  0  0  0  0  0  0  0  0  0  0  0
    1.4556   -1.8204    5.6858 H   0  0  0  0  0  0  0  0  0  0  0  0
    1.7090   -0.1944    7.5096 H   0  0  0  0  0  0  0  0  0  0  0  0
    1.8721    4.8501    7.6363 H   0  0  0  0  0  0  0  0  0  0  0  0
    2.9633    4.4741    6.2887 H   0  0  0  0  0  0  0  0  0  0  0  0
    1.2114    4.1214    6.1574 H   0  0  0  0  0  0  0  0  0  0  0  0
    2.7581    2.8293    4.6719 H   0  0  0  0  0  0  0  0  0  0  0  0
    2.5015    1.2178    2.8701 H   0  0  0  0  0  0  0  0  0  0  0  0
    0.3329   -3.2864    1.9549 H   0  0  0  0  0  0  0  0  0  0  0  0
    0.7460   -5.6797    2.2864 H   0  0  0  0  0  0  0  0  0  0  0  0
    4.9503   -6.8249    4.3867 H   0  0  0  0  0  0  0  0  0  0  0  0
    3.8477   -6.8831    5.7992 H   0  0  0  0  0  0  0  0  0  0  0  0
    4.2519   -8.3725    4.9220 H   0  0  0  0  0  0  0  0  0  0  0  0
    4.0483   -4.7551    4.8431 H   0  0  0  0  0  0  0  0  0  0  0  0
    3.6363   -2.3918    4.5179 H   0  0  0  0  0  0  0  0  0  0  0  0
   -4.1121    1.6891   -1.6890 H   0  0  0  0  0  0  0  0  0  0  0  0
   -3.4024    1.9527   -4.0041 H   0  0  0  0  0  0  0  0  0  0  0  0
   -2.9199    3.0358   -6.0583 H   0  0  0  0  0  0  0  0  0  0  0  0
   -1.7539    2.3784   -7.2283 H   0  0  0  0  0  0  0  0  0  0  0  0
   -2.5024    1.2896   -6.0377 H   0  0  0  0  0  0  0  0  0  0  0  0
    0.5056    3.0759   -2.6823 H   0  0  0  0  0  0  0  0  0  0  0  0
   -0.2440    2.8999   -0.3393 H   0  0  0  0  0  0  0  0  0  0  0  0
   -4.1388    4.0492   -0.4550 H   0  0  0  0  0  0  0  0  0  0  0  0
   -6.3070    4.7545    0.4731 H   0  0  0  0  0  0  0  0  0  0  0  0
   -8.6822    1.5511    2.5121 H   0  0  0  0  0  0  0  0  0  0  0  0
   -8.2024    1.9992    4.1774 H   0  0  0  0  0  0  0  0  0  0  0  0
   -9.7150    2.6224    3.4889 H   0  0  0  0  0  0  0  0  0  0  0  0
   -6.1914    1.4766    3.2172 H   0  0  0  0  0  0  0  0  0  0  0  0
   -4.0507    0.7831    2.3029 H   0  0  0  0  0  0  0  0  0  0  0  0
   -0.8276    2.5040    5.7699 H   0  0  0  0  0  0  0  0  0  0  0  0
   -1.4972    1.1491    6.7052 H   0  0  0  0  0  0  0  0  0  0  0  0
   -2.8964    2.8062    7.9960 H   0  0  0  0  0  0  0  0  0  0  0  0
   -2.1243    4.1254    7.0988 H   0  0  0  0  0  0  0  0  0  0  0  0
   -1.1563    3.0914    8.1554 H   0  0  0  0  0  0  0  0  0  0  0  0
   -5.3307    4.2420    7.9010 H   0  0  0  0  0  0  0  0  0  0  0  0
   -5.4604    5.4404    6.5922 H   0  0  0  0  0  0  0  0  0  0  0  0
   -7.6921    4.4834    7.1236 H   0  0  0  0  0  0  0  0  0  0  0  0
   -7.0701    2.8436    6.8810 H   0  0  0  0  0  0  0  0  0  0  0  0
   -7.2236    3.9440    5.5091 H   0  0  0  0  0  0  0  0  0  0  0  0
   -6.4176    5.6178    4.6209 H   0  0  0  0  0  0  0  0  0  0  0  0
   -8.1957   10.3307    3.2071 H   0  0  0  0  0  0  0  0  0  0  0  0
   -3.1627   10.6263    2.7065 H   0  0  0  0  0  0  0  0  0  0  0  0
   -4.7242   12.9905    0.7525 H   0  0  0  0  0  0  0  0  0  0  0  0
   -3.7567   14.5445    2.4410 H   0  0  0  0  0  0  0  0  0  0  0  0
   -4.2933   13.5199    4.7854 H   0  0  0  0  0  0  0  0  0  0  0  0
   -6.9335   13.4057    5.0585 H   0  0  0  0  0  0  0  0  0  0  0  0
   -8.0234   14.3602    2.8810 H   0  0  0  0  0  0  0  0  0  0  0  0
   -5.9296   15.9801    2.9243 H   0  0  0  0  0  0  0  0  0  0  0  0
   -6.0688   15.2972    1.2849 H   0  0  0  0  0  0  0  0  0  0  0  0
   -7.2904   12.8850    1.0138 H   0  0  0  0  0  0  0  0  0  0  0  0
  1  2  2  0  0  0  0
  2  3  1  0  0  0  0
  3  4  2  0  0  0  0
  3  5  1  0  0  0  0
  5  6  2  0  0  0  0
  6  7  1  0  0  0  0
  7  8  2  0  0  0  0
  8  9  1  0  0  0  0
  9 10  2  0  0  0  0
 10 11  1  0  0  0  0
 11 12  2  0  0  0  0
 12 13  1  0  0  0  0
 13 14  3  0  0  0  0
 12 15  1  0  0  0  0
 15 16  3  0  0  0  0
  8 17  1  0  0  0  0
 17 18  1  0  0  0  0
 18 19  1  0  0  0  0
 19 20  2  0  0  0  0
 20 21  1  0  0  0  0
 21 22  1  0  0  0  0
 21 23  1  0  0  0  0
  1 24  1  0  0  0  0
 24 25  2  0  0  0  0
 25 26  1  0  0  0  0
 26 27  1  0  0  0  0
 27 28  2  0  0  0  0
 28 29  1  0  0  0  0
 29 30  2  0  0  0  0
 30 31  1  0  0  0  0
 31 32  1  0  0  0  0
 30 33  1  0  0  0  0
 33 34  2  0  0  0  0
 26 35  1  0  0  0  0
 35 36  2  0  0  0  0
 36 37  1  0  0  0  0
 37 38  2  0  0  0  0
 38 39  1  0  0  0  0
 39 40  1  0  0  0  0
 38 41  1  0  0  0  0
 41 42  2  0  0  0  0
 25 43  1  0  0  0  0
 43 44  1  0  0  0  0
 44 45  1  0  0  0  0
 45 46  2  0  0  0  0
 46 47  1  0  0  0  0
 47 48  1  0  0  0  0
 48 49  2  0  0  0  0
 49 50  1  0  0  0  0
 50 51  2  0  0  0  0
 51 52  1  0  0  0  0
 52 53  1  0  0  0  0
 51 54  1  0  0  0  0
 54 55  2  0  0  0  0
 47 56  1  0  0  0  0
 56 57  2  0  0  0  0
 57 58  1  0  0  0  0
 58 59  2  0  0  0  0
 59 60  1  0  0  0  0
 60 61  1  0  0  0  0
 59 62  1  0  0  0  0
 62 63  2  0  0  0  0
 46 64  1  0  0  0  0
 64 65  1  0  0  0  0
 45 66  1  0  0  0  0
 66 67  2  0  0  0  0
 67 68  1  0  0  0  0
 68 69  1  0  0  0  0
 69 70  2  0  0  0  0
 70 71  1  0  0  0  0
 71 72  2  0  0  0  0
 72 73  1  0  0  0  0
 73 74  1  0  0  0  0
 72 75  1  0  0  0  0
 75 76  2  0  0  0  0
 68 77  1  0  0  0  0
 77 78  2  0  0  0  0
 78 79  1  0  0  0  0
 79 80  2  0  0  0  0
 80 81  1  0  0  0  0
 81 82  1  0  0  0  0
 80 83  1  0  0  0  0
 83 84  2  0  0  0  0
 67 85  1  0  0  0  0
 85 86  1  0  0  0  0
 86 87  1  0  0  0  0
 87 88  2  0  0  0  0
 88 89  1  0  0  0  0
 89 90  1  0  0  0  0
 90 91  2  0  0  0  0
 91 92  1  0  0  0  0
 92 93  2  0  0  0  0
 93 94  1  0  0  0  0
 94 95  1  0  0  0  0
 93 96  1  0  0  0  0
 96 97  2  0  0  0  0
 89 98  1  0  0  0  0
 98 99  2  0  0  0  0
 99100  1  0  0  0  0
100101  2  0  0  0  0
101102  1  0  0  0  0
102103  1  0  0  0  0
101104  1  0  0  0  0
104105  2  0  0  0  0
 88106  1  0  0  0  0
106107  1  0  0  0  0
 87108  1  0  0  0  0
108109  2  0  0  0  0
109110  1  0  0  0  0
110111  1  0  0  0  0
111112  1  0  0  0  0
109113  1  0  0  0  0
113114  1  0  0  0  0
114115  1  0  0  0  0
115116  1  0  0  0  0
113117  2  0  0  0  0
117118  1  0  0  0  0
118119  1  0  0  0  0
119120  2  0  0  0  0
120121  1  0  0  0  0
121122  1  0  0  0  0
117123  1  0  0  0  0
123124  2  0  0  0  0
124125  1  0  0  0  0
125126  2  0  0  0  0
125127  1  0  0  0  0
127128  2  0  0  0  0
128129  1  0  0  0  0
129130  2  0  0  0  0
130131  1  0  0  0  0
131132  2  0  0  0  0
132133  1  0  0  0  0
133134  2  0  0  0  0
134135  1  0  0  0  0
135136  3  0  0  0  0
134137  1  0  0  0  0
137138  3  0  0  0  0
130139  1  0  0  0  0
139140  1  0  0  0  0
140141  1  0  0  0  0
141142  2  0  0  0  0
142143  1  0  0  0  0
143144  1  0  0  0  0
143145  1  0  0  0  0
 11  2  1  0  0  0  0
 23 17  1  0  0  0  0
 65 24  1  0  0  0  0
107 66  1  0  0  0  0
119108  1  0  0  0  0
133124  1  0  0  0  0
145139  1  0  0  0  0
 10  5  1  0  0  0  0
 22 18  1  0  0  0  0
 34 27  1  0  0  0  0
 42 35  1  0  0  0  0
 64 43  2  0  0  0  0
 76 69  1  0  0  0  0
 84 77  1  0  0  0  0
106 85  2  0  0  0  0
122118  2  0  0  0  0
132127  1  0  0  0  0
144140  1  0  0  0  0
 23  7  1  0  0  0  0
 55 48  1  0  0  0  0
 63 56  1  0  0  0  0
 97 90  1  0  0  0  0
105 98  1  0  0  0  0
145129  1  0  0  0  0
  1146  1  0  0  0  0
  6147  1  0  0  0  0
  9148  1  0  0  0  0
 17149  1  0  0  0  0
 18150  1  0  0  0  0
 19151  1  0  0  0  0
 20152  1  0  0  0  0
 21153  1  0  0  0  0
 22154  1  0  0  0  0
 22155  1  0  0  0  0
 23156  1  0  0  0  0
 28157  1  0  0  0  0
 29158  1  0  0  0  0
 32159  1  0  0  0  0
 32160  1  0  0  0  0
 32161  1  0  0  0  0
 33162  1  0  0  0  0
 34163  1  0  0  0  0
 36164  1  0  0  0  0
 37165  1  0  0  0  0
 40166  1  0  0  0  0
 40167  1  0  0  0  0
 40168  1  0  0  0  0
 41169  1  0  0  0  0
 42170  1  0  0  0  0
 49171  1  0  0  0  0
 50172  1  0  0  0  0
 53173  1  0  0  0  0
 53174  1  0  0  0  0
 53175  1  0  0  0  0
 54176  1  0  0  0  0
 55177  1  0  0  0  0
 57178  1  0  0  0  0
 58179  1  0  0  0  0
 61180  1  0  0  0  0
 61181  1  0  0  0  0
 61182  1  0  0  0  0
 62183  1  0  0  0  0
 63184  1  0  0  0  0
 70185  1  0  0  0  0
 71186  1  0  0  0  0
 74187  1  0  0  0  0
 74188  1  0  0  0  0
 74189  1  0  0  0  0
 75190  1  0  0  0  0
 76191  1  0  0  0  0
 78192  1  0  0  0  0
 79193  1  0  0  0  0
 82194  1  0  0  0  0
 82195  1  0  0  0  0
 82196  1  0  0  0  0
 83197  1  0  0  0  0
 84198  1  0  0  0  0
 91199  1  0  0  0  0
 92200  1  0  0  0  0
 95201  1  0  0  0  0
 95202  1  0  0  0  0
 95203  1  0  0  0  0
 96204  1  0  0  0  0
 97205  1  0  0  0  0
 99206  1  0  0  0  0
100207  1  0  0  0  0
103208  1  0  0  0  0
103209  1  0  0  0  0
103210  1  0  0  0  0
104211  1  0  0  0  0
105212  1  0  0  0  0
111213  1  0  0  0  0
111214  1  0  0  0  0
112215  1  0  0  0  0
112216  1  0  0  0  0
112217  1  0  0  0  0
115218  1  0  0  0  0
115219  1  0  0  0  0
116220  1  0  0  0  0
116221  1  0  0  0  0
116222  1  0  0  0  0
123223  1  0  0  0  0
128224  1  0  0  0  0
131225  1  0  0  0  0
139226  1  0  0  0  0
140227  1  0  0  0  0
141228  1  0  0  0  0
142229  1  0  0  0  0
143230  1  0  0  0  0
144231  1  0  0  0  0
144232  1  0  0  0  0
145233  1  0  0  0  0
M  END
