222

C          2.17080        5.09410        5.09570
C          3.32080        4.93480        5.83430
C          4.23700        3.79440        5.76630
O          4.11450        2.77720        5.10340
C          5.37400        4.12270        6.64280
C          6.48960        3.33030        6.89910
C          7.38420        3.89460        7.77690
C          7.18160        5.15310        8.35700
C          6.08310        5.94400        8.11220
C          5.16180        5.39110        7.21930
C          3.88230        5.91330        6.73610
C          3.32780        7.11580        7.10490
C          3.95530        8.06020        7.94190
N          4.40470        8.88180        8.60750
C          2.05480        7.58440        6.72770
N          1.02260        8.03380        6.49210
C          8.47360        5.09210        9.13300
C          9.67560        5.91240        8.60330
C          9.47390        6.05520        7.11540
C          9.66560        4.86390        6.56480
C         10.00010        3.89380        7.67060
C         10.76220        4.82550        8.62650
C          8.69940        3.68930        8.48600
C          1.52450        4.20820        4.23360
C          0.35010        4.55230        3.51810
N         -0.14610        5.82650        3.38970
C         -1.53670        6.00640        3.32200
C         -2.36800        5.33140        4.21420
C         -3.72630        5.54750        4.18880
C         -4.28580        6.41890        3.25820
S         -6.04090        6.61630        3.30460
C         -6.35000        8.06690        2.26180
C         -3.46390        7.07480        2.35220
C         -2.09850        6.87480        2.39140
C          0.69750        6.93460        3.20410
C          1.89370        6.80680        2.50240
C          2.72740        7.89300        2.32820
C          2.37040        9.13370        2.84150
S          3.34890       10.59240        2.67930
C          4.88360       10.00960        1.90260
C          1.16220        9.26970        3.52200
C          0.33550        8.18460        3.70740
C         -0.20710        3.42800        2.88860
S         -1.58770        3.16620        1.86530
C         -1.05750        1.51610        1.56030
C          0.07610        1.17480        2.29280
N          0.66970       -0.07880        2.32110
C          2.06550       -0.18760        2.37120
C          2.87790        0.69700        1.66990
C          4.25290        0.60830        1.75660
C          4.83600       -0.38050        2.53480
S          6.57840       -0.59060        2.71950
C          7.27580        0.46850        1.42190
C          4.02560       -1.28090        3.22250
C          2.65490       -1.18730        3.14320
C         -0.11760       -1.23790        2.26140
C          0.19750       -2.27250        1.37930
C         -0.69610       -3.29960        1.17420
C         -1.91000       -3.32280        1.85630
S         -3.07550       -4.56810        1.39470
C         -4.65520       -3.83820        1.92720
C         -2.15210       -2.38500        2.85040
C         -1.25290       -1.35450        3.05440
C          0.55350        2.27460        3.04220
S          1.97130        2.51890        3.99510
C         -1.60590        0.70070        0.52000
C         -2.88870        0.29820        0.18010
N         -4.10580        0.81070        0.59060
C         -4.36700        1.37920        1.84210
C         -5.25110        2.44960        1.95520
C         -5.60130        2.94270        3.19570
C         -5.06170        2.38100        4.34550
S         -5.47740        2.90830        5.98140
C         -7.03640        3.81110        5.75070
C         -4.13980        1.34450        4.23430
C         -3.80570        0.84410        2.99610
C         -5.16960        0.75430       -0.33330
C         -6.43050        0.32050        0.07550
C         -7.46560        0.25010       -0.82820
C         -7.26770        0.60540       -2.16200
S         -8.66740        0.45970       -3.22560
C         -8.02000        0.88360       -4.86750
C         -6.01740        1.04860       -2.57080
C         -4.98080        1.12550       -1.66080
C         -2.82830       -0.74940       -0.77990
S         -3.99460       -1.88800       -1.35690
C         -2.76120       -2.70730       -2.31090
C         -1.53260       -2.04620       -2.26330
N         -0.41940       -2.34670       -3.02060
C         -0.44110       -2.47190       -4.40670
C          0.68680       -2.95890       -5.06830
C          0.68970       -3.12700       -6.43650
C         -0.43650       -2.80930       -7.18280
S         -0.54830       -3.04780       -8.93030
C          1.19130       -3.13140       -9.44930
C         -1.55530       -2.29480       -6.53540
C         -1.55900       -2.12090       -5.16860
C          0.85220       -2.27450       -2.37960
C          1.31660       -3.36480       -1.65980
C          2.55610       -3.31680       -1.04600
C          3.33600       -2.17160       -1.14870
S          4.93070       -1.99840       -0.42470
C          5.07570       -3.42780        0.67980
C          2.87240       -1.08360       -1.88710
C          1.64310       -1.13630       -2.50590
C         -1.57300       -1.00650       -1.30220
S         -0.38420       -0.01620       -0.54560
C         -3.06240       -3.97940       -2.84500
C         -4.14260       -4.77180       -2.48740
C         -4.11600       -6.03980       -3.06740
O         -5.00920       -7.03250       -2.93660
C         -6.02190       -6.90970       -1.95160
C         -5.48020       -7.12450       -0.54300
C         -2.99760       -6.24090       -3.89920
S         -2.00410       -4.81110       -3.93040
C         -2.80050       -7.34780       -4.73100
C         -1.80060       -7.58930       -5.63450
C         -2.08990       -8.46070       -6.79870
O         -2.99700       -9.25620       -6.91100
C         -1.07590       -8.10010       -7.81340
C         -1.02150       -8.51730       -9.14010
C          0.01770       -7.97290       -9.85660
C          0.93910       -7.07840       -9.29800
C          0.90450       -6.67010       -7.98560
C         -0.14690       -7.20800       -7.24220
C         -0.49900       -7.00800       -5.83610
C          0.37560       -6.58410       -4.86490
C          0.13210       -6.65870       -3.47970
N          0.03680       -6.73760       -2.33700
C          1.68130       -6.12770       -5.12080
N          2.75320       -5.73520       -5.25700
C          1.70550       -6.93690      -10.59050
C          3.05050       -7.69300      -10.71820
C          2.96110       -8.88320       -9.79530
C          2.09220       -9.73700      -10.31990
C          1.57880       -9.13980      -11.60670
C          2.83320       -8.38410      -12.07370
C          0.68280       -7.94040      -11.21010
H          1.66950        6.04790        5.19830
H          6.60020        2.36250        6.43500
H          5.94240        6.90800        8.57150
H          8.38130        5.14480       10.21600
H          9.87250        6.83010        9.15120
H          9.16460        6.96690        6.63850
H          9.54810        4.58030        5.53520
H         10.49330        2.97350        7.36880
H         10.92410        4.39520        9.61390
H         11.71030        5.16830        8.21480
H          8.75590        2.82640        9.14690
H         -1.94110        4.66140        4.94500
H         -4.35840        5.05790        4.90980
H         -5.73660        8.89620        2.60130
H         -7.40120        8.30510        2.39260
H         -6.15450        7.82910        1.22000
H         -3.87040        7.74380        1.61080
H         -1.46030        7.39420        1.69210
H          2.17550        5.84820        2.09220
H          3.64640        7.75860        1.78080
H          4.68250        9.64510        0.89930
H          5.34160        9.24160        2.51920
H          5.53260       10.87850        1.85380
H          0.88920       10.23360        3.92140
H         -0.58540        8.29550        4.25670
H          2.42590        1.45690        1.04930
H          4.85560        1.31280        1.20780
H          8.34160        0.26240        1.41350
H          7.10520        1.51410        1.66190
H          6.83640        0.19960        0.46570
H          4.48680       -2.04560        3.82940
H          2.02870       -1.88150        3.68430
H          1.11980       -2.23100        0.82120
H         -0.48300       -4.07680        0.45750
H         -5.43330       -4.42960        1.45550
H         -4.75850       -3.89930        3.00630
H         -4.71030       -2.80930        1.58320
H         -3.03740       -2.44360        3.46450
H         -1.41930       -0.62420        3.83290
H         -5.67760        2.88930        1.06630
H         -6.29130        3.76850        3.25280
H         -7.73100        3.19160        5.19180
H         -6.86270        4.75780        5.24630
H         -7.41900        3.99150        6.75040
H         -3.71390        0.91930        5.13060
H         -3.13260        0.01170        2.89920
H         -6.58750        0.03740        1.10560
H         -8.44080       -0.09090       -0.51650
H         -7.21010        0.20990       -5.13110
H         -8.85100        0.74650       -5.55230
H         -7.69640        1.92010       -4.88600
H         -5.83560        1.34450       -3.59130
H         -4.01210        1.47880       -1.98370
H          1.56740       -3.22880       -4.50700
H          1.57920       -3.51790       -6.90260
H          1.17920       -3.04750      -10.53160
H          1.73740       -2.29780       -9.01870
H          1.62790       -4.08160       -9.15730
H         -2.42530       -2.03250       -7.11760
H         -2.43270       -1.70760       -4.68790
H          0.71950       -4.26300       -1.60410
H          2.90190       -4.18170       -0.50370
H          5.15870       -4.34280        0.10050
H          4.22210       -3.45240        1.35090
H          5.98540       -3.26430        1.24970
H          3.49170       -0.20400       -1.96910
H          1.28820       -0.30100       -3.09070
H         -4.89380       -4.41430       -1.80700
H         -6.52220       -5.93770       -2.03770
H         -6.73920       -7.69470       -2.20410
H         -4.72780       -6.37880       -0.29590
H         -5.02020       -8.10650       -0.47090
H         -6.29360       -7.06330        0.17480
H         -3.63230       -8.04500       -4.75950
H         -1.75000       -9.20760       -9.53590
H          1.61910       -5.98890       -7.55330
H          1.74970       -5.93560      -11.01570
H          3.93340       -7.06780      -10.61070
H          3.47740       -8.95220       -8.85580
H          1.73800      -10.66290       -9.90610
H          1.12160       -9.83230      -12.30860
H          2.64170       -7.68820      -12.88980
H          3.65130       -9.05050      -12.34310
H          0.06620       -7.59240      -12.03680
