229

C          9.02730        0.51440       -0.44250
C          9.96580       -0.24600       -1.06690
C         11.39450       -0.04900       -0.69290
O         11.82540        0.78300        0.07490
C         12.14530       -1.08160       -1.42430
C         13.50730       -1.35650       -1.32870
C         13.93260       -2.37290       -2.14950
C         13.06860       -3.05930       -3.01350
C         11.72620       -2.78810       -3.12650
C         11.26690       -1.77110       -2.28540
C          9.92060       -1.22060       -2.13010
C          8.87780       -1.43950       -2.99540
C          7.61660       -0.81800       -2.94300
N          6.56470       -0.35930       -3.00700
C          8.93610       -2.29520       -4.11200
N          8.89680       -2.97360       -5.03920
C         14.17180       -3.93890       -3.54610
C         14.25720       -5.39630       -3.02990
C         13.63210       -5.40640       -1.65780
C         14.44480       -4.75330       -0.83810
C         15.63740       -4.29430       -1.64100
C         15.74540       -5.44990       -2.64900
C         15.13420       -3.17370       -2.58350
C          7.61810        0.37770       -0.32880
C          6.83360       -0.68690        0.10750
N          7.29400       -1.89610        0.60640
C          6.79930       -2.33860        1.83630
C          6.67350       -3.70020        2.11550
C          6.16070       -4.11750        3.32340
C          5.75420       -3.19140        4.27960
S          5.07850       -3.82470        5.78350
C          4.11740       -2.41900        6.41880
C          5.91390       -1.83640        4.02400
C          6.43710       -1.41720        2.81860
C          7.96540       -2.82340       -0.22450
C          7.32580       -3.34630       -1.34130
C          7.95380       -4.29720       -2.12660
C          9.23810       -4.71830       -1.80880
S         10.13510       -5.91160       -2.74400
C          9.11760       -6.17420       -4.22260
C          9.87920       -4.19120       -0.68630
C          9.24450       -3.26050        0.10620
C          5.47170       -0.30640        0.18460
S          4.03420       -1.15440        0.61470
C          3.07720        0.25000        0.20960
C          3.84010        1.34350       -0.16610
N          3.36980        2.62430       -0.42210
C          3.92380        3.33400       -1.49870
C          4.37950        2.66900       -2.63700
C          4.91520        3.38190       -3.68540
C          4.99750        4.77140       -3.62980
S          5.65360        5.58020       -5.05970
C          5.88080        7.29960       -4.52310
C          4.54850        5.43730       -2.49770
C          4.02530        4.72090       -1.43840
C          2.19800        3.07000        0.19760
C          1.93020        2.73000        1.52590
C          0.69280        2.97810        2.07690
C         -0.30280        3.58910        1.32080
S         -1.91920        3.71430        2.02120
C         -2.97250        3.68170        0.53810
C          0.00440        4.06040        0.05160
C          1.24160        3.80430       -0.50300
C          5.21380        1.00360       -0.18240
S          6.66880        1.84160       -0.57830
C          1.63390        0.19050        0.27350
C          0.93300       -0.31930        1.34890
F          1.61190       -0.80650        2.40700
C         -0.45640       -0.35000        1.41330
C         -1.21640        0.16930        0.38620
C         -0.54590        0.79700       -0.69780
N         -1.23760        1.51630       -1.60170
C         -0.60170        2.01410       -2.62340
C          0.77900        1.74470       -2.83670
O          1.47120        2.06840       -3.92980
C          0.86400        2.84830       -4.94880
C          1.92760        3.12790       -5.99760
N          1.48470        1.14020       -1.90920
C          0.86380        0.72000       -0.79640
C         -2.65380        0.05220        0.37130
C         -3.45760       -0.33830       -0.68910
N         -3.02800       -0.77520       -1.92950
C         -3.81670       -0.48010       -3.05230
C         -3.95390       -1.41470       -4.07870
C         -4.74920       -1.13510       -5.16660
C         -5.42990        0.07840       -5.25260
S         -6.42800        0.32640       -6.68820
C         -7.46580        1.74920       -6.24380
C         -5.27940        1.01920       -4.24360
C         -4.47570        0.74140       -3.15470
C         -1.76300       -1.35520       -2.10140
C         -1.23230       -2.22230       -1.14500
C          0.07640       -2.64490       -1.23530
C          0.88110       -2.22740       -2.29190
S          2.58800       -2.67690       -2.27540
C          3.35060       -1.29780       -3.18310
C          0.31900       -1.47130       -3.31270
C         -0.98790       -1.03960       -3.21640
C         -4.82290       -0.32040       -0.30480
S         -6.29530       -0.73500       -1.10260
C         -7.22870       -0.34480        0.35300
C         -6.39250        0.00460        1.43260
N         -6.75010        0.17890        2.73890
C         -7.88230       -0.40320        3.31510
C         -8.62290        0.31110        4.26050
C         -9.77450       -0.22480        4.79000
C        -10.21440       -1.48930        4.39970
S        -11.74420       -2.03120        5.07800
C        -11.99980       -3.67600        4.35720
C         -9.44490       -2.23010        3.50850
C         -8.29420       -1.68980        2.97240
C         -5.92370        0.97860        3.56100
C         -5.55910        2.26090        3.15370
C         -4.73130        3.02430        3.94400
C         -4.24910        2.52110        5.15240
S         -3.17890        3.58010        6.06370
C         -2.58530        2.53370        7.42540
C         -4.63910        1.25590        5.57350
C         -5.47340        0.49070        4.78120
C         -5.04000        0.04540        1.01570
S         -3.55120        0.34640        1.84340
C         -8.61860       -0.46730        0.26610
C         -9.53130        0.17040        1.07900
C         -9.27940        1.45970        1.74180
O         -8.26050        2.12570        1.69490
C        -10.56030        1.84780        2.36680
C        -10.81130        2.98160        3.13220
C        -12.09310        3.05130        3.62520
C        -13.05820        2.07050        3.36800
C        -12.82540        0.95000        2.60530
C        -11.52770        0.85950        2.09970
C        -10.90060       -0.19540        1.30720
C        -11.46330       -1.40810        0.98910
C        -10.74930       -2.47540        0.41070
N        -10.22320       -3.41060       -0.00090
C        -12.78880       -1.77990        1.27780
N        -13.85220       -2.16330        1.48560
C        -14.11460        2.78390        4.17460
C        -15.20490        3.57090        3.40660
C        -14.59400        3.97340        2.08750
C        -13.67870        4.90170        2.33150
C        -13.65440        5.14390        3.82030
C        -15.13590        4.91080        4.15670
C        -13.03760        3.87700        4.46290
H          9.43970        1.37490        0.08260
H         14.14040       -0.79240       -0.66160
H         11.07970       -3.32070       -3.80200
H         14.35900       -3.86740       -4.61570
H         13.88770       -6.14380       -3.72620
H         12.66870       -5.83410       -1.45250
H         14.29590       -4.51650        0.19940
H         16.52890       -4.04000       -1.07340
H         16.02600       -6.39220       -2.18090
H         16.41560       -5.23840       -3.48130
H         15.95070       -2.60540       -3.02510
H          6.95990       -4.43120        1.37530
H          6.05210       -5.17070        3.53190
H          3.51440       -2.00530        5.61630
H          3.47770       -2.82500        7.19630
H          4.77810       -1.66880        6.84440
H          5.64250       -1.09660        4.75970
H          6.56900       -0.36040        2.63940
H          6.32170       -3.02790       -1.58100
H          7.42880       -4.69760       -2.97840
H          9.70390       -6.82360       -4.86540
H          8.93910       -5.22250       -4.71750
H          8.18770       -6.66650       -3.95310
H         10.87900       -4.51920       -0.44670
H          9.73320       -2.86070        0.98190
H          4.30150        1.59670       -2.70550
H          5.26980        2.86680       -4.56470
H          4.91780        7.77150       -4.35030
H          6.39050        7.79670       -5.34260
H          6.50000        7.32610       -3.63140
H          4.60290        6.51160       -2.42280
H          3.68540        5.24270       -0.55560
H          2.68820        2.22980        2.11000
H          0.47400        2.67700        3.08960
H         -3.95900        3.38760        0.88190
H         -3.02090        4.66900        0.08690
H         -2.58150        2.94760       -0.16210
H         -0.72850        4.60360       -0.52420
H          1.45690        4.13860       -1.50740
H         -0.93000       -0.79960        2.27230
H         -1.18650        2.62800       -3.29360
H          0.49030        3.79030       -4.52640
H          0.02060        2.29930       -5.38890
H          2.29820        2.19360       -6.40900
H          1.50690        3.72900       -6.79810
H          2.76110        3.65990       -5.54740
H         -3.43990       -2.36150       -4.00840
H         -4.86570       -1.85870       -5.95860
H         -7.93840        1.56800       -5.28330
H         -8.21970        1.81670       -7.02190
H         -6.87410        2.66020       -6.22800
H         -5.77510        1.97530       -4.29490
H         -4.34630        1.48180       -2.37910
H         -1.84410       -2.53790       -0.31340
H          0.49620       -3.28630       -0.47580
H          4.40290       -1.28820       -2.91280
H          2.87540       -0.37070       -2.87210
H          3.25570       -1.45220       -4.25420
H          0.90480       -1.19150       -4.17400
H         -1.40710       -0.42050       -3.99670
H         -8.29760        1.29750        4.55400
H        -10.36350        0.33880        5.49700
H        -12.94420       -4.02440        4.76340
H        -11.19810       -4.34350        4.65930
H        -12.07490       -3.60560        3.27620
H         -9.73580       -3.22480        3.21200
H         -7.71420       -2.27370        2.27370
H         -5.96150        2.64580        2.22980
H         -4.43970        4.01740        3.64010
H         -1.84540        3.13030        7.94990
H         -3.40200        2.28910        8.09830
H         -2.12040        1.63840        7.02380
H         -4.29860        0.85070        6.51250
H         -5.77220       -0.49550        5.10580
H         -8.98560       -1.10060       -0.53310
H        -10.03820        3.71220        3.31390
H        -13.57720        0.20250        2.41340
H        -14.51920        2.23150        5.02030
H        -16.16990        3.07380        3.35690
H        -14.84100        3.51400        1.14830
H        -13.00770        5.37260        1.63690
H        -13.20800        6.07970        4.14730
H        -15.32890        4.82020        5.22490
H        -15.78990        5.66860        3.72770
H        -12.74150        4.03930        5.49770
