
  xtb     02082212243D
 energy: -283.440789513233 gnorm: 0.000611561917 xtb: 6.4.1 (unknown)
161177  0     0  0            999 V2000
    3.3944   -1.5708   -4.4110 C   0  0  0  0  0  0  0  0  0  0  0  0
    4.5143   -2.3646   -4.3029 C   0  0  0  0  0  0  0  0  0  0  0  0
    5.1045   -2.8839   -3.0692 C   0  0  0  0  0  0  0  0  0  0  0  0
    4.6539   -2.8193   -1.9350 O   0  0  0  0  0  0  0  0  0  0  0  0
    6.3849   -3.5070   -3.4537 C   0  0  0  0  0  0  0  0  0  0  0  0
    7.3155   -4.1120   -2.6118 C   0  0  0  0  0  0  0  0  0  0  0  0
    8.4137   -4.6204   -3.2632 C   0  0  0  0  0  0  0  0  0  0  0  0
    8.5770   -4.5330   -4.6509 C   0  0  0  0  0  0  0  0  0  0  0  0
    7.6693   -3.9345   -5.4929 C   0  0  0  0  0  0  0  0  0  0  0  0
    6.5453   -3.4085   -4.8503 C   0  0  0  0  0  0  0  0  0  0  0  0
    5.3772   -2.7231   -5.4042 C   0  0  0  0  0  0  0  0  0  0  0  0
    5.1523   -2.4973   -6.7414 C   0  0  0  0  0  0  0  0  0  0  0  0
    3.9757   -1.9590   -7.2967 C   0  0  0  0  0  0  0  0  0  0  0  0
    3.0418   -1.5608   -7.8371 N   0  0  0  0  0  0  0  0  0  0  0  0
    6.0669   -2.8058   -7.7682 C   0  0  0  0  0  0  0  0  0  0  0  0
    6.7683   -3.0103   -8.6547 N   0  0  0  0  0  0  0  0  0  0  0  0
    9.9043   -5.2498   -4.6212 C   0  0  0  0  0  0  0  0  0  0  0  0
   11.1666   -4.3736   -4.7630 C   0  0  0  0  0  0  0  0  0  0  0  0
   12.2758   -5.2481   -4.2247 C   0  0  0  0  0  0  0  0  0  0  0  0
   12.1218   -5.3314   -2.9095 C   0  0  0  0  0  0  0  0  0  0  0  0
   10.9058   -4.5144   -2.5366 C   0  0  0  0  0  0  0  0  0  0  0  0
   11.0034   -3.4012   -3.5876 C   0  0  0  0  0  0  0  0  0  0  0  0
    9.7222   -5.3473   -3.0724 C   0  0  0  0  0  0  0  0  0  0  0  0
    2.4746   -1.1574   -3.4501 C   0  0  0  0  0  0  0  0  0  0  0  0
    1.3813   -0.3022   -3.7404 C   0  0  0  0  0  0  0  0  0  0  0  0
    1.1993    0.3902   -4.9088 N   0  0  0  0  0  0  0  0  0  0  0  0
   -0.1150    0.6479   -5.3383 C   0  0  0  0  0  0  0  0  0  0  0  0
   -0.4765    1.9058   -5.8082 C   0  0  0  0  0  0  0  0  0  0  0  0
   -1.7688    2.1555   -6.2256 C   0  0  0  0  0  0  0  0  0  0  0  0
   -2.7229    1.1473   -6.1760 C   0  0  0  0  0  0  0  0  0  0  0  0
   -4.4037    1.3472   -6.6673 S   0  0  0  0  0  0  0  0  0  0  0  0
   -4.4904    3.0608   -7.2601 C   0  0  0  0  0  0  0  0  0  0  0  0
   -2.3608   -0.1167   -5.7120 C   0  0  0  0  0  0  0  0  0  0  0  0
   -1.0721   -0.3664   -5.3003 C   0  0  0  0  0  0  0  0  0  0  0  0
    2.2686    0.9655   -5.6165 C   0  0  0  0  0  0  0  0  0  0  0  0
    3.3723    1.4819   -4.9420 C   0  0  0  0  0  0  0  0  0  0  0  0
    4.4277    2.0342   -5.6393 C   0  0  0  0  0  0  0  0  0  0  0  0
    4.3891    2.0947   -7.0272 C   0  0  0  0  0  0  0  0  0  0  0  0
    5.6760    2.7701   -8.0260 S   0  0  0  0  0  0  0  0  0  0  0  0
    6.9924    3.1681   -6.8401 C   0  0  0  0  0  0  0  0  0  0  0  0
    3.2714    1.6081   -7.7022 C   0  0  0  0  0  0  0  0  0  0  0  0
    2.2236    1.0450   -7.0089 C   0  0  0  0  0  0  0  0  0  0  0  0
    0.4926   -0.2346   -2.6525 C   0  0  0  0  0  0  0  0  0  0  0  0
   -0.9698    0.6456   -2.3412 S   0  0  0  0  0  0  0  0  0  0  0  0
   -1.0271    0.0011   -0.7172 C   0  0  0  0  0  0  0  0  0  0  0  0
    0.0567   -0.8043   -0.4177 C   0  0  0  0  0  0  0  0  0  0  0  0
    0.3392   -1.3388    0.8274 N   0  0  0  0  0  0  0  0  0  0  0  0
    0.0081   -0.6433    1.9950 C   0  0  0  0  0  0  0  0  0  0  0  0
    0.0574    0.7492    2.0334 C   0  0  0  0  0  0  0  0  0  0  0  0
   -0.3874    1.4418    3.1409 C   0  0  0  0  0  0  0  0  0  0  0  0
   -0.8727    0.7509    4.2431 C   0  0  0  0  0  0  0  0  0  0  0  0
   -1.5485    1.5388    5.6718 S   0  0  0  0  0  0  0  0  0  0  0  0
   -1.7363    3.2705    5.1706 C   0  0  0  0  0  0  0  0  0  0  0  0
   -0.8335   -0.6411    4.2483 C   0  0  0  0  0  0  0  0  0  0  0  0
   -0.4029   -1.3307    3.1366 C   0  0  0  0  0  0  0  0  0  0  0  0
    1.0712   -2.5314    0.8778 C   0  0  0  0  0  0  0  0  0  0  0  0
    2.1092   -2.6922    1.7932 C   0  0  0  0  0  0  0  0  0  0  0  0
    2.8889   -3.8288    1.7599 C   0  0  0  0  0  0  0  0  0  0  0  0
    2.6428   -4.8145    0.8143 C   0  0  0  0  0  0  0  0  0  0  0  0
    3.7170   -6.2232    0.6758 S   0  0  0  0  0  0  0  0  0  0  0  0
    5.2793   -5.3334    0.3809 C   0  0  0  0  0  0  0  0  0  0  0  0
    1.5736   -4.6898   -0.0592 C   0  0  0  0  0  0  0  0  0  0  0  0
    0.7922   -3.5541   -0.0293 C   0  0  0  0  0  0  0  0  0  0  0  0
    0.9114   -0.9521   -1.5397 C   0  0  0  0  0  0  0  0  0  0  0  0
    2.4257   -1.7479   -1.7873 S   0  0  0  0  0  0  0  0  0  0  0  0
   -2.0786    0.4427    0.1792 C   0  0  0  0  0  0  0  0  0  0  0  0
   -2.8538   -0.4400    0.9259 C   0  0  0  0  0  0  0  0  0  0  0  0
   -2.6233   -1.7461    0.6965 O   0  0  0  0  0  0  0  0  0  0  0  0
   -3.1358   -2.7671    1.5505 C   0  0  0  0  0  0  0  0  0  0  0  0
   -2.3716   -4.0477    1.2549 C   0  0  0  0  0  0  0  0  0  0  0  0
   -3.8566    0.0555    1.8310 C   0  0  0  0  0  0  0  0  0  0  0  0
   -4.7729   -0.8426    2.2454 O   0  0  0  0  0  0  0  0  0  0  0  0
   -6.0852   -0.4448    2.5977 C   0  0  0  0  0  0  0  0  0  0  0  0
   -7.0408   -1.5257    2.1110 C   0  0  0  0  0  0  0  0  0  0  0  0
   -3.8944    1.4063    2.1797 C   0  0  0  0  0  0  0  0  0  0  0  0
   -3.1529    2.3098    1.3821 C   0  0  0  0  0  0  0  0  0  0  0  0
   -2.2937    1.8293    0.3417 C   0  0  0  0  0  0  0  0  0  0  0  0
   -1.6701    2.8208   -0.2870 N   0  0  0  0  0  0  0  0  0  0  0  0
   -2.1243    4.2221    0.3664 S   0  0  0  0  0  0  0  0  0  0  0  0
   -3.1244    3.6329    1.4923 N   0  0  0  0  0  0  0  0  0  0  0  0
   -4.5499    1.9163    3.3546 C   0  0  0  0  0  0  0  0  0  0  0  0
   -4.5971    1.3550    4.6096 C   0  0  0  0  0  0  0  0  0  0  0  0
   -4.1631    0.1119    5.2658 C   0  0  0  0  0  0  0  0  0  0  0  0
   -3.6526   -0.8846    4.8146 O   0  0  0  0  0  0  0  0  0  0  0  0
   -4.5537    0.2651    6.5980 N   0  0  0  0  0  0  0  0  0  0  0  0
   -4.2772   -0.7261    7.6063 C   0  0  0  0  0  0  0  0  0  0  0  0
   -5.1958    1.4606    6.8681 C   0  0  0  0  0  0  0  0  0  0  0  0
   -5.6742    1.7663    7.9360 O   0  0  0  0  0  0  0  0  0  0  0  0
   -5.1869    2.1875    5.5879 C   0  0  0  0  0  0  0  0  0  0  0  0
   -5.6227    3.3970    5.1059 C   0  0  0  0  0  0  0  0  0  0  0  0
   -5.2666    3.5099    3.3941 S   0  0  0  0  0  0  0  0  0  0  0  0
   -6.3710    4.3992    5.7949 C   0  0  0  0  0  0  0  0  0  0  0  0
   -6.1954    4.6908    7.1038 C   0  0  0  0  0  0  0  0  0  0  0  0
   -4.9861    4.3123    7.9144 C   0  0  0  0  0  0  0  0  0  0  0  0
   -3.9109    3.9659    7.4819 O   0  0  0  0  0  0  0  0  0  0  0  0
   -5.3324    4.6713    9.2907 C   0  0  0  0  0  0  0  0  0  0  0  0
   -4.7663    4.5700   10.5711 C   0  0  0  0  0  0  0  0  0  0  0  0
   -5.5700    5.1507   11.5076 C   0  0  0  0  0  0  0  0  0  0  0  0
   -7.0134    5.8425   10.8598 S   0  0  0  0  0  0  0  0  0  0  0  0
   -6.5512    5.3408    9.2883 C   0  0  0  0  0  0  0  0  0  0  0  0
   -7.1058    5.4347    7.9690 C   0  0  0  0  0  0  0  0  0  0  0  0
   -8.2791    6.0627    7.6412 C   0  0  0  0  0  0  0  0  0  0  0  0
   -8.8258    6.1387    6.3466 C   0  0  0  0  0  0  0  0  0  0  0  0
   -9.3166    6.2284    5.3122 N   0  0  0  0  0  0  0  0  0  0  0  0
   -9.0491    6.7161    8.6268 C   0  0  0  0  0  0  0  0  0  0  0  0
   -9.6788    7.2506    9.4229 N   0  0  0  0  0  0  0  0  0  0  0  0
    3.1797   -1.2010   -5.4052 H   0  0  0  0  0  0  0  0  0  0  0  0
    7.1553   -4.1611   -1.5463 H   0  0  0  0  0  0  0  0  0  0  0  0
    7.8096   -3.8770   -6.5591 H   0  0  0  0  0  0  0  0  0  0  0  0
    9.9586   -6.1710   -5.1981 H   0  0  0  0  0  0  0  0  0  0  0  0
   11.3153   -3.9461   -5.7508 H   0  0  0  0  0  0  0  0  0  0  0  0
   13.0007   -5.7456   -4.8420 H   0  0  0  0  0  0  0  0  0  0  0  0
   12.6922   -5.9124   -2.2086 H   0  0  0  0  0  0  0  0  0  0  0  0
   10.8184   -4.2145   -1.4955 H   0  0  0  0  0  0  0  0  0  0  0  0
   10.1168   -2.7730   -3.6518 H   0  0  0  0  0  0  0  0  0  0  0  0
   11.8836   -2.7763   -3.4451 H   0  0  0  0  0  0  0  0  0  0  0  0
    9.6557   -6.3342   -2.6177 H   0  0  0  0  0  0  0  0  0  0  0  0
    0.2586    2.6960   -5.8403 H   0  0  0  0  0  0  0  0  0  0  0  0
   -2.0177    3.1428   -6.5790 H   0  0  0  0  0  0  0  0  0  0  0  0
   -4.2643    3.7475   -6.4497 H   0  0  0  0  0  0  0  0  0  0  0  0
   -3.8132    3.1982   -8.0979 H   0  0  0  0  0  0  0  0  0  0  0  0
   -5.5153    3.2038   -7.5881 H   0  0  0  0  0  0  0  0  0  0  0  0
   -3.1037   -0.8988   -5.6873 H   0  0  0  0  0  0  0  0  0  0  0  0
   -0.7933   -1.3504   -4.9547 H   0  0  0  0  0  0  0  0  0  0  0  0
    3.4063    1.4458   -3.8631 H   0  0  0  0  0  0  0  0  0  0  0  0
    5.2678    2.4227   -5.0866 H   0  0  0  0  0  0  0  0  0  0  0  0
    7.2887    2.2730   -6.3010 H   0  0  0  0  0  0  0  0  0  0  0  0
    7.8231    3.5287   -7.4388 H   0  0  0  0  0  0  0  0  0  0  0  0
    6.6630    3.9493   -6.1612 H   0  0  0  0  0  0  0  0  0  0  0  0
    3.2448    1.6577   -8.7792 H   0  0  0  0  0  0  0  0  0  0  0  0
    1.3736    0.6494   -7.5411 H   0  0  0  0  0  0  0  0  0  0  0  0
    0.4406    1.2951    1.1839 H   0  0  0  0  0  0  0  0  0  0  0  0
   -0.3439    2.5196    3.1352 H   0  0  0  0  0  0  0  0  0  0  0  0
   -2.3424    3.7267    5.9477 H   0  0  0  0  0  0  0  0  0  0  0  0
   -0.7638    3.7520    5.1246 H   0  0  0  0  0  0  0  0  0  0  0  0
   -2.2481    3.3262    4.2136 H   0  0  0  0  0  0  0  0  0  0  0  0
   -1.1720   -1.1756    5.1209 H   0  0  0  0  0  0  0  0  0  0  0  0
   -0.3967   -2.4098    3.1422 H   0  0  0  0  0  0  0  0  0  0  0  0
    2.3149   -1.9110    2.5099 H   0  0  0  0  0  0  0  0  0  0  0  0
    3.7050   -3.9404    2.4571 H   0  0  0  0  0  0  0  0  0  0  0  0
    5.9636   -6.0522   -0.0591 H   0  0  0  0  0  0  0  0  0  0  0  0
    5.6831   -4.9609    1.3181 H   0  0  0  0  0  0  0  0  0  0  0  0
    5.0791   -4.5169   -0.3075 H   0  0  0  0  0  0  0  0  0  0  0  0
    1.3740   -5.4750   -0.7714 H   0  0  0  0  0  0  0  0  0  0  0  0
   -0.0275   -3.4381   -0.7220 H   0  0  0  0  0  0  0  0  0  0  0  0
   -3.0188   -2.4720    2.5976 H   0  0  0  0  0  0  0  0  0  0  0  0
   -4.1991   -2.9212    1.3414 H   0  0  0  0  0  0  0  0  0  0  0  0
   -2.4747   -4.3099    0.2053 H   0  0  0  0  0  0  0  0  0  0  0  0
   -1.3153   -3.9330    1.4790 H   0  0  0  0  0  0  0  0  0  0  0  0
   -2.7756   -4.8535    1.8609 H   0  0  0  0  0  0  0  0  0  0  0  0
   -6.3270    0.5209    2.1371 H   0  0  0  0  0  0  0  0  0  0  0  0
   -6.1650   -0.3421    3.6870 H   0  0  0  0  0  0  0  0  0  0  0  0
   -6.9874   -1.6191    1.0293 H   0  0  0  0  0  0  0  0  0  0  0  0
   -6.7760   -2.4794    2.5593 H   0  0  0  0  0  0  0  0  0  0  0  0
   -8.0570   -1.2689    2.3955 H   0  0  0  0  0  0  0  0  0  0  0  0
   -3.2582   -0.6072    7.9803 H   0  0  0  0  0  0  0  0  0  0  0  0
   -4.9828   -0.5893    8.4239 H   0  0  0  0  0  0  0  0  0  0  0  0
   -4.3846   -1.7177    7.1680 H   0  0  0  0  0  0  0  0  0  0  0  0
   -7.1526    4.8861    5.2257 H   0  0  0  0  0  0  0  0  0  0  0  0
   -3.8309    4.0882   10.7865 H   0  0  0  0  0  0  0  0  0  0  0  0
   -5.3996    5.2180   12.5646 H   0  0  0  0  0  0  0  0  0  0  0  0
  1  2  2  0  0  0  0
  2  3  1  0  0  0  0
  3  4  2  0  0  0  0
  3  5  1  0  0  0  0
  5  6  2  0  0  0  0
  6  7  1  0  0  0  0
  7  8  2  0  0  0  0
  8  9  1  0  0  0  0
  9 10  2  0  0  0  0
 10 11  1  0  0  0  0
 11 12  2  0  0  0  0
 12 13  1  0  0  0  0
 13 14  3  0  0  0  0
 12 15  1  0  0  0  0
 15 16  3  0  0  0  0
  8 17  1  0  0  0  0
 17 18  1  0  0  0  0
 18 19  1  0  0  0  0
 19 20  2  0  0  0  0
 20 21  1  0  0  0  0
 21 22  1  0  0  0  0
 21 23  1  0  0  0  0
  1 24  1  0  0  0  0
 24 25  2  0  0  0  0
 25 26  1  0  0  0  0
 26 27  1  0  0  0  0
 27 28  2  0  0  0  0
 28 29  1  0  0  0  0
 29 30  2  0  0  0  0
 30 31  1  0  0  0  0
 31 32  1  0  0  0  0
 30 33  1  0  0  0  0
 33 34  2  0  0  0  0
 26 35  1  0  0  0  0
 35 36  2  0  0  0  0
 36 37  1  0  0  0  0
 37 38  2  0  0  0  0
 38 39  1  0  0  0  0
 39 40  1  0  0  0  0
 38 41  1  0  0  0  0
 41 42  2  0  0  0  0
 25 43  1  0  0  0  0
 43 44  1  0  0  0  0
 44 45  1  0  0  0  0
 45 46  2  0  0  0  0
 46 47  1  0  0  0  0
 47 48  1  0  0  0  0
 48 49  2  0  0  0  0
 49 50  1  0  0  0  0
 50 51  2  0  0  0  0
 51 52  1  0  0  0  0
 52 53  1  0  0  0  0
 51 54  1  0  0  0  0
 54 55  2  0  0  0  0
 47 56  1  0  0  0  0
 56 57  2  0  0  0  0
 57 58  1  0  0  0  0
 58 59  2  0  0  0  0
 59 60  1  0  0  0  0
 60 61  1  0  0  0  0
 59 62  1  0  0  0  0
 62 63  2  0  0  0  0
 46 64  1  0  0  0  0
 64 65  1  0  0  0  0
 45 66  1  0  0  0  0
 66 67  2  0  0  0  0
 67 68  1  0  0  0  0
 68 69  1  0  0  0  0
 69 70  1  0  0  0  0
 67 71  1  0  0  0  0
 71 72  1  0  0  0  0
 72 73  1  0  0  0  0
 73 74  1  0  0  0  0
 71 75  2  0  0  0  0
 75 76  1  0  0  0  0
 76 77  1  0  0  0  0
 77 78  2  0  0  0  0
 78 79  1  0  0  0  0
 79 80  1  0  0  0  0
 75 81  1  0  0  0  0
 81 82  2  0  0  0  0
 82 83  1  0  0  0  0
 83 84  2  0  0  0  0
 83 85  1  0  0  0  0
 85 86  1  0  0  0  0
 85 87  1  0  0  0  0
 87 88  2  0  0  0  0
 87 89  1  0  0  0  0
 89 90  2  0  0  0  0
 90 91  1  0  0  0  0
 90 92  1  0  0  0  0
 92 93  2  0  0  0  0
 93 94  1  0  0  0  0
 94 95  2  0  0  0  0
 94 96  1  0  0  0  0
 96 97  1  0  0  0  0
 97 98  2  0  0  0  0
 98 99  1  0  0  0  0
 99100  1  0  0  0  0
100101  1  0  0  0  0
101102  2  0  0  0  0
102103  1  0  0  0  0
103104  3  0  0  0  0
102105  1  0  0  0  0
105106  3  0  0  0  0
 11  2  1  0  0  0  0
 23 17  1  0  0  0  0
 65 24  1  0  0  0  0
 77 66  1  0  0  0  0
 91 81  1  0  0  0  0
101 93  1  0  0  0  0
 10  5  1  0  0  0  0
 22 18  1  0  0  0  0
 34 27  1  0  0  0  0
 42 35  1  0  0  0  0
 64 43  2  0  0  0  0
 80 76  2  0  0  0  0
 89 82  1  0  0  0  0
100 96  2  0  0  0  0
 23  7  1  0  0  0  0
 55 48  1  0  0  0  0
 63 56  1  0  0  0  0
  1107  1  0  0  0  0
  6108  1  0  0  0  0
  9109  1  0  0  0  0
 17110  1  0  0  0  0
 18111  1  0  0  0  0
 19112  1  0  0  0  0
 20113  1  0  0  0  0
 21114  1  0  0  0  0
 22115  1  0  0  0  0
 22116  1  0  0  0  0
 23117  1  0  0  0  0
 28118  1  0  0  0  0
 29119  1  0  0  0  0
 32120  1  0  0  0  0
 32121  1  0  0  0  0
 32122  1  0  0  0  0
 33123  1  0  0  0  0
 34124  1  0  0  0  0
 36125  1  0  0  0  0
 37126  1  0  0  0  0
 40127  1  0  0  0  0
 40128  1  0  0  0  0
 40129  1  0  0  0  0
 41130  1  0  0  0  0
 42131  1  0  0  0  0
 49132  1  0  0  0  0
 50133  1  0  0  0  0
 53134  1  0  0  0  0
 53135  1  0  0  0  0
 53136  1  0  0  0  0
 54137  1  0  0  0  0
 55138  1  0  0  0  0
 57139  1  0  0  0  0
 58140  1  0  0  0  0
 61141  1  0  0  0  0
 61142  1  0  0  0  0
 61143  1  0  0  0  0
 62144  1  0  0  0  0
 63145  1  0  0  0  0
 69146  1  0  0  0  0
 69147  1  0  0  0  0
 70148  1  0  0  0  0
 70149  1  0  0  0  0
 70150  1  0  0  0  0
 73151  1  0  0  0  0
 73152  1  0  0  0  0
 74153  1  0  0  0  0
 74154  1  0  0  0  0
 74155  1  0  0  0  0
 86156  1  0  0  0  0
 86157  1  0  0  0  0
 86158  1  0  0  0  0
 92159  1  0  0  0  0
 97160  1  0  0  0  0
 98161  1  0  0  0  0
M  END
