
  xtb     02072218303D
 energy: -346.139557911330 gnorm: 0.000500167427 xtb: 6.4.1 (unknown)
210233  0     0  0            999 V2000
   -7.9210    5.6316    2.9269 C   0  0  0  0  0  0  0  0  0  0  0  0
   -7.7391    6.6609    3.8117 C   0  0  0  0  0  0  0  0  0  0  0  0
   -6.6356    6.8196    4.7895 C   0  0  0  0  0  0  0  0  0  0  0  0
   -5.6127    6.1682    4.9060 O   0  0  0  0  0  0  0  0  0  0  0  0
   -7.0571    7.8996    5.6974 C   0  0  0  0  0  0  0  0  0  0  0  0
   -6.3467    8.3791    6.7967 C   0  0  0  0  0  0  0  0  0  0  0  0
   -6.9792    9.3979    7.4673 C   0  0  0  0  0  0  0  0  0  0  0  0
   -8.2325    9.8944    7.0826 C   0  0  0  0  0  0  0  0  0  0  0  0
   -8.9447    9.4278    6.0033 C   0  0  0  0  0  0  0  0  0  0  0  0
   -8.3126    8.3989    5.2981 C   0  0  0  0  0  0  0  0  0  0  0  0
   -8.7364    7.6755    4.1040 C   0  0  0  0  0  0  0  0  0  0  0  0
   -9.8352    7.9730    3.3402 C   0  0  0  0  0  0  0  0  0  0  0  0
  -10.7676    8.9866    3.6446 C   0  0  0  0  0  0  0  0  0  0  0  0
  -11.5663    9.7904    3.8295 N   0  0  0  0  0  0  0  0  0  0  0  0
  -10.1738    7.3489    2.1205 C   0  0  0  0  0  0  0  0  0  0  0  0
  -10.5061    6.9180    1.1090 N   0  0  0  0  0  0  0  0  0  0  0  0
   -8.2621   10.9094    8.1977 C   0  0  0  0  0  0  0  0  0  0  0  0
   -7.9513   12.3693    7.8045 C   0  0  0  0  0  0  0  0  0  0  0  0
   -7.5782   13.0254    9.1143 C   0  0  0  0  0  0  0  0  0  0  0  0
   -6.3897   12.5587    9.4752 C   0  0  0  0  0  0  0  0  0  0  0  0
   -5.9395   11.5788    8.4158 C   0  0  0  0  0  0  0  0  0  0  0  0
   -6.5597   12.2312    7.1734 C   0  0  0  0  0  0  0  0  0  0  0  0
   -6.8630   10.3594    8.6236 C   0  0  0  0  0  0  0  0  0  0  0  0
   -6.9619    4.6852    2.5151 C   0  0  0  0  0  0  0  0  0  0  0  0
   -5.5920    4.7673    2.5507 C   0  0  0  0  0  0  0  0  0  0  0  0
   -4.9302    3.6045    2.1224 C   0  0  0  0  0  0  0  0  0  0  0  0
   -3.5316    3.3677    2.1396 C   0  0  0  0  0  0  0  0  0  0  0  0
   -2.6114    4.2971    2.7440 C   0  0  0  0  0  0  0  0  0  0  0  0
   -1.2844    4.4604    2.4284 C   0  0  0  0  0  0  0  0  0  0  0  0
   -0.5566    5.3525    3.2274 C   0  0  0  0  0  0  0  0  0  0  0  0
   -1.2752    5.9267    4.2383 C   0  0  0  0  0  0  0  0  0  0  0  0
   -0.7445    7.0642    5.4510 S   0  0  0  0  0  0  0  0  0  0  0  0
    0.7329    7.8195    4.6806 C   0  0  0  0  0  0  0  0  0  0  0  0
    0.3828    8.6403    3.4552 C   0  0  0  0  0  0  0  0  0  0  0  0
   -3.0662    5.3956    4.2345 Se  0  0  0  0  0  2  0  0  0  0  0  0
   -3.1298    2.1604    1.5647 C   0  0  0  0  0  0  0  0  0  0  0  0
   -4.0344    1.2268    1.0032 C   0  0  0  0  0  0  0  0  0  0  0  0
   -5.4292    1.4531    1.0187 C   0  0  0  0  0  0  0  0  0  0  0  0
   -6.3665    0.5318    0.4127 C   0  0  0  0  0  0  0  0  0  0  0  0
   -6.2293   -0.1693   -0.7550 C   0  0  0  0  0  0  0  0  0  0  0  0
   -7.3009   -1.0086   -1.1106 C   0  0  0  0  0  0  0  0  0  0  0  0
   -8.3483   -1.0120   -0.2331 C   0  0  0  0  0  0  0  0  0  0  0  0
   -9.8183   -1.9184   -0.5016 S   0  0  0  0  0  0  0  0  0  0  0  0
  -10.6830   -1.7232    1.0951 C   0  0  0  0  0  0  0  0  0  0  0  0
  -10.0882   -2.5955    2.1819 C   0  0  0  0  0  0  0  0  0  0  0  0
   -8.0366    0.1619    1.2092 Se  0  0  0  0  0  2  0  0  0  0  0  0
   -5.8376    2.6351    1.6238 C   0  0  0  0  0  0  0  0  0  0  0  0
   -7.4873    3.1671    1.7968 S   0  0  0  0  0  0  0  0  0  0  0  0
   -3.3597    0.1097    0.4556 C   0  0  0  0  0  0  0  0  0  0  0  0
   -2.0051    0.1786    0.5567 C   0  0  0  0  0  0  0  0  0  0  0  0
   -1.4834    1.5984    1.4262 S   0  0  0  0  0  0  0  0  0  0  0  0
   -1.1107   -0.6598   -0.2010 C   0  0  0  0  0  0  0  0  0  0  0  0
   -1.2233   -0.7607   -1.5737 C   0  0  0  0  0  0  0  0  0  0  0  0
   -2.0959    0.0338   -2.3294 N   0  0  0  0  0  0  0  0  0  0  0  0
   -3.1438   -0.5772   -3.0157 C   0  0  0  0  0  0  0  0  0  0  0  0
   -3.8108    0.0884   -4.0426 C   0  0  0  0  0  0  0  0  0  0  0  0
   -4.8889   -0.4937   -4.6799 C   0  0  0  0  0  0  0  0  0  0  0  0
   -5.3135   -1.7642   -4.3151 C   0  0  0  0  0  0  0  0  0  0  0  0
   -6.7054   -2.5910   -5.0255 S   0  0  0  0  0  0  0  0  0  0  0  0
   -7.5473   -1.2856   -5.9632 C   0  0  0  0  0  0  0  0  0  0  0  0
   -4.6142   -2.4582   -3.3312 C   0  0  0  0  0  0  0  0  0  0  0  0
   -3.5459   -1.8747   -2.6883 C   0  0  0  0  0  0  0  0  0  0  0  0
   -2.0606    1.4127   -2.0618 C   0  0  0  0  0  0  0  0  0  0  0  0
   -3.2113    2.1798   -1.9012 C   0  0  0  0  0  0  0  0  0  0  0  0
   -3.1328    3.5063   -1.5221 C   0  0  0  0  0  0  0  0  0  0  0  0
   -1.8981    4.0968   -1.2968 C   0  0  0  0  0  0  0  0  0  0  0  0
   -1.6803    5.7625   -0.7487 S   0  0  0  0  0  0  0  0  0  0  0  0
   -3.3485    6.2849   -0.2681 C   0  0  0  0  0  0  0  0  0  0  0  0
   -0.7405    3.3500   -1.5053 C   0  0  0  0  0  0  0  0  0  0  0  0
   -0.8200    2.0290   -1.8830 C   0  0  0  0  0  0  0  0  0  0  0  0
   -0.3021   -1.6956   -2.0953 C   0  0  0  0  0  0  0  0  0  0  0  0
    0.0471   -2.3035   -3.6756 S   0  0  0  0  0  0  0  0  0  0  0  0
    1.3091   -3.3075   -3.0159 C   0  0  0  0  0  0  0  0  0  0  0  0
    1.4366   -3.1962   -1.6515 C   0  0  0  0  0  0  0  0  0  0  0  0
    2.3428   -3.9696   -0.9012 N   0  0  0  0  0  0  0  0  0  0  0  0
    2.1284   -5.3590   -0.9533 C   0  0  0  0  0  0  0  0  0  0  0  0
    0.8589   -5.8562   -0.6788 C   0  0  0  0  0  0  0  0  0  0  0  0
    0.6037   -7.2139   -0.7257 C   0  0  0  0  0  0  0  0  0  0  0  0
    1.6229   -8.0972   -1.0462 C   0  0  0  0  0  0  0  0  0  0  0  0
    1.4238   -9.8509   -1.1375 S   0  0  0  0  0  0  0  0  0  0  0  0
   -0.2436  -10.1350   -0.4767 C   0  0  0  0  0  0  0  0  0  0  0  0
    2.8919   -7.6025   -1.3431 C   0  0  0  0  0  0  0  0  0  0  0  0
    3.1428   -6.2502   -1.3064 C   0  0  0  0  0  0  0  0  0  0  0  0
    3.5670   -3.4425   -0.5060 C   0  0  0  0  0  0  0  0  0  0  0  0
    4.4057   -4.1644    0.3463 C   0  0  0  0  0  0  0  0  0  0  0  0
    5.6800   -3.7177    0.6143 C   0  0  0  0  0  0  0  0  0  0  0  0
    6.1315   -2.5282    0.0604 C   0  0  0  0  0  0  0  0  0  0  0  0
    7.8375   -2.0669    0.2630 S   0  0  0  0  0  0  0  0  0  0  0  0
    8.2508   -1.7005   -1.4752 C   0  0  0  0  0  0  0  0  0  0  0  0
    5.2551   -1.7329   -0.6596 C   0  0  0  0  0  0  0  0  0  0  0  0
    3.9798   -2.1813   -0.9327 C   0  0  0  0  0  0  0  0  0  0  0  0
    0.5119   -2.2630   -1.1250 C   0  0  0  0  0  0  0  0  0  0  0  0
    0.1730   -1.6455    0.4545 S   0  0  0  0  0  0  0  0  0  0  0  0
    2.2366   -4.1003   -3.8235 C   0  0  0  0  0  0  0  0  0  0  0  0
    2.0421   -5.4576   -4.1011 C   0  0  0  0  0  0  0  0  0  0  0  0
    0.8565   -6.2321   -3.9437 C   0  0  0  0  0  0  0  0  0  0  0  0
    1.0158   -7.5351   -4.2612 C   0  0  0  0  0  0  0  0  0  0  0  0
   -0.0051   -8.6170   -4.2788 C   0  0  0  0  0  0  0  0  0  0  0  0
   -0.3493   -9.0290   -5.7112 C   0  0  0  0  0  0  0  0  0  0  0  0
    2.6579   -7.9006   -4.7399 S   0  0  0  0  0  0  0  0  0  0  0  0
    3.1253   -6.2399   -4.5611 C   0  0  0  0  0  0  0  0  0  0  0  0
    4.4164   -5.7271   -4.7071 C   0  0  0  0  0  0  0  0  0  0  0  0
    4.5477   -4.3272   -4.6264 C   0  0  0  0  0  0  0  0  0  0  0  0
    3.4556   -3.5489   -4.1949 C   0  0  0  0  0  0  0  0  0  0  0  0
    3.8616   -1.8592   -4.1575 S   0  0  0  0  0  0  0  0  0  0  0  0
    5.4689   -2.1947   -4.7392 C   0  0  0  0  0  0  0  0  0  0  0  0
    6.4070   -1.0676   -4.9960 C   0  0  0  0  0  0  0  0  0  0  0  0
    5.9669   -0.2485   -6.2111 C   0  0  0  0  0  0  0  0  0  0  0  0
    5.6758   -3.5180   -4.9327 C   0  0  0  0  0  0  0  0  0  0  0  0
    5.5531   -6.5901   -4.8789 C   0  0  0  0  0  0  0  0  0  0  0  0
    6.7162   -6.4306   -4.1951 C   0  0  0  0  0  0  0  0  0  0  0  0
    6.8593   -5.5956   -2.9696 C   0  0  0  0  0  0  0  0  0  0  0  0
    6.0461   -4.8415   -2.4742 O   0  0  0  0  0  0  0  0  0  0  0  0
    8.1737   -5.9345   -2.4068 C   0  0  0  0  0  0  0  0  0  0  0  0
    8.7209   -5.4288   -1.2287 C   0  0  0  0  0  0  0  0  0  0  0  0
    9.9803   -5.9012   -0.9544 C   0  0  0  0  0  0  0  0  0  0  0  0
   10.6473   -6.8136   -1.7847 C   0  0  0  0  0  0  0  0  0  0  0  0
   10.1095   -7.3363   -2.9371 C   0  0  0  0  0  0  0  0  0  0  0  0
    8.8262   -6.8669   -3.2396 C   0  0  0  0  0  0  0  0  0  0  0  0
    7.9518   -7.1772   -4.3656 C   0  0  0  0  0  0  0  0  0  0  0  0
    8.2688   -7.9609   -5.4428 C   0  0  0  0  0  0  0  0  0  0  0  0
    9.4935   -8.6420   -5.6028 C   0  0  0  0  0  0  0  0  0  0  0  0
   10.4666   -9.2206   -5.7937 N   0  0  0  0  0  0  0  0  0  0  0  0
    7.4298   -8.1632   -6.5598 C   0  0  0  0  0  0  0  0  0  0  0  0
    6.8152   -8.3518   -7.5109 N   0  0  0  0  0  0  0  0  0  0  0  0
   11.8789   -6.8244   -0.9131 C   0  0  0  0  0  0  0  0  0  0  0  0
   13.0811   -5.9949   -1.4138 C   0  0  0  0  0  0  0  0  0  0  0  0
   13.9254   -5.7990   -0.1750 C   0  0  0  0  0  0  0  0  0  0  0  0
   13.2899   -4.9437    0.6159 C   0  0  0  0  0  0  0  0  0  0  0  0
   12.0052   -4.5469   -0.0742 C   0  0  0  0  0  0  0  0  0  0  0  0
   12.4669   -4.5941   -1.5367 C   0  0  0  0  0  0  0  0  0  0  0  0
   11.1302   -5.8148    0.0153 C   0  0  0  0  0  0  0  0  0  0  0  0
   -8.9140    5.4834    2.5200 H   0  0  0  0  0  0  0  0  0  0  0  0
   -5.3870    7.9617    7.0590 H   0  0  0  0  0  0  0  0  0  0  0  0
   -9.9112    9.8141    5.7262 H   0  0  0  0  0  0  0  0  0  0  0  0
   -9.0915   10.8238    8.8969 H   0  0  0  0  0  0  0  0  0  0  0  0
   -8.7236   12.8557    7.2151 H   0  0  0  0  0  0  0  0  0  0  0  0
   -8.2204   13.6973    9.6529 H   0  0  0  0  0  0  0  0  0  0  0  0
   -5.8408   12.7626   10.3758 H   0  0  0  0  0  0  0  0  0  0  0  0
   -4.8786   11.3457    8.3832 H   0  0  0  0  0  0  0  0  0  0  0  0
   -6.1120   13.1981    6.9497 H   0  0  0  0  0  0  0  0  0  0  0  0
   -6.5357   11.6046    6.2837 H   0  0  0  0  0  0  0  0  0  0  0  0
   -6.7572    9.9086    9.6085 H   0  0  0  0  0  0  0  0  0  0  0  0
   -5.0890    5.6784    2.8116 H   0  0  0  0  0  0  0  0  0  0  0  0
   -0.8242    3.9763    1.5848 H   0  0  0  0  0  0  0  0  0  0  0  0
    0.4880    5.5428    3.0534 H   0  0  0  0  0  0  0  0  0  0  0  0
    1.1459    8.4464    5.4705 H   0  0  0  0  0  0  0  0  0  0  0  0
    1.4413    7.0234    4.4563 H   0  0  0  0  0  0  0  0  0  0  0  0
    1.2831    9.0955    3.0474 H   0  0  0  0  0  0  0  0  0  0  0  0
   -0.3192    9.4289    3.7168 H   0  0  0  0  0  0  0  0  0  0  0  0
   -0.0685    8.0163    2.6864 H   0  0  0  0  0  0  0  0  0  0  0  0
   -5.3748   -0.0652   -1.4011 H   0  0  0  0  0  0  0  0  0  0  0  0
   -7.2992   -1.6042   -2.0071 H   0  0  0  0  0  0  0  0  0  0  0  0
  -11.7158   -2.0001    0.8859 H   0  0  0  0  0  0  0  0  0  0  0  0
  -10.6407   -0.6612    1.3570 H   0  0  0  0  0  0  0  0  0  0  0  0
   -9.0494   -2.3217    2.3683 H   0  0  0  0  0  0  0  0  0  0  0  0
  -10.6486   -2.4675    3.1054 H   0  0  0  0  0  0  0  0  0  0  0  0
  -10.1243   -3.6425    1.8903 H   0  0  0  0  0  0  0  0  0  0  0  0
   -3.8591   -0.7231   -0.0025 H   0  0  0  0  0  0  0  0  0  0  0  0
   -3.4824    1.0725   -4.3411 H   0  0  0  0  0  0  0  0  0  0  0  0
   -5.3859    0.0552   -5.4634 H   0  0  0  0  0  0  0  0  0  0  0  0
   -8.4849   -1.7217   -6.2935 H   0  0  0  0  0  0  0  0  0  0  0  0
   -7.7424   -0.4369   -5.3143 H   0  0  0  0  0  0  0  0  0  0  0  0
   -6.9525   -0.9973   -6.8254 H   0  0  0  0  0  0  0  0  0  0  0  0
   -4.9334   -3.4537   -3.0631 H   0  0  0  0  0  0  0  0  0  0  0  0
   -3.0301   -2.4173   -1.9099 H   0  0  0  0  0  0  0  0  0  0  0  0
   -4.1850    1.7379   -2.0448 H   0  0  0  0  0  0  0  0  0  0  0  0
   -4.0488    4.0588   -1.3864 H   0  0  0  0  0  0  0  0  0  0  0  0
   -3.2256    7.2500    0.2140 H   0  0  0  0  0  0  0  0  0  0  0  0
   -3.9788    6.3909   -1.1465 H   0  0  0  0  0  0  0  0  0  0  0  0
   -3.7657    5.5707    0.4355 H   0  0  0  0  0  0  0  0  0  0  0  0
    0.2209    3.8166   -1.3546 H   0  0  0  0  0  0  0  0  0  0  0  0
    0.0837    1.4550   -2.0236 H   0  0  0  0  0  0  0  0  0  0  0  0
    0.0633   -5.1720   -0.4219 H   0  0  0  0  0  0  0  0  0  0  0  0
   -0.3919   -7.5651   -0.5072 H   0  0  0  0  0  0  0  0  0  0  0  0
   -0.3579  -11.2134   -0.4271 H   0  0  0  0  0  0  0  0  0  0  0  0
   -0.3211   -9.7090    0.5191 H   0  0  0  0  0  0  0  0  0  0  0  0
   -0.9908   -9.7168   -1.1452 H   0  0  0  0  0  0  0  0  0  0  0  0
    3.6737   -8.2953   -1.6165 H   0  0  0  0  0  0  0  0  0  0  0  0
    4.1193   -5.8692   -1.5644 H   0  0  0  0  0  0  0  0  0  0  0  0
    4.0662   -5.0959    0.7723 H   0  0  0  0  0  0  0  0  0  0  0  0
    6.3384   -4.2999    1.2415 H   0  0  0  0  0  0  0  0  0  0  0  0
    7.7269   -2.4068   -2.1124 H   0  0  0  0  0  0  0  0  0  0  0  0
    7.9711   -0.6799   -1.7205 H   0  0  0  0  0  0  0  0  0  0  0  0
    9.3248   -1.8216   -1.5760 H   0  0  0  0  0  0  0  0  0  0  0  0
    5.5715   -0.7702   -1.0323 H   0  0  0  0  0  0  0  0  0  0  0  0
    3.3099   -1.5593   -1.5062 H   0  0  0  0  0  0  0  0  0  0  0  0
   -0.0771   -5.8072   -3.6202 H   0  0  0  0  0  0  0  0  0  0  0  0
   -0.9030   -8.2594   -3.7699 H   0  0  0  0  0  0  0  0  0  0  0  0
    0.3805   -9.4863   -3.7408 H   0  0  0  0  0  0  0  0  0  0  0  0
   -1.0935   -9.8212   -5.7057 H   0  0  0  0  0  0  0  0  0  0  0  0
    0.5401   -9.3910   -6.2217 H   0  0  0  0  0  0  0  0  0  0  0  0
   -0.7465   -8.1812   -6.2649 H   0  0  0  0  0  0  0  0  0  0  0  0
    6.4414   -0.4155   -4.1197 H   0  0  0  0  0  0  0  0  0  0  0  0
    7.4082   -1.4708   -5.1629 H   0  0  0  0  0  0  0  0  0  0  0  0
    5.9409   -0.8746   -7.1000 H   0  0  0  0  0  0  0  0  0  0  0  0
    6.6596    0.5712   -6.3828 H   0  0  0  0  0  0  0  0  0  0  0  0
    4.9732    0.1622   -6.0478 H   0  0  0  0  0  0  0  0  0  0  0  0
    6.6050   -3.9178   -5.2999 H   0  0  0  0  0  0  0  0  0  0  0  0
    5.4180   -7.4438   -5.5321 H   0  0  0  0  0  0  0  0  0  0  0  0
    8.1775   -4.7266   -0.6171 H   0  0  0  0  0  0  0  0  0  0  0  0
   10.6260   -8.0513   -3.5557 H   0  0  0  0  0  0  0  0  0  0  0  0
   12.1692   -7.7922   -0.5091 H   0  0  0  0  0  0  0  0  0  0  0  0
   13.5817   -6.4015   -2.2884 H   0  0  0  0  0  0  0  0  0  0  0  0
   14.8404   -6.3281    0.0164 H   0  0  0  0  0  0  0  0  0  0  0  0
   13.5678   -4.6156    1.6002 H   0  0  0  0  0  0  0  0  0  0  0  0
   11.5209   -3.6383    0.2731 H   0  0  0  0  0  0  0  0  0  0  0  0
   13.2161   -3.8353   -1.7567 H   0  0  0  0  0  0  0  0  0  0  0  0
   11.6568   -4.5264   -2.2609 H   0  0  0  0  0  0  0  0  0  0  0  0
   10.9112   -6.1098    1.0394 H   0  0  0  0  0  0  0  0  0  0  0  0
  1  2  2  0  0  0  0
  2  3  1  0  0  0  0
  3  4  2  0  0  0  0
  3  5  1  0  0  0  0
  5  6  2  0  0  0  0
  6  7  1  0  0  0  0
  7  8  2  0  0  0  0
  8  9  1  0  0  0  0
  9 10  2  0  0  0  0
 10 11  1  0  0  0  0
 11 12  2  0  0  0  0
 12 13  1  0  0  0  0
 13 14  3  0  0  0  0
 12 15  1  0  0  0  0
 15 16  3  0  0  0  0
  8 17  1  0  0  0  0
 17 18  1  0  0  0  0
 18 19  1  0  0  0  0
 19 20  2  0  0  0  0
 20 21  1  0  0  0  0
 21 22  1  0  0  0  0
 21 23  1  0  0  0  0
  1 24  1  0  0  0  0
 24 25  2  0  0  0  0
 25 26  1  0  0  0  0
 26 27  2  0  0  0  0
 27 28  1  0  0  0  0
 28 29  2  0  0  0  0
 29 30  1  0  0  0  0
 30 31  2  0  0  0  0
 31 32  1  0  0  0  0
 32 33  1  0  0  0  0
 33 34  1  0  0  0  0
 31 35  1  0  0  0  0
 27 36  1  0  0  0  0
 36 37  2  0  0  0  0
 37 38  1  0  0  0  0
 38 39  1  0  0  0  0
 39 40  2  0  0  0  0
 40 41  1  0  0  0  0
 41 42  2  0  0  0  0
 42 43  1  0  0  0  0
 43 44  1  0  0  0  0
 44 45  1  0  0  0  0
 42 46  1  0  0  0  0
 38 47  2  0  0  0  0
 47 48  1  0  0  0  0
 37 49  1  0  0  0  0
 49 50  2  0  0  0  0
 50 51  1  0  0  0  0
 50 52  1  0  0  0  0
 52 53  2  0  0  0  0
 53 54  1  0  0  0  0
 54 55  1  0  0  0  0
 55 56  2  0  0  0  0
 56 57  1  0  0  0  0
 57 58  2  0  0  0  0
 58 59  1  0  0  0  0
 59 60  1  0  0  0  0
 58 61  1  0  0  0  0
 61 62  2  0  0  0  0
 54 63  1  0  0  0  0
 63 64  2  0  0  0  0
 64 65  1  0  0  0  0
 65 66  2  0  0  0  0
 66 67  1  0  0  0  0
 67 68  1  0  0  0  0
 66 69  1  0  0  0  0
 69 70  2  0  0  0  0
 53 71  1  0  0  0  0
 71 72  1  0  0  0  0
 72 73  1  0  0  0  0
 73 74  2  0  0  0  0
 74 75  1  0  0  0  0
 75 76  1  0  0  0  0
 76 77  2  0  0  0  0
 77 78  1  0  0  0  0
 78 79  2  0  0  0  0
 79 80  1  0  0  0  0
 80 81  1  0  0  0  0
 79 82  1  0  0  0  0
 82 83  2  0  0  0  0
 75 84  1  0  0  0  0
 84 85  2  0  0  0  0
 85 86  1  0  0  0  0
 86 87  2  0  0  0  0
 87 88  1  0  0  0  0
 88 89  1  0  0  0  0
 87 90  1  0  0  0  0
 90 91  2  0  0  0  0
 74 92  1  0  0  0  0
 92 93  1  0  0  0  0
 73 94  1  0  0  0  0
 94 95  2  0  0  0  0
 95 96  1  0  0  0  0
 96 97  2  0  0  0  0
 97 98  1  0  0  0  0
 98 99  1  0  0  0  0
 97100  1  0  0  0  0
100101  1  0  0  0  0
101102  2  0  0  0  0
102103  1  0  0  0  0
103104  2  0  0  0  0
104105  1  0  0  0  0
105106  1  0  0  0  0
106107  1  0  0  0  0
107108  1  0  0  0  0
106109  2  0  0  0  0
102110  1  0  0  0  0
110111  2  0  0  0  0
111112  1  0  0  0  0
112113  2  0  0  0  0
112114  1  0  0  0  0
114115  2  0  0  0  0
115116  1  0  0  0  0
116117  2  0  0  0  0
117118  1  0  0  0  0
118119  2  0  0  0  0
119120  1  0  0  0  0
120121  2  0  0  0  0
121122  1  0  0  0  0
122123  3  0  0  0  0
121124  1  0  0  0  0
124125  3  0  0  0  0
117126  1  0  0  0  0
126127  1  0  0  0  0
127128  1  0  0  0  0
128129  2  0  0  0  0
129130  1  0  0  0  0
130131  1  0  0  0  0
130132  1  0  0  0  0
 11  2  1  0  0  0  0
 23 17  1  0  0  0  0
 48 24  1  0  0  0  0
 93 52  1  0  0  0  0
104 94  1  0  0  0  0
120111  1  0  0  0  0
132126  1  0  0  0  0
 10  5  1  0  0  0  0
 22 18  1  0  0  0  0
 47 26  1  0  0  0  0
 62 55  1  0  0  0  0
 70 63  1  0  0  0  0
 92 71  2  0  0  0  0
101 95  1  0  0  0  0
109103  1  0  0  0  0
119114  1  0  0  0  0
131127  1  0  0  0  0
 23  7  1  0  0  0  0
 35 28  1  0  0  0  0
 51 36  1  0  0  0  0
 83 76  1  0  0  0  0
 91 84  1  0  0  0  0
132116  1  0  0  0  0
 46 39  1  0  0  0  0
  1133  1  0  0  0  0
  6134  1  0  0  0  0
  9135  1  0  0  0  0
 17136  1  0  0  0  0
 18137  1  0  0  0  0
 19138  1  0  0  0  0
 20139  1  0  0  0  0
 21140  1  0  0  0  0
 22141  1  0  0  0  0
 22142  1  0  0  0  0
 23143  1  0  0  0  0
 25144  1  0  0  0  0
 29145  1  0  0  0  0
 30146  1  0  0  0  0
 33147  1  0  0  0  0
 33148  1  0  0  0  0
 34149  1  0  0  0  0
 34150  1  0  0  0  0
 34151  1  0  0  0  0
 40152  1  0  0  0  0
 41153  1  0  0  0  0
 44154  1  0  0  0  0
 44155  1  0  0  0  0
 45156  1  0  0  0  0
 45157  1  0  0  0  0
 45158  1  0  0  0  0
 49159  1  0  0  0  0
 56160  1  0  0  0  0
 57161  1  0  0  0  0
 60162  1  0  0  0  0
 60163  1  0  0  0  0
 60164  1  0  0  0  0
 61165  1  0  0  0  0
 62166  1  0  0  0  0
 64167  1  0  0  0  0
 65168  1  0  0  0  0
 68169  1  0  0  0  0
 68170  1  0  0  0  0
 68171  1  0  0  0  0
 69172  1  0  0  0  0
 70173  1  0  0  0  0
 77174  1  0  0  0  0
 78175  1  0  0  0  0
 81176  1  0  0  0  0
 81177  1  0  0  0  0
 81178  1  0  0  0  0
 82179  1  0  0  0  0
 83180  1  0  0  0  0
 85181  1  0  0  0  0
 86182  1  0  0  0  0
 89183  1  0  0  0  0
 89184  1  0  0  0  0
 89185  1  0  0  0  0
 90186  1  0  0  0  0
 91187  1  0  0  0  0
 96188  1  0  0  0  0
 98189  1  0  0  0  0
 98190  1  0  0  0  0
 99191  1  0  0  0  0
 99192  1  0  0  0  0
 99193  1  0  0  0  0
107194  1  0  0  0  0
107195  1  0  0  0  0
108196  1  0  0  0  0
108197  1  0  0  0  0
108198  1  0  0  0  0
109199  1  0  0  0  0
110200  1  0  0  0  0
115201  1  0  0  0  0
118202  1  0  0  0  0
126203  1  0  0  0  0
127204  1  0  0  0  0
128205  1  0  0  0  0
129206  1  0  0  0  0
130207  1  0  0  0  0
131208  1  0  0  0  0
131209  1  0  0  0  0
132210  1  0  0  0  0
M  END
