148

C          6.79470       -0.23540        1.98030
C          7.74000        0.60180        1.46910
C          7.69790        1.24350        0.13120
O          6.90500        1.04230       -0.76360
C          8.92020        2.06750        0.04720
C          9.29900        2.89550       -1.00620
C         10.50060        3.53410       -0.81410
C         11.27160        3.36230        0.34350
C         10.91540        2.54090        1.38560
C          9.69820        1.87610        1.20680
C          9.01490        0.92410        2.07810
C          9.49840        0.44690        3.27000
C         10.74100        0.80560        3.83320
N         11.73540        1.04110        4.35760
C          8.85480       -0.48140        4.11100
N          8.42660       -1.23660        4.86510
C         12.35280        4.29560       -0.14100
C         13.65960        3.66350       -0.68020
C         13.29280        2.29030       -1.18580
C         12.56450        2.44470       -2.28350
C         12.42690        3.92500       -2.54070
C         13.78350        4.41860       -2.01310
C         11.49710        4.48180       -1.43360
C          5.45300       -0.38470        1.54040
C          4.65770        0.63240        0.97380
C          3.25710        0.43240        0.65080
N          2.68610        1.55190        0.19590
S          3.78020        2.72270        0.19060
N          5.02120        1.89950        0.77430
C          2.57190       -0.75490        0.96060
C          3.37430       -1.78900        1.47960
N          2.97220       -3.03470        1.74890
S          4.21590       -3.86740        2.32490
N          5.32720       -2.71310        2.26370
C          4.77550       -1.60010        1.77500
C          1.14940       -0.87040        0.90410
C          0.34330       -1.41720        1.90180
N          0.77600       -1.77140        3.16430
C          0.17090       -2.85680        3.80510
C         -0.23950       -3.96770        3.06540
C         -0.85750       -5.02530        3.69090
C         -1.07240       -5.00630        5.06850
S         -1.87480       -6.41950        5.75280
C         -1.94340       -6.07120        7.53300
C         -0.65200       -3.90920        5.80970
C         -0.03950       -2.84320        5.18120
C          1.83660       -1.07750        3.76430
C          1.97550        0.29920        3.56890
C          3.07760        0.96350        4.05370
C          4.06620        0.27820        4.76010
S          5.46980        1.21300        5.27000
C          6.18800        0.20240        6.59720
C          3.90360       -1.07820        5.00980
C          2.79530       -1.74500        4.52220
C         -1.01440       -1.40810        1.50640
S         -2.49350       -1.92930        2.24080
C         -3.39150       -1.32560        0.87880
C         -2.59260       -0.77040       -0.09410
N         -3.09860       -0.35410       -1.34610
C         -3.62990        0.92490       -1.46860
C         -3.06090        1.98900       -0.75900
C         -3.61010        3.24620       -0.83050
C         -4.75320        3.48230       -1.59750
S         -5.37640        5.12640       -1.59840
C         -6.66450        5.12060       -2.87410
C         -5.33200        2.42450       -2.29700
C         -4.76650        1.16660       -2.24330
C         -3.15660       -1.29970       -2.37100
C         -3.20220       -2.66590       -2.09670
C         -3.24540       -3.59500       -3.11900
C         -3.23530       -3.17990       -4.44250
S         -3.30470       -4.26750       -5.83140
C         -3.30950       -5.92520       -5.09210
C         -3.15960       -1.81620       -4.72430
C         -3.11400       -0.89100       -3.70810
C         -1.23010       -0.81880        0.26600
S          0.23560       -0.24370       -0.44890
C         -4.83440       -1.41960        0.77180
C         -5.61670       -0.27140        0.63090
C         -7.02270       -0.31960        0.29430
N         -7.53830        0.90890        0.21050
S         -6.39740        1.99660        0.53620
N         -5.18740        0.98950        0.79810
C         -7.71610       -1.53480        0.13070
C         -6.94360       -2.69080        0.39770
N         -7.37830       -3.94950        0.33900
S         -6.15500       -4.94630        0.63410
N         -4.99770       -3.85490        0.83970
C         -5.52740       -2.63410        0.70350
C         -9.06860       -1.66930       -0.27240
C         -9.90530       -0.74850       -0.81650
S         -9.57790        0.90550       -1.25900
C        -11.14930        1.03830       -2.03550
C        -11.47800        2.20800       -2.67870
C        -12.68760        2.50850       -3.32550
N        -13.65030        2.81250       -3.87380
C        -10.51180        3.23010       -2.72810
N         -9.71400        4.05460       -2.77810
N        -11.89530       -0.07960       -1.87370
C        -13.23910       -0.27700       -2.38550
C        -13.22400       -0.70630       -3.84780
C        -11.26480       -1.12640       -1.21030
O        -11.79780       -2.19270       -1.00500
H          7.05880       -0.88690        2.80350
H          8.67360        3.00150       -1.87880
H         11.52330        2.41580        2.26600
H         12.53890        5.17160        0.47710
H         14.50160        3.71380        0.00490
H         13.54290        1.37830       -0.67620
H         12.08410        1.68690       -2.87430
H         12.14810        4.21250       -3.55120
H         14.62130        4.07270       -2.61670
H         13.83620        5.50020       -1.89590
H         11.13070        5.48040       -1.66410
H         -0.04860       -3.99800        2.00400
H         -1.17600       -5.88570        3.12310
H         -2.54840       -5.18820        7.71680
H         -0.93850       -5.95300        7.92760
H         -2.41470       -6.94000        7.98200
H         -0.80360       -3.86500        6.87600
H          0.27290       -1.98660        5.75990
H          1.21710        0.84120        3.02390
H          3.18970        2.02490        3.89290
H          6.88850        0.85270        7.11200
H          5.40120       -0.10910        7.27710
H          6.72380       -0.64520        6.17790
H          4.64950       -1.63230        5.55650
H          2.68740       -2.80500        4.70230
H         -2.18430        1.81610       -0.15540
H         -3.16460        4.06780       -0.29160
H         -6.24810        4.75760       -3.80890
H         -6.96530        6.15780       -2.98480
H         -7.52100        4.53040       -2.56110
H         -6.23090        2.56980       -2.87480
H         -5.23610        0.35040       -2.77290
H         -3.21310       -3.01850       -1.07680
H         -3.28990       -4.64090       -2.86110
H         -3.31980       -6.61720       -5.92840
H         -4.20290       -6.06310       -4.48980
H         -2.40850       -6.07100       -4.50370
H         -3.12640       -1.49470       -5.75400
H         -3.02930        0.15910       -3.94230
H         -9.48390       -2.66610       -0.17080
H        -13.81140        0.64290       -2.25510
H        -13.67810       -1.06960       -1.77330
H        -12.66020       -1.62940       -3.96080
H        -14.24280       -0.87520       -4.18280
H        -12.78070        0.06220       -4.47670
