
  xtb     02042218233D
 energy: -321.603854151093 gnorm: 0.000600463605 xtb: 6.4.1 (unknown)
190210  0     0  0            999 V2000
    3.9307    4.3772   -6.3650 C   0  0  0  0  0  0  0  0  0  0  0  0
    3.5889    4.3295   -7.6700 C   0  0  0  0  0  0  0  0  0  0  0  0
    2.2694    3.8398   -8.1671 C   0  0  0  0  0  0  0  0  0  0  0  0
    1.2767    3.6132   -7.5116 O   0  0  0  0  0  0  0  0  0  0  0  0
    2.3888    3.7992   -9.6333 C   0  0  0  0  0  0  0  0  0  0  0  0
    1.4404    3.3193  -10.5355 C   0  0  0  0  0  0  0  0  0  0  0  0
    1.8248    3.4046  -11.8511 C   0  0  0  0  0  0  0  0  0  0  0  0
    3.0592    3.9411  -12.2456 C   0  0  0  0  0  0  0  0  0  0  0  0
    3.9977    4.4291  -11.3697 C   0  0  0  0  0  0  0  0  0  0  0  0
    3.6307    4.3441  -10.0211 C   0  0  0  0  0  0  0  0  0  0  0  0
    4.3685    4.7451   -8.8281 C   0  0  0  0  0  0  0  0  0  0  0  0
    5.5767    5.3842   -8.8122 C   0  0  0  0  0  0  0  0  0  0  0  0
    6.2884    5.7753   -7.6582 C   0  0  0  0  0  0  0  0  0  0  0  0
    6.9508    6.1350   -6.7927 N   0  0  0  0  0  0  0  0  0  0  0  0
    6.2948    5.7703   -9.9655 C   0  0  0  0  0  0  0  0  0  0  0  0
    6.9305    6.1193  -10.8552 N   0  0  0  0  0  0  0  0  0  0  0  0
    2.7840    3.7056  -13.7098 C   0  0  0  0  0  0  0  0  0  0  0  0
    3.4934    2.4971  -14.3571 C   0  0  0  0  0  0  0  0  0  0  0  0
    2.6866    2.2312  -15.6075 C   0  0  0  0  0  0  0  0  0  0  0  0
    1.5198    1.7215  -15.2340 C   0  0  0  0  0  0  0  0  0  0  0  0
    1.5183    1.6346  -13.7248 C   0  0  0  0  0  0  0  0  0  0  0  0
    3.0033    1.3405  -13.4761 C   0  0  0  0  0  0  0  0  0  0  0  0
    1.4097    3.1061  -13.2701 C   0  0  0  0  0  0  0  0  0  0  0  0
    3.1488    3.7425   -5.3296 C   0  0  0  0  0  0  0  0  0  0  0  0
    2.8144    4.3482   -4.1383 C   0  0  0  0  0  0  0  0  0  0  0  0
    3.0602    5.7478   -3.7316 C   0  0  0  0  0  0  0  0  0  0  0  0
    3.7094    6.6009   -4.2904 O   0  0  0  0  0  0  0  0  0  0  0  0
    2.3846    5.9183   -2.5398 N   0  0  0  0  0  0  0  0  0  0  0  0
    2.2390    7.2013   -1.8843 C   0  0  0  0  0  0  0  0  0  0  0  0
    2.9671    7.2661   -0.5480 C   0  0  0  0  0  0  0  0  0  0  0  0
    1.7756    4.7475   -2.0942 C   0  0  0  0  0  0  0  0  0  0  0  0
    1.1014    4.6678   -1.0943 O   0  0  0  0  0  0  0  0  0  0  0  0
    2.0693    3.7277   -3.1128 C   0  0  0  0  0  0  0  0  0  0  0  0
    1.6434    2.4083   -3.1823 C   0  0  0  0  0  0  0  0  0  0  0  0
    1.9128    1.7678   -4.4272 C   0  0  0  0  0  0  0  0  0  0  0  0
    2.6765    2.4055   -5.4671 C   0  0  0  0  0  0  0  0  0  0  0  0
    2.8995    1.5863   -6.4896 N   0  0  0  0  0  0  0  0  0  0  0  0
    2.1858    0.1744   -6.1966 S   0  0  0  0  0  0  0  0  0  0  0  0
    1.5937    0.5174   -4.7429 N   0  0  0  0  0  0  0  0  0  0  0  0
    1.0634    1.6717   -2.1051 C   0  0  0  0  0  0  0  0  0  0  0  0
    1.4078    1.6903   -0.7533 C   0  0  0  0  0  0  0  0  0  0  0  0
    2.4780    2.3544   -0.1990 N   0  0  0  0  0  0  0  0  0  0  0  0
    3.6050    2.6671   -0.9688 C   0  0  0  0  0  0  0  0  0  0  0  0
    4.2301    3.9022   -0.8266 C   0  0  0  0  0  0  0  0  0  0  0  0
    5.2446    4.2837   -1.6839 C   0  0  0  0  0  0  0  0  0  0  0  0
    5.6531    3.4331   -2.7023 C   0  0  0  0  0  0  0  0  0  0  0  0
    6.8322    3.8659   -3.9333 S   0  0  0  0  0  0  0  0  0  0  0  0
    7.0603    5.6507   -3.7049 C   0  0  0  0  0  0  0  0  0  0  0  0
    5.1043    2.1500   -2.7755 C   0  0  0  0  0  0  0  0  0  0  0  0
    4.1014    1.7680   -1.9173 C   0  0  0  0  0  0  0  0  0  0  0  0
    2.4388    2.7147    1.1568 C   0  0  0  0  0  0  0  0  0  0  0  0
    3.5643    2.5457    1.9569 C   0  0  0  0  0  0  0  0  0  0  0  0
    3.5241    2.8586    3.3017 C   0  0  0  0  0  0  0  0  0  0  0  0
    2.3534    3.3488    3.8652 C   0  0  0  0  0  0  0  0  0  0  0  0
    2.1682    3.7376    5.5779 S   0  0  0  0  0  0  0  0  0  0  0  0
    3.8570    3.6315    6.2356 C   0  0  0  0  0  0  0  0  0  0  0  0
    1.2330    3.5450    3.0596 C   0  0  0  0  0  0  0  0  0  0  0  0
    1.2727    3.2345    1.7189 C   0  0  0  0  0  0  0  0  0  0  0  0
    0.5969    0.7848   -0.0259 C   0  0  0  0  0  0  0  0  0  0  0  0
    0.4812    0.3458    1.6433 S   0  0  0  0  0  0  0  0  0  0  0  0
   -0.7504   -0.8488    1.2621 C   0  0  0  0  0  0  0  0  0  0  0  0
   -1.0835   -0.8625   -0.0850 C   0  0  0  0  0  0  0  0  0  0  0  0
   -2.1085   -1.6078   -0.6369 N   0  0  0  0  0  0  0  0  0  0  0  0
   -1.9776   -2.0572   -1.9567 C   0  0  0  0  0  0  0  0  0  0  0  0
   -3.0569   -2.0289   -2.8339 C   0  0  0  0  0  0  0  0  0  0  0  0
   -2.9046   -2.4212   -4.1495 C   0  0  0  0  0  0  0  0  0  0  0  0
   -1.6649   -2.8416   -4.6119 C   0  0  0  0  0  0  0  0  0  0  0  0
   -1.3363   -3.3248   -6.2776 S   0  0  0  0  0  0  0  0  0  0  0  0
   -2.9527   -3.2069   -7.0966 C   0  0  0  0  0  0  0  0  0  0  0  0
   -0.5868   -2.8931   -3.7313 C   0  0  0  0  0  0  0  0  0  0  0  0
   -0.7413   -2.5130   -2.4179 C   0  0  0  0  0  0  0  0  0  0  0  0
   -3.2959   -1.7888    0.0849 C   0  0  0  0  0  0  0  0  0  0  0  0
   -4.0064   -2.9862    0.0046 C   0  0  0  0  0  0  0  0  0  0  0  0
   -5.1227   -3.1842    0.7892 C   0  0  0  0  0  0  0  0  0  0  0  0
   -5.5485   -2.1950    1.6707 C   0  0  0  0  0  0  0  0  0  0  0  0
   -6.9689   -2.5317    2.6657 S   0  0  0  0  0  0  0  0  0  0  0  0
   -6.7365   -1.4127    4.0818 C   0  0  0  0  0  0  0  0  0  0  0  0
   -4.8721   -0.9837    1.7197 C   0  0  0  0  0  0  0  0  0  0  0  0
   -3.7601   -0.7831    0.9301 C   0  0  0  0  0  0  0  0  0  0  0  0
   -0.2942    0.0655   -0.8087 C   0  0  0  0  0  0  0  0  0  0  0  0
   -0.1634    0.4748   -2.4796 S   0  0  0  0  0  0  0  0  0  0  0  0
   -1.2397   -1.6562    2.3285 C   0  0  0  0  0  0  0  0  0  0  0  0
   -1.3775   -1.2631    3.6398 C   0  0  0  0  0  0  0  0  0  0  0  0
   -1.7592   -2.2869    4.5145 C   0  0  0  0  0  0  0  0  0  0  0  0
   -2.0049   -2.0484    5.9356 C   0  0  0  0  0  0  0  0  0  0  0  0
   -3.1190   -2.5846    6.5986 C   0  0  0  0  0  0  0  0  0  0  0  0
   -4.0392   -3.2250    5.8208 O   0  0  0  0  0  0  0  0  0  0  0  0
   -5.0493   -3.9905    6.4530 C   0  0  0  0  0  0  0  0  0  0  0  0
   -5.7734   -4.8011    5.3899 C   0  0  0  0  0  0  0  0  0  0  0  0
   -3.2467   -2.4299    7.9736 C   0  0  0  0  0  0  0  0  0  0  0  0
   -2.2762   -1.7420    8.6802 C   0  0  0  0  0  0  0  0  0  0  0  0
   -1.1899   -1.1796    8.0425 C   0  0  0  0  0  0  0  0  0  0  0  0
   -1.0459   -1.3210    6.6647 C   0  0  0  0  0  0  0  0  0  0  0  0
   -0.0198   -0.8108    5.9539 O   0  0  0  0  0  0  0  0  0  0  0  0
    1.1284   -0.3225    6.6191 C   0  0  0  0  0  0  0  0  0  0  0  0
    2.1892   -0.0864    5.5549 C   0  0  0  0  0  0  0  0  0  0  0  0
   -1.8806   -3.5155    3.8643 C   0  0  0  0  0  0  0  0  0  0  0  0
   -1.6187   -3.3378    2.1435 S   0  0  0  0  0  0  0  0  0  0  0  0
   -2.1882   -4.8123    4.3261 C   0  0  0  0  0  0  0  0  0  0  0  0
   -1.9732   -5.3227    5.5762 C   0  0  0  0  0  0  0  0  0  0  0  0
   -1.0948   -4.7482    6.6188 C   0  0  0  0  0  0  0  0  0  0  0  0
   -0.2047   -3.9346    6.4788 O   0  0  0  0  0  0  0  0  0  0  0  0
   -1.4283   -5.4671    7.8633 C   0  0  0  0  0  0  0  0  0  0  0  0
   -0.9892   -5.1619    9.1477 C   0  0  0  0  0  0  0  0  0  0  0  0
   -1.5221   -5.9668   10.1250 C   0  0  0  0  0  0  0  0  0  0  0  0
   -2.4128   -7.0110    9.8427 C   0  0  0  0  0  0  0  0  0  0  0  0
   -2.8371   -7.3358    8.5763 C   0  0  0  0  0  0  0  0  0  0  0  0
   -2.3153   -6.5199    7.5678 C   0  0  0  0  0  0  0  0  0  0  0  0
   -2.5739   -6.5210    6.1273 C   0  0  0  0  0  0  0  0  0  0  0  0
   -3.2788   -7.4859    5.4530 C   0  0  0  0  0  0  0  0  0  0  0  0
   -3.5215   -7.5023    4.0638 C   0  0  0  0  0  0  0  0  0  0  0  0
   -3.7718   -7.5898    2.9458 N   0  0  0  0  0  0  0  0  0  0  0  0
   -3.8415   -8.6286    6.0568 C   0  0  0  0  0  0  0  0  0  0  0  0
   -4.3248   -9.5811    6.4794 N   0  0  0  0  0  0  0  0  0  0  0  0
   -2.5772   -7.3706   11.2986 C   0  0  0  0  0  0  0  0  0  0  0  0
   -3.8774   -6.9134   12.0058 C   0  0  0  0  0  0  0  0  0  0  0  0
   -4.3583   -5.6890   11.2673 C   0  0  0  0  0  0  0  0  0  0  0  0
   -3.5159   -4.6995   11.5323 C   0  0  0  0  0  0  0  0  0  0  0  0
   -2.4507   -5.2370   12.4554 C   0  0  0  0  0  0  0  0  0  0  0  0
   -3.2759   -6.2554   13.2578 C   0  0  0  0  0  0  0  0  0  0  0  0
   -1.5853   -6.2065   11.6124 C   0  0  0  0  0  0  0  0  0  0  0  0
    4.8258    4.8911   -6.0406 H   0  0  0  0  0  0  0  0  0  0  0  0
    0.5001    2.9206  -10.1884 H   0  0  0  0  0  0  0  0  0  0  0  0
    4.9391    4.8426  -11.6903 H   0  0  0  0  0  0  0  0  0  0  0  0
    2.7888    4.5911  -14.3420 H   0  0  0  0  0  0  0  0  0  0  0  0
    4.5664    2.6132  -14.4821 H   0  0  0  0  0  0  0  0  0  0  0  0
    3.0149    2.4841  -16.5984 H   0  0  0  0  0  0  0  0  0  0  0  0
    0.6788    1.4638  -15.8507 H   0  0  0  0  0  0  0  0  0  0  0  0
    0.7920    0.9638  -13.2739 H   0  0  0  0  0  0  0  0  0  0  0  0
    3.3031    1.4185  -12.4327 H   0  0  0  0  0  0  0  0  0  0  0  0
    3.3014    0.3699  -13.8690 H   0  0  0  0  0  0  0  0  0  0  0  0
    0.4964    3.5904  -13.6106 H   0  0  0  0  0  0  0  0  0  0  0  0
    2.6369    7.9470   -2.5771 H   0  0  0  0  0  0  0  0  0  0  0  0
    1.1709    7.3810   -1.7281 H   0  0  0  0  0  0  0  0  0  0  0  0
    4.0295    7.0774   -0.6810 H   0  0  0  0  0  0  0  0  0  0  0  0
    2.8408    8.2553   -0.1163 H   0  0  0  0  0  0  0  0  0  0  0  0
    2.5520    6.5321    0.1383 H   0  0  0  0  0  0  0  0  0  0  0  0
    3.9003    4.5725   -0.0482 H   0  0  0  0  0  0  0  0  0  0  0  0
    5.6962    5.2549   -1.5629 H   0  0  0  0  0  0  0  0  0  0  0  0
    7.5828    5.8454   -2.7727 H   0  0  0  0  0  0  0  0  0  0  0  0
    6.0968    6.1508   -3.7424 H   0  0  0  0  0  0  0  0  0  0  0  0
    7.6639    5.9710   -4.5480 H   0  0  0  0  0  0  0  0  0  0  0  0
    5.4726    1.4672   -3.5259 H   0  0  0  0  0  0  0  0  0  0  0  0
    3.6755    0.7784   -1.9909 H   0  0  0  0  0  0  0  0  0  0  0  0
    4.4732    2.1544    1.5239 H   0  0  0  0  0  0  0  0  0  0  0  0
    4.4078    2.7013    3.8983 H   0  0  0  0  0  0  0  0  0  0  0  0
    4.2109    2.6052    6.2018 H   0  0  0  0  0  0  0  0  0  0  0  0
    3.7910    3.9631    7.2672 H   0  0  0  0  0  0  0  0  0  0  0  0
    4.5114    4.2933    5.6763 H   0  0  0  0  0  0  0  0  0  0  0  0
    0.3344    3.9481    3.5006 H   0  0  0  0  0  0  0  0  0  0  0  0
    0.4193    3.4177    1.0858 H   0  0  0  0  0  0  0  0  0  0  0  0
   -4.0192   -1.6837   -2.4859 H   0  0  0  0  0  0  0  0  0  0  0  0
   -3.7597   -2.3776   -4.8044 H   0  0  0  0  0  0  0  0  0  0  0  0
   -3.6624   -3.8721   -6.6137 H   0  0  0  0  0  0  0  0  0  0  0  0
   -3.3019   -2.1785   -7.0850 H   0  0  0  0  0  0  0  0  0  0  0  0
   -2.7857   -3.5276   -8.1202 H   0  0  0  0  0  0  0  0  0  0  0  0
    0.3706   -3.2353   -4.0921 H   0  0  0  0  0  0  0  0  0  0  0  0
    0.0944   -2.5688   -1.7368 H   0  0  0  0  0  0  0  0  0  0  0  0
   -3.6603   -3.7679   -0.6539 H   0  0  0  0  0  0  0  0  0  0  0  0
   -5.6608   -4.1182    0.7443 H   0  0  0  0  0  0  0  0  0  0  0  0
   -7.4506   -1.7346    4.8338 H   0  0  0  0  0  0  0  0  0  0  0  0
   -5.7221   -1.5175    4.4567 H   0  0  0  0  0  0  0  0  0  0  0  0
   -6.9505   -0.3869    3.7963 H   0  0  0  0  0  0  0  0  0  0  0  0
   -5.2052   -0.1866    2.3646 H   0  0  0  0  0  0  0  0  0  0  0  0
   -3.2433    0.1640    0.9719 H   0  0  0  0  0  0  0  0  0  0  0  0
   -1.2241   -0.2460    3.9499 H   0  0  0  0  0  0  0  0  0  0  0  0
   -5.7582   -3.3270    6.9685 H   0  0  0  0  0  0  0  0  0  0  0  0
   -4.5969   -4.6610    7.1981 H   0  0  0  0  0  0  0  0  0  0  0  0
   -5.0712   -5.4295    4.8504 H   0  0  0  0  0  0  0  0  0  0  0  0
   -6.2577   -4.1481    4.6712 H   0  0  0  0  0  0  0  0  0  0  0  0
   -6.5246   -5.4301    5.8594 H   0  0  0  0  0  0  0  0  0  0  0  0
   -4.0920   -2.8421    8.5001 H   0  0  0  0  0  0  0  0  0  0  0  0
   -2.3765   -1.6358    9.7502 H   0  0  0  0  0  0  0  0  0  0  0  0
   -0.4565   -0.6372    8.6166 H   0  0  0  0  0  0  0  0  0  0  0  0
    0.8968    0.6177    7.1399 H   0  0  0  0  0  0  0  0  0  0  0  0
    1.4800   -1.0620    7.3496 H   0  0  0  0  0  0  0  0  0  0  0  0
    3.1068    0.2628    6.0198 H   0  0  0  0  0  0  0  0  0  0  0  0
    2.3870   -1.0140    5.0253 H   0  0  0  0  0  0  0  0  0  0  0  0
    1.8429    0.6526    4.8370 H   0  0  0  0  0  0  0  0  0  0  0  0
   -2.6507   -5.4528    3.5842 H   0  0  0  0  0  0  0  0  0  0  0  0
   -0.3085   -4.3427    9.3182 H   0  0  0  0  0  0  0  0  0  0  0  0
   -3.5251   -8.1404    8.3769 H   0  0  0  0  0  0  0  0  0  0  0  0
   -2.2846   -8.3802   11.5795 H   0  0  0  0  0  0  0  0  0  0  0  0
   -4.6104   -7.7013   12.1568 H   0  0  0  0  0  0  0  0  0  0  0  0
   -5.2029   -5.6848   10.6027 H   0  0  0  0  0  0  0  0  0  0  0  0
   -3.5130   -3.7029   11.1310 H   0  0  0  0  0  0  0  0  0  0  0  0
   -1.8847   -4.4979   13.0166 H   0  0  0  0  0  0  0  0  0  0  0  0
   -4.0280   -5.7852   13.8898 H   0  0  0  0  0  0  0  0  0  0  0  0
   -2.6666   -6.9336   13.8536 H   0  0  0  0  0  0  0  0  0  0  0  0
   -0.6448   -6.4549   12.1005 H   0  0  0  0  0  0  0  0  0  0  0  0
  1  2  2  0  0  0  0
  2  3  1  0  0  0  0
  3  4  2  0  0  0  0
  3  5  1  0  0  0  0
  5  6  2  0  0  0  0
  6  7  1  0  0  0  0
  7  8  2  0  0  0  0
  8  9  1  0  0  0  0
  9 10  2  0  0  0  0
 10 11  1  0  0  0  0
 11 12  2  0  0  0  0
 12 13  1  0  0  0  0
 13 14  3  0  0  0  0
 12 15  1  0  0  0  0
 15 16  3  0  0  0  0
  8 17  1  0  0  0  0
 17 18  1  0  0  0  0
 18 19  1  0  0  0  0
 19 20  2  0  0  0  0
 20 21  1  0  0  0  0
 21 22  1  0  0  0  0
 21 23  1  0  0  0  0
  1 24  1  0  0  0  0
 24 25  2  0  0  0  0
 25 26  1  0  0  0  0
 26 27  2  0  0  0  0
 26 28  1  0  0  0  0
 28 29  1  0  0  0  0
 29 30  1  0  0  0  0
 28 31  1  0  0  0  0
 31 32  2  0  0  0  0
 31 33  1  0  0  0  0
 33 34  2  0  0  0  0
 34 35  1  0  0  0  0
 35 36  1  0  0  0  0
 36 37  2  0  0  0  0
 37 38  1  0  0  0  0
 38 39  1  0  0  0  0
 34 40  1  0  0  0  0
 40 41  2  0  0  0  0
 41 42  1  0  0  0  0
 42 43  1  0  0  0  0
 43 44  2  0  0  0  0
 44 45  1  0  0  0  0
 45 46  2  0  0  0  0
 46 47  1  0  0  0  0
 47 48  1  0  0  0  0
 46 49  1  0  0  0  0
 49 50  2  0  0  0  0
 42 51  1  0  0  0  0
 51 52  2  0  0  0  0
 52 53  1  0  0  0  0
 53 54  2  0  0  0  0
 54 55  1  0  0  0  0
 55 56  1  0  0  0  0
 54 57  1  0  0  0  0
 57 58  2  0  0  0  0
 41 59  1  0  0  0  0
 59 60  1  0  0  0  0
 60 61  1  0  0  0  0
 61 62  2  0  0  0  0
 62 63  1  0  0  0  0
 63 64  1  0  0  0  0
 64 65  2  0  0  0  0
 65 66  1  0  0  0  0
 66 67  2  0  0  0  0
 67 68  1  0  0  0  0
 68 69  1  0  0  0  0
 67 70  1  0  0  0  0
 70 71  2  0  0  0  0
 63 72  1  0  0  0  0
 72 73  2  0  0  0  0
 73 74  1  0  0  0  0
 74 75  2  0  0  0  0
 75 76  1  0  0  0  0
 76 77  1  0  0  0  0
 75 78  1  0  0  0  0
 78 79  2  0  0  0  0
 62 80  1  0  0  0  0
 80 81  1  0  0  0  0
 61 82  1  0  0  0  0
 82 83  2  0  0  0  0
 83 84  1  0  0  0  0
 84 85  1  0  0  0  0
 85 86  2  0  0  0  0
 86 87  1  0  0  0  0
 87 88  1  0  0  0  0
 88 89  1  0  0  0  0
 86 90  1  0  0  0  0
 90 91  2  0  0  0  0
 91 92  1  0  0  0  0
 92 93  2  0  0  0  0
 93 94  1  0  0  0  0
 94 95  1  0  0  0  0
 95 96  1  0  0  0  0
 84 97  2  0  0  0  0
 97 98  1  0  0  0  0
 97 99  1  0  0  0  0
 99100  2  0  0  0  0
100101  1  0  0  0  0
101102  2  0  0  0  0
101103  1  0  0  0  0
103104  2  0  0  0  0
104105  1  0  0  0  0
105106  2  0  0  0  0
106107  1  0  0  0  0
107108  2  0  0  0  0
108109  1  0  0  0  0
109110  2  0  0  0  0
110111  1  0  0  0  0
111112  3  0  0  0  0
110113  1  0  0  0  0
113114  3  0  0  0  0
106115  1  0  0  0  0
115116  1  0  0  0  0
116117  1  0  0  0  0
117118  2  0  0  0  0
118119  1  0  0  0  0
119120  1  0  0  0  0
119121  1  0  0  0  0
 11  2  1  0  0  0  0
 23 17  1  0  0  0  0
 36 24  1  0  0  0  0
 81 40  1  0  0  0  0
 98 82  1  0  0  0  0
109100  1  0  0  0  0
121115  1  0  0  0  0
 10  5  1  0  0  0  0
 22 18  1  0  0  0  0
 33 25  1  0  0  0  0
 39 35  2  0  0  0  0
 50 43  1  0  0  0  0
 58 51  1  0  0  0  0
 80 59  2  0  0  0  0
 93 85  1  0  0  0  0
108103  1  0  0  0  0
120116  1  0  0  0  0
 23  7  1  0  0  0  0
 71 64  1  0  0  0  0
 79 72  1  0  0  0  0
121105  1  0  0  0  0
  1122  1  0  0  0  0
  6123  1  0  0  0  0
  9124  1  0  0  0  0
 17125  1  0  0  0  0
 18126  1  0  0  0  0
 19127  1  0  0  0  0
 20128  1  0  0  0  0
 21129  1  0  0  0  0
 22130  1  0  0  0  0
 22131  1  0  0  0  0
 23132  1  0  0  0  0
 29133  1  0  0  0  0
 29134  1  0  0  0  0
 30135  1  0  0  0  0
 30136  1  0  0  0  0
 30137  1  0  0  0  0
 44138  1  0  0  0  0
 45139  1  0  0  0  0
 48140  1  0  0  0  0
 48141  1  0  0  0  0
 48142  1  0  0  0  0
 49143  1  0  0  0  0
 50144  1  0  0  0  0
 52145  1  0  0  0  0
 53146  1  0  0  0  0
 56147  1  0  0  0  0
 56148  1  0  0  0  0
 56149  1  0  0  0  0
 57150  1  0  0  0  0
 58151  1  0  0  0  0
 65152  1  0  0  0  0
 66153  1  0  0  0  0
 69154  1  0  0  0  0
 69155  1  0  0  0  0
 69156  1  0  0  0  0
 70157  1  0  0  0  0
 71158  1  0  0  0  0
 73159  1  0  0  0  0
 74160  1  0  0  0  0
 77161  1  0  0  0  0
 77162  1  0  0  0  0
 77163  1  0  0  0  0
 78164  1  0  0  0  0
 79165  1  0  0  0  0
 83166  1  0  0  0  0
 88167  1  0  0  0  0
 88168  1  0  0  0  0
 89169  1  0  0  0  0
 89170  1  0  0  0  0
 89171  1  0  0  0  0
 90172  1  0  0  0  0
 91173  1  0  0  0  0
 92174  1  0  0  0  0
 95175  1  0  0  0  0
 95176  1  0  0  0  0
 96177  1  0  0  0  0
 96178  1  0  0  0  0
 96179  1  0  0  0  0
 99180  1  0  0  0  0
104181  1  0  0  0  0
107182  1  0  0  0  0
115183  1  0  0  0  0
116184  1  0  0  0  0
117185  1  0  0  0  0
118186  1  0  0  0  0
119187  1  0  0  0  0
120188  1  0  0  0  0
120189  1  0  0  0  0
121190  1  0  0  0  0
M  END
