
  xtb     02122220563D
 energy: -376.805518448151 gnorm: 0.000334901932 xtb: 6.4.1 (unknown)
229252  0     0  0            999 V2000
   -5.8133   -6.7605   -3.6687 C   0  0  0  0  0  0  0  0  0  0  0  0
   -5.6313   -7.9984   -3.1407 C   0  0  0  0  0  0  0  0  0  0  0  0
   -4.9254   -8.2642   -1.8559 C   0  0  0  0  0  0  0  0  0  0  0  0
   -4.3844   -7.4675   -1.1190 O   0  0  0  0  0  0  0  0  0  0  0  0
   -5.1492   -9.6933   -1.5702 C   0  0  0  0  0  0  0  0  0  0  0  0
   -4.6878  -10.4014   -0.4618 C   0  0  0  0  0  0  0  0  0  0  0  0
   -5.0688  -11.7210   -0.4409 C   0  0  0  0  0  0  0  0  0  0  0  0
   -5.8665  -12.2946   -1.4409 C   0  0  0  0  0  0  0  0  0  0  0  0
   -6.3376  -11.6067   -2.5330 C   0  0  0  0  0  0  0  0  0  0  0  0
   -5.9489  -10.2633   -2.5811 C   0  0  0  0  0  0  0  0  0  0  0  0
   -6.2327   -9.2418   -3.5826 C   0  0  0  0  0  0  0  0  0  0  0  0
   -6.8609   -9.4468   -4.7834 C   0  0  0  0  0  0  0  0  0  0  0  0
   -7.4135  -10.6756   -5.1997 C   0  0  0  0  0  0  0  0  0  0  0  0
   -7.8896  -11.6421   -5.5968 N   0  0  0  0  0  0  0  0  0  0  0  0
   -7.0000   -8.4721   -5.7919 C   0  0  0  0  0  0  0  0  0  0  0  0
   -7.1252   -7.7525   -6.6785 N   0  0  0  0  0  0  0  0  0  0  0  0
   -5.8591  -13.6508   -0.7802 C   0  0  0  0  0  0  0  0  0  0  0  0
   -4.9249  -14.7122   -1.3991 C   0  0  0  0  0  0  0  0  0  0  0  0
   -4.7610  -15.7356   -0.2986 C   0  0  0  0  0  0  0  0  0  0  0  0
   -4.0043  -15.1936    0.6470 C   0  0  0  0  0  0  0  0  0  0  0  0
   -3.6441  -13.7946    0.2016 C   0  0  0  0  0  0  0  0  0  0  0  0
   -3.5616  -14.0136   -1.3146 C   0  0  0  0  0  0  0  0  0  0  0  0
   -4.9682  -13.0120    0.3330 C   0  0  0  0  0  0  0  0  0  0  0  0
   -5.0173   -5.6207   -3.3078 C   0  0  0  0  0  0  0  0  0  0  0  0
   -3.6142   -5.7669   -3.1239 C   0  0  0  0  0  0  0  0  0  0  0  0
   -3.0148   -6.9414   -3.4167 N   0  0  0  0  0  0  0  0  0  0  0  0
   -1.7544   -7.0749   -3.1536 C   0  0  0  0  0  0  0  0  0  0  0  0
   -1.0019   -6.0248   -2.5468 C   0  0  0  0  0  0  0  0  0  0  0  0
    0.2502   -6.3002   -2.2001 O   0  0  0  0  0  0  0  0  0  0  0  0
    0.9877   -5.3148   -1.4809 C   0  0  0  0  0  0  0  0  0  0  0  0
    0.5496   -5.2362   -0.0260 C   0  0  0  0  0  0  0  0  0  0  0  0
   -1.5319   -4.8349   -2.3974 N   0  0  0  0  0  0  0  0  0  0  0  0
   -2.8318   -4.6656   -2.7086 C   0  0  0  0  0  0  0  0  0  0  0  0
   -3.4121   -3.3683   -2.6062 C   0  0  0  0  0  0  0  0  0  0  0  0
   -4.7932   -3.2706   -2.7669 C   0  0  0  0  0  0  0  0  0  0  0  0
   -5.5681   -4.3595   -3.1275 C   0  0  0  0  0  0  0  0  0  0  0  0
   -2.5792   -2.2376   -2.3418 C   0  0  0  0  0  0  0  0  0  0  0  0
   -2.8079   -0.8875   -2.6240 C   0  0  0  0  0  0  0  0  0  0  0  0
   -3.8222   -0.3590   -3.4014 N   0  0  0  0  0  0  0  0  0  0  0  0
   -4.3605   -1.0584   -4.4892 C   0  0  0  0  0  0  0  0  0  0  0  0
   -3.5935   -1.9622   -5.2197 C   0  0  0  0  0  0  0  0  0  0  0  0
   -4.1745   -2.7620   -6.1821 C   0  0  0  0  0  0  0  0  0  0  0  0
   -5.5365   -2.6670   -6.4381 C   0  0  0  0  0  0  0  0  0  0  0  0
   -6.3900   -3.7349   -7.5505 S   0  0  0  0  0  0  0  0  0  0  0  0
   -5.3292   -5.2072   -7.5826 C   0  0  0  0  0  0  0  0  0  0  0  0
   -6.2864   -1.6935   -5.7812 C   0  0  0  0  0  0  0  0  0  0  0  0
   -5.7089   -0.8996   -4.8174 C   0  0  0  0  0  0  0  0  0  0  0  0
   -4.2382    0.9601   -3.1498 C   0  0  0  0  0  0  0  0  0  0  0  0
   -4.5074    1.3768   -1.8457 C   0  0  0  0  0  0  0  0  0  0  0  0
   -4.9062    2.6715   -1.6003 C   0  0  0  0  0  0  0  0  0  0  0  0
   -5.0502    3.5773   -2.6491 C   0  0  0  0  0  0  0  0  0  0  0  0
   -5.6075    5.1936   -2.2254 S   0  0  0  0  0  0  0  0  0  0  0  0
   -5.3993    6.1479   -3.7524 C   0  0  0  0  0  0  0  0  0  0  0  0
   -4.7861    3.1649   -3.9490 C   0  0  0  0  0  0  0  0  0  0  0  0
   -4.3828    1.8676   -4.1947 C   0  0  0  0  0  0  0  0  0  0  0  0
   -1.7823   -0.0810   -2.0815 C   0  0  0  0  0  0  0  0  0  0  0  0
   -1.4918    1.6295   -2.0476 S   0  0  0  0  0  0  0  0  0  0  0  0
    0.0067    1.3635   -1.1753 C   0  0  0  0  0  0  0  0  0  0  0  0
    0.2935    0.0141   -1.0169 C   0  0  0  0  0  0  0  0  0  0  0  0
    1.5544   -0.4035   -0.5814 N   0  0  0  0  0  0  0  0  0  0  0  0
    2.6128   -0.0240   -1.4260 C   0  0  0  0  0  0  0  0  0  0  0  0
    2.4104   -0.0179   -2.8052 C   0  0  0  0  0  0  0  0  0  0  0  0
    3.4061    0.3930   -3.6651 C   0  0  0  0  0  0  0  0  0  0  0  0
    4.6307    0.8009   -3.1554 C   0  0  0  0  0  0  0  0  0  0  0  0
    5.9412    1.3680   -4.2031 S   0  0  0  0  0  0  0  0  0  0  0  0
    5.6650    0.4094   -5.7255 C   0  0  0  0  0  0  0  0  0  0  0  0
    4.8390    0.8037   -1.7797 C   0  0  0  0  0  0  0  0  0  0  0  0
    3.8407    0.3954   -0.9195 C   0  0  0  0  0  0  0  0  0  0  0  0
    1.6931   -1.2677    0.4926 C   0  0  0  0  0  0  0  0  0  0  0  0
    0.6920   -1.3210    1.4631 C   0  0  0  0  0  0  0  0  0  0  0  0
    0.8025   -2.1659    2.5464 C   0  0  0  0  0  0  0  0  0  0  0  0
    1.9138   -2.9870    2.6740 C   0  0  0  0  0  0  0  0  0  0  0  0
    2.1327   -4.0893    4.0487 S   0  0  0  0  0  0  0  0  0  0  0  0
    0.4249   -4.5738    4.4327 C   0  0  0  0  0  0  0  0  0  0  0  0
    2.9147   -2.9434    1.7090 C   0  0  0  0  0  0  0  0  0  0  0  0
    2.8090   -2.0941    0.6293 C   0  0  0  0  0  0  0  0  0  0  0  0
   -0.7537   -0.7989   -1.4857 C   0  0  0  0  0  0  0  0  0  0  0  0
   -1.0186   -2.5053   -1.5834 S   0  0  0  0  0  0  0  0  0  0  0  0
    0.6426    2.4236   -0.4890 C   0  0  0  0  0  0  0  0  0  0  0  0
    0.4028    3.7812   -0.6640 C   0  0  0  0  0  0  0  0  0  0  0  0
   -0.1605    4.2727   -1.8356 N   0  0  0  0  0  0  0  0  0  0  0  0
    0.5030    3.9307   -3.0262 C   0  0  0  0  0  0  0  0  0  0  0  0
   -0.2019    3.6774   -4.2013 C   0  0  0  0  0  0  0  0  0  0  0  0
    0.4754    3.3170   -5.3486 C   0  0  0  0  0  0  0  0  0  0  0  0
    1.8623    3.2123   -5.3436 C   0  0  0  0  0  0  0  0  0  0  0  0
    2.6833    2.7284   -6.8381 S   0  0  0  0  0  0  0  0  0  0  0  0
    4.2051    3.7258   -6.7668 C   0  0  0  0  0  0  0  0  0  0  0  0
    2.5688    3.4600   -4.1752 C   0  0  0  0  0  0  0  0  0  0  0  0
    1.8923    3.8150   -3.0288 C   0  0  0  0  0  0  0  0  0  0  0  0
   -1.1184    5.2855   -1.7699 C   0  0  0  0  0  0  0  0  0  0  0  0
   -1.1962    6.2819   -2.7423 C   0  0  0  0  0  0  0  0  0  0  0  0
   -2.1282    7.2888   -2.6263 C   0  0  0  0  0  0  0  0  0  0  0  0
   -2.9942    7.3347   -1.5357 C   0  0  0  0  0  0  0  0  0  0  0  0
   -4.1274    8.6879   -1.4866 S   0  0  0  0  0  0  0  0  0  0  0  0
   -5.1528    8.3438   -0.0307 C   0  0  0  0  0  0  0  0  0  0  0  0
   -2.9260    6.3400   -0.5706 C   0  0  0  0  0  0  0  0  0  0  0  0
   -2.0030    5.3219   -0.6948 C   0  0  0  0  0  0  0  0  0  0  0  0
    0.8796    4.5300    0.4312 C   0  0  0  0  0  0  0  0  0  0  0  0
    0.7564    6.1805    0.9107 S   0  0  0  0  0  0  0  0  0  0  0  0
    1.6295    5.8388    2.4170 C   0  0  0  0  0  0  0  0  0  0  0  0
    1.9402    4.4681    2.5418 C   0  0  0  0  0  0  0  0  0  0  0  0
    2.4359    3.8160    3.6389 N   0  0  0  0  0  0  0  0  0  0  0  0
    3.1644    2.6247    3.4322 C   0  0  0  0  0  0  0  0  0  0  0  0
    4.1951    2.5910    2.4944 C   0  0  0  0  0  0  0  0  0  0  0  0
    4.9186    1.4342    2.3117 C   0  0  0  0  0  0  0  0  0  0  0  0
    4.6176    0.2877    3.0463 C   0  0  0  0  0  0  0  0  0  0  0  0
    5.6051   -1.1382    2.7314 S   0  0  0  0  0  0  0  0  0  0  0  0
    5.3769   -2.1489    4.2210 C   0  0  0  0  0  0  0  0  0  0  0  0
    3.5797    0.3156    3.9689 C   0  0  0  0  0  0  0  0  0  0  0  0
    2.8655    1.4817    4.1664 C   0  0  0  0  0  0  0  0  0  0  0  0
    2.2394    4.2574    4.9496 C   0  0  0  0  0  0  0  0  0  0  0  0
    1.0458    4.8609    5.3419 C   0  0  0  0  0  0  0  0  0  0  0  0
    0.8843    5.3440    6.6246 C   0  0  0  0  0  0  0  0  0  0  0  0
    1.9200    5.2355    7.5458 C   0  0  0  0  0  0  0  0  0  0  0  0
    1.8667    5.8863    9.1795 S   0  0  0  0  0  0  0  0  0  0  0  0
    0.2161    6.6230    9.3226 C   0  0  0  0  0  0  0  0  0  0  0  0
    3.0955    4.5831    7.1749 C   0  0  0  0  0  0  0  0  0  0  0  0
    3.2541    4.0974    5.8974 C   0  0  0  0  0  0  0  0  0  0  0  0
    1.5313    3.7627    1.3898 C   0  0  0  0  0  0  0  0  0  0  0  0
    1.5879    2.0863    0.9505 S   0  0  0  0  0  0  0  0  0  0  0  0
    1.8241    6.9110    3.2898 C   0  0  0  0  0  0  0  0  0  0  0  0
    2.7692    6.9719    4.2929 C   0  0  0  0  0  0  0  0  0  0  0  0
    4.0625    6.2713    4.2496 C   0  0  0  0  0  0  0  0  0  0  0  0
    4.4703    5.5309    3.3732 O   0  0  0  0  0  0  0  0  0  0  0  0
    4.8156    6.7482    5.4287 C   0  0  0  0  0  0  0  0  0  0  0  0
    6.0933    6.3640    5.8212 C   0  0  0  0  0  0  0  0  0  0  0  0
    6.5117    6.9330    7.0016 C   0  0  0  0  0  0  0  0  0  0  0  0
    5.7192    7.8248    7.7337 C   0  0  0  0  0  0  0  0  0  0  0  0
    4.4644    8.2314    7.3445 C   0  0  0  0  0  0  0  0  0  0  0  0
    4.0221    7.6618    6.1498 C   0  0  0  0  0  0  0  0  0  0  0  0
    2.7451    7.8098    5.4565 C   0  0  0  0  0  0  0  0  0  0  0  0
    1.6434    8.4859    5.9258 C   0  0  0  0  0  0  0  0  0  0  0  0
    0.3720    8.4245    5.3237 C   0  0  0  0  0  0  0  0  0  0  0  0
   -0.7063    8.3729    4.9282 N   0  0  0  0  0  0  0  0  0  0  0  0
    1.6088    9.2420    7.1108 C   0  0  0  0  0  0  0  0  0  0  0  0
    1.4923    9.8652    8.0697 N   0  0  0  0  0  0  0  0  0  0  0  0
    6.7526    7.9772    8.8206 C   0  0  0  0  0  0  0  0  0  0  0  0
    6.5260    7.2046   10.1435 C   0  0  0  0  0  0  0  0  0  0  0  0
    5.6991    5.9892    9.8034 C   0  0  0  0  0  0  0  0  0  0  0  0
    6.4691    5.1581    9.1133 C   0  0  0  0  0  0  0  0  0  0  0  0
    7.8262    5.7998    8.9675 C   0  0  0  0  0  0  0  0  0  0  0  0
    7.9107    6.5561   10.3027 C   0  0  0  0  0  0  0  0  0  0  0  0
    7.6438    6.9938    7.9983 C   0  0  0  0  0  0  0  0  0  0  0  0
   -6.5992   -6.5926   -4.3951 H   0  0  0  0  0  0  0  0  0  0  0  0
   -4.0844   -9.9178    0.2905 H   0  0  0  0  0  0  0  0  0  0  0  0
   -6.9617  -12.0572   -3.2867 H   0  0  0  0  0  0  0  0  0  0  0  0
   -6.8330  -14.0500   -0.5036 H   0  0  0  0  0  0  0  0  0  0  0  0
   -5.2390  -15.0835   -2.3707 H   0  0  0  0  0  0  0  0  0  0  0  0
   -5.2420  -16.6960   -0.2959 H   0  0  0  0  0  0  0  0  0  0  0  0
   -3.7272  -15.6107    1.5975 H   0  0  0  0  0  0  0  0  0  0  0  0
   -2.7905  -13.3306    0.6885 H   0  0  0  0  0  0  0  0  0  0  0  0
   -3.4973  -13.0940   -1.8932 H   0  0  0  0  0  0  0  0  0  0  0  0
   -2.7425  -14.6757   -1.5906 H   0  0  0  0  0  0  0  0  0  0  0  0
   -5.3474  -12.9856    1.3530 H   0  0  0  0  0  0  0  0  0  0  0  0
   -1.2753   -8.0083   -3.4113 H   0  0  0  0  0  0  0  0  0  0  0  0
    0.8714   -4.3415   -1.9655 H   0  0  0  0  0  0  0  0  0  0  0  0
    2.0265   -5.6434   -1.5557 H   0  0  0  0  0  0  0  0  0  0  0  0
   -0.4896   -4.9228    0.0335 H   0  0  0  0  0  0  0  0  0  0  0  0
    0.6557   -6.2083    0.4501 H   0  0  0  0  0  0  0  0  0  0  0  0
    1.1655   -4.5103    0.4959 H   0  0  0  0  0  0  0  0  0  0  0  0
   -5.2818   -2.3300   -2.5734 H   0  0  0  0  0  0  0  0  0  0  0  0
   -6.6357   -4.2332   -3.2317 H   0  0  0  0  0  0  0  0  0  0  0  0
   -2.5358   -2.0518   -5.0221 H   0  0  0  0  0  0  0  0  0  0  0  0
   -3.5585   -3.4617   -6.7244 H   0  0  0  0  0  0  0  0  0  0  0  0
   -4.9688   -5.4105   -6.5783 H   0  0  0  0  0  0  0  0  0  0  0  0
   -5.9633   -6.0236   -7.9140 H   0  0  0  0  0  0  0  0  0  0  0  0
   -4.5046   -5.0666   -8.2760 H   0  0  0  0  0  0  0  0  0  0  0  0
   -7.3354   -1.5950   -6.0134 H   0  0  0  0  0  0  0  0  0  0  0  0
   -6.3067   -0.1768   -4.2819 H   0  0  0  0  0  0  0  0  0  0  0  0
   -4.4038    0.6761   -1.0302 H   0  0  0  0  0  0  0  0  0  0  0  0
   -5.1199    2.9964   -0.5938 H   0  0  0  0  0  0  0  0  0  0  0  0
   -4.3689    6.0720   -4.0875 H   0  0  0  0  0  0  0  0  0  0  0  0
   -6.0962    5.8015   -4.5100 H   0  0  0  0  0  0  0  0  0  0  0  0
   -5.6212    7.1775   -3.4885 H   0  0  0  0  0  0  0  0  0  0  0  0
   -4.8895    3.8442   -4.7797 H   0  0  0  0  0  0  0  0  0  0  0  0
   -4.1760    1.5499   -5.2061 H   0  0  0  0  0  0  0  0  0  0  0  0
    1.4630   -0.3390   -3.2117 H   0  0  0  0  0  0  0  0  0  0  0  0
    3.2160    0.3935   -4.7263 H   0  0  0  0  0  0  0  0  0  0  0  0
    4.8120    0.7927   -6.2782 H   0  0  0  0  0  0  0  0  0  0  0  0
    6.5679    0.5258   -6.3165 H   0  0  0  0  0  0  0  0  0  0  0  0
    5.5211   -0.6343   -5.4641 H   0  0  0  0  0  0  0  0  0  0  0  0
    5.7900    1.1334   -1.3906 H   0  0  0  0  0  0  0  0  0  0  0  0
    4.0028    0.4040    0.1470 H   0  0  0  0  0  0  0  0  0  0  0  0
   -0.1709   -0.6788    1.3710 H   0  0  0  0  0  0  0  0  0  0  0  0
    0.0225   -2.1741    3.2914 H   0  0  0  0  0  0  0  0  0  0  0  0
   -0.0705   -3.7955    5.0062 H   0  0  0  0  0  0  0  0  0  0  0  0
    0.4961   -5.4781    5.0290 H   0  0  0  0  0  0  0  0  0  0  0  0
   -0.1035   -4.7745    3.5058 H   0  0  0  0  0  0  0  0  0  0  0  0
    3.7738   -3.5890    1.8064 H   0  0  0  0  0  0  0  0  0  0  0  0
    3.5864   -2.0817   -0.1180 H   0  0  0  0  0  0  0  0  0  0  0  0
   -1.2784    3.7611   -4.2049 H   0  0  0  0  0  0  0  0  0  0  0  0
   -0.0664    3.1124   -6.2593 H   0  0  0  0  0  0  0  0  0  0  0  0
    4.6441    3.6703   -7.7580 H   0  0  0  0  0  0  0  0  0  0  0  0
    3.9420    4.7521   -6.5309 H   0  0  0  0  0  0  0  0  0  0  0  0
    4.8996    3.3267   -6.0334 H   0  0  0  0  0  0  0  0  0  0  0  0
    3.6438    3.3848   -4.1493 H   0  0  0  0  0  0  0  0  0  0  0  0
    2.4505    4.0112   -2.1256 H   0  0  0  0  0  0  0  0  0  0  0  0
   -0.5139    6.2718   -3.5789 H   0  0  0  0  0  0  0  0  0  0  0  0
   -2.1854    8.0655   -3.3741 H   0  0  0  0  0  0  0  0  0  0  0  0
   -4.5439    8.3798    0.8679 H   0  0  0  0  0  0  0  0  0  0  0  0
   -5.8962    9.1345   -0.0033 H   0  0  0  0  0  0  0  0  0  0  0  0
   -5.6387    7.3794   -0.1481 H   0  0  0  0  0  0  0  0  0  0  0  0
   -3.5896    6.3395    0.2777 H   0  0  0  0  0  0  0  0  0  0  0  0
   -1.9663    4.5405    0.0497 H   0  0  0  0  0  0  0  0  0  0  0  0
    4.4434    3.4906    1.9539 H   0  0  0  0  0  0  0  0  0  0  0  0
    5.7414    1.4092    1.6136 H   0  0  0  0  0  0  0  0  0  0  0  0
    4.3937   -2.6103    4.2261 H   0  0  0  0  0  0  0  0  0  0  0  0
    5.5285   -1.5306    5.1003 H   0  0  0  0  0  0  0  0  0  0  0  0
    6.1401   -2.9194    4.1732 H   0  0  0  0  0  0  0  0  0  0  0  0
    3.3174   -0.5656    4.5318 H   0  0  0  0  0  0  0  0  0  0  0  0
    2.0650    1.5074    4.8912 H   0  0  0  0  0  0  0  0  0  0  0  0
    0.2355    4.9628    4.6357 H   0  0  0  0  0  0  0  0  0  0  0  0
   -0.0496    5.8153    6.8858 H   0  0  0  0  0  0  0  0  0  0  0  0
    0.1071    7.4409    8.6168 H   0  0  0  0  0  0  0  0  0  0  0  0
   -0.5442    5.8619    9.1741 H   0  0  0  0  0  0  0  0  0  0  0  0
    0.1600    7.0095   10.3355 H   0  0  0  0  0  0  0  0  0  0  0  0
    3.8904    4.4902    7.8977 H   0  0  0  0  0  0  0  0  0  0  0  0
    4.1747    3.6122    5.6113 H   0  0  0  0  0  0  0  0  0  0  0  0
    1.1768    7.7662    3.1342 H   0  0  0  0  0  0  0  0  0  0  0  0
    6.6697    5.6678    5.2318 H   0  0  0  0  0  0  0  0  0  0  0  0
    3.8701    8.9293    7.9108 H   0  0  0  0  0  0  0  0  0  0  0  0
    7.1262    8.9852    8.9903 H   0  0  0  0  0  0  0  0  0  0  0  0
    6.1606    7.8151   10.9647 H   0  0  0  0  0  0  0  0  0  0  0  0
    4.6563    5.8904   10.0437 H   0  0  0  0  0  0  0  0  0  0  0  0
    6.2060    4.2170    8.6655 H   0  0  0  0  0  0  0  0  0  0  0  0
    8.6484    5.1344    8.7162 H   0  0  0  0  0  0  0  0  0  0  0  0
    7.9679    5.8889   11.1615 H   0  0  0  0  0  0  0  0  0  0  0  0
    8.7258    7.2775   10.3422 H   0  0  0  0  0  0  0  0  0  0  0  0
    8.5922    7.3676    7.6165 H   0  0  0  0  0  0  0  0  0  0  0  0
  1  2  2  0  0  0  0
  2  3  1  0  0  0  0
  3  4  2  0  0  0  0
  3  5  1  0  0  0  0
  5  6  2  0  0  0  0
  6  7  1  0  0  0  0
  7  8  2  0  0  0  0
  8  9  1  0  0  0  0
  9 10  2  0  0  0  0
 10 11  1  0  0  0  0
 11 12  2  0  0  0  0
 12 13  1  0  0  0  0
 13 14  3  0  0  0  0
 12 15  1  0  0  0  0
 15 16  3  0  0  0  0
  8 17  1  0  0  0  0
 17 18  1  0  0  0  0
 18 19  1  0  0  0  0
 19 20  2  0  0  0  0
 20 21  1  0  0  0  0
 21 22  1  0  0  0  0
 21 23  1  0  0  0  0
  1 24  1  0  0  0  0
 24 25  1  0  0  0  0
 25 26  2  0  0  0  0
 26 27  1  0  0  0  0
 27 28  2  0  0  0  0
 28 29  1  0  0  0  0
 29 30  1  0  0  0  0
 30 31  1  0  0  0  0
 28 32  1  0  0  0  0
 32 33  2  0  0  0  0
 33 34  1  0  0  0  0
 34 35  2  0  0  0  0
 35 36  1  0  0  0  0
 34 37  1  0  0  0  0
 37 38  2  0  0  0  0
 38 39  1  0  0  0  0
 39 40  1  0  0  0  0
 40 41  2  0  0  0  0
 41 42  1  0  0  0  0
 42 43  2  0  0  0  0
 43 44  1  0  0  0  0
 44 45  1  0  0  0  0
 43 46  1  0  0  0  0
 46 47  2  0  0  0  0
 39 48  1  0  0  0  0
 48 49  2  0  0  0  0
 49 50  1  0  0  0  0
 50 51  2  0  0  0  0
 51 52  1  0  0  0  0
 52 53  1  0  0  0  0
 51 54  1  0  0  0  0
 54 55  2  0  0  0  0
 38 56  1  0  0  0  0
 56 57  1  0  0  0  0
 57 58  1  0  0  0  0
 58 59  2  0  0  0  0
 59 60  1  0  0  0  0
 60 61  1  0  0  0  0
 61 62  2  0  0  0  0
 62 63  1  0  0  0  0
 63 64  2  0  0  0  0
 64 65  1  0  0  0  0
 65 66  1  0  0  0  0
 64 67  1  0  0  0  0
 67 68  2  0  0  0  0
 60 69  1  0  0  0  0
 69 70  2  0  0  0  0
 70 71  1  0  0  0  0
 71 72  2  0  0  0  0
 72 73  1  0  0  0  0
 73 74  1  0  0  0  0
 72 75  1  0  0  0  0
 75 76  2  0  0  0  0
 59 77  1  0  0  0  0
 77 78  1  0  0  0  0
 58 79  1  0  0  0  0
 79 80  2  0  0  0  0
 80 81  1  0  0  0  0
 81 82  1  0  0  0  0
 82 83  2  0  0  0  0
 83 84  1  0  0  0  0
 84 85  2  0  0  0  0
 85 86  1  0  0  0  0
 86 87  1  0  0  0  0
 85 88  1  0  0  0  0
 88 89  2  0  0  0  0
 81 90  1  0  0  0  0
 90 91  2  0  0  0  0
 91 92  1  0  0  0  0
 92 93  2  0  0  0  0
 93 94  1  0  0  0  0
 94 95  1  0  0  0  0
 93 96  1  0  0  0  0
 96 97  2  0  0  0  0
 80 98  1  0  0  0  0
 98 99  1  0  0  0  0
 99100  1  0  0  0  0
100101  2  0  0  0  0
101102  1  0  0  0  0
102103  1  0  0  0  0
103104  2  0  0  0  0
104105  1  0  0  0  0
105106  2  0  0  0  0
106107  1  0  0  0  0
107108  1  0  0  0  0
106109  1  0  0  0  0
109110  2  0  0  0  0
102111  1  0  0  0  0
111112  2  0  0  0  0
112113  1  0  0  0  0
113114  2  0  0  0  0
114115  1  0  0  0  0
115116  1  0  0  0  0
114117  1  0  0  0  0
117118  2  0  0  0  0
101119  1  0  0  0  0
119120  1  0  0  0  0
100121  1  0  0  0  0
121122  2  0  0  0  0
122123  1  0  0  0  0
123124  2  0  0  0  0
123125  1  0  0  0  0
125126  2  0  0  0  0
126127  1  0  0  0  0
127128  2  0  0  0  0
128129  1  0  0  0  0
129130  2  0  0  0  0
130131  1  0  0  0  0
131132  2  0  0  0  0
132133  1  0  0  0  0
133134  3  0  0  0  0
132135  1  0  0  0  0
135136  3  0  0  0  0
128137  1  0  0  0  0
137138  1  0  0  0  0
138139  1  0  0  0  0
139140  2  0  0  0  0
140141  1  0  0  0  0
141142  1  0  0  0  0
141143  1  0  0  0  0
 11  2  1  0  0  0  0
 23 17  1  0  0  0  0
 36 24  2  0  0  0  0
 78 37  1  0  0  0  0
120 79  1  0  0  0  0
131122  1  0  0  0  0
143137  1  0  0  0  0
 10  5  1  0  0  0  0
 22 18  1  0  0  0  0
 33 25  1  0  0  0  0
 47 40  1  0  0  0  0
 55 48  1  0  0  0  0
 77 56  2  0  0  0  0
 89 82  1  0  0  0  0
 97 90  1  0  0  0  0
119 98  2  0  0  0  0
130125  1  0  0  0  0
142138  1  0  0  0  0
 23  7  1  0  0  0  0
 68 61  1  0  0  0  0
 76 69  1  0  0  0  0
110103  1  0  0  0  0
118111  1  0  0  0  0
143127  1  0  0  0  0
  1144  1  0  0  0  0
  6145  1  0  0  0  0
  9146  1  0  0  0  0
 17147  1  0  0  0  0
 18148  1  0  0  0  0
 19149  1  0  0  0  0
 20150  1  0  0  0  0
 21151  1  0  0  0  0
 22152  1  0  0  0  0
 22153  1  0  0  0  0
 23154  1  0  0  0  0
 27155  1  0  0  0  0
 30156  1  0  0  0  0
 30157  1  0  0  0  0
 31158  1  0  0  0  0
 31159  1  0  0  0  0
 31160  1  0  0  0  0
 35161  1  0  0  0  0
 36162  1  0  0  0  0
 41163  1  0  0  0  0
 42164  1  0  0  0  0
 45165  1  0  0  0  0
 45166  1  0  0  0  0
 45167  1  0  0  0  0
 46168  1  0  0  0  0
 47169  1  0  0  0  0
 49170  1  0  0  0  0
 50171  1  0  0  0  0
 53172  1  0  0  0  0
 53173  1  0  0  0  0
 53174  1  0  0  0  0
 54175  1  0  0  0  0
 55176  1  0  0  0  0
 62177  1  0  0  0  0
 63178  1  0  0  0  0
 66179  1  0  0  0  0
 66180  1  0  0  0  0
 66181  1  0  0  0  0
 67182  1  0  0  0  0
 68183  1  0  0  0  0
 70184  1  0  0  0  0
 71185  1  0  0  0  0
 74186  1  0  0  0  0
 74187  1  0  0  0  0
 74188  1  0  0  0  0
 75189  1  0  0  0  0
 76190  1  0  0  0  0
 83191  1  0  0  0  0
 84192  1  0  0  0  0
 87193  1  0  0  0  0
 87194  1  0  0  0  0
 87195  1  0  0  0  0
 88196  1  0  0  0  0
 89197  1  0  0  0  0
 91198  1  0  0  0  0
 92199  1  0  0  0  0
 95200  1  0  0  0  0
 95201  1  0  0  0  0
 95202  1  0  0  0  0
 96203  1  0  0  0  0
 97204  1  0  0  0  0
104205  1  0  0  0  0
105206  1  0  0  0  0
108207  1  0  0  0  0
108208  1  0  0  0  0
108209  1  0  0  0  0
109210  1  0  0  0  0
110211  1  0  0  0  0
112212  1  0  0  0  0
113213  1  0  0  0  0
116214  1  0  0  0  0
116215  1  0  0  0  0
116216  1  0  0  0  0
117217  1  0  0  0  0
118218  1  0  0  0  0
121219  1  0  0  0  0
126220  1  0  0  0  0
129221  1  0  0  0  0
137222  1  0  0  0  0
138223  1  0  0  0  0
139224  1  0  0  0  0
140225  1  0  0  0  0
141226  1  0  0  0  0
142227  1  0  0  0  0
142228  1  0  0  0  0
143229  1  0  0  0  0
M  END
