195

C          1.48200       -2.71590       -6.10600
C          2.52670       -2.60620       -5.23220
C          2.44900       -1.75190       -4.02080
O          1.51060       -1.06450       -3.66300
C          3.79080       -1.77570       -3.42610
C          4.19540       -1.10940       -2.27210
C          5.51450       -1.31230       -1.94890
C          6.36500       -2.12940       -2.70620
C          5.98210       -2.77420       -3.86010
C          4.64600       -2.56860       -4.22010
C          3.89000       -3.06360       -5.36980
C          4.37110       -3.85180       -6.38560
C          3.59330       -4.32070       -7.46120
N          3.01720       -4.74950       -8.35870
C          5.70390       -4.29920       -6.48510
N          6.77380       -4.69300       -6.62110
C          7.53170       -1.90890       -1.77330
C          7.84200       -3.04470       -0.77330
C          8.68110       -2.36790        0.28700
C          7.88280       -1.57220        0.98750
C          6.49090       -1.69900        0.41410
C          6.51360       -3.17130       -0.01560
C          6.58700       -0.98000       -0.94540
C          0.17060       -2.39480       -5.64650
C         -0.69070       -1.38600       -6.07430
N         -0.47360       -0.59780       -7.18390
C         -0.47060        0.80180       -7.01790
C          0.07500        1.37170       -5.87110
C          0.15630        2.74440       -5.74950
C         -0.31030        3.56310       -6.76970
S         -0.22810        5.32910       -6.70650
C          1.19010        5.63090       -5.60820
C         -0.89270        2.99360       -7.89910
C         -0.97080        1.62360       -8.02500
C          0.14090       -1.16180       -8.30800
C          1.11310       -0.46770       -9.03060
C          1.74420       -1.06700      -10.09700
C          1.43370       -2.37530      -10.46500
S          2.32350       -3.06310      -11.81760
C          2.13130       -4.85040      -11.56420
C          0.44230       -3.05850       -9.76980
C         -0.19830       -2.45470       -8.70750
C         -1.70860       -1.15460       -5.11490
S         -2.92660        0.05700       -4.85990
C         -3.31390       -0.61500       -3.29890
C         -2.56130       -1.74540       -3.00450
N         -2.49060       -2.37510       -1.75090
C         -3.37230       -3.41180       -1.43280
C         -4.04800       -4.10310       -2.43770
C         -4.95250       -5.08920       -2.11430
C         -5.20280       -5.41090       -0.78280
S         -6.37090       -6.70240       -0.49120
C         -6.61080       -6.67600        1.30790
C         -4.53510       -4.72290        0.22170
C         -3.63470       -3.72900       -0.10190
C         -1.28910       -2.17760       -1.05390
C         -0.69590       -0.91260       -1.03870
C          0.48360       -0.69970       -0.36190
C          1.11010       -1.74510        0.31070
S          2.62680       -1.36590        1.13380
C          3.11840       -2.94130        1.89040
C          0.53430       -3.00750        0.28980
C         -0.65000       -3.22000       -0.38770
C         -1.65000       -2.02580       -4.03700
S         -0.36370       -3.15760       -4.16140
C         -3.88140        0.15700       -2.22050
C         -4.54100       -0.43060       -1.15040
F         -5.28450       -1.53140       -1.34410
C         -4.41060        0.05410        0.15690
F         -4.96960       -0.66040        1.14900
C         -3.58010        1.12380        0.44760
C         -3.13610        1.89660       -0.66260
N         -2.42620        3.01120       -0.44600
C         -2.03800        3.74670       -1.45810
C         -1.14180        4.90110       -1.13060
C          0.31820        4.45770       -1.26100
C         -2.41980        3.39810       -2.78390
N         -3.00960        2.25000       -3.01700
C         -3.35650        1.46510       -1.99310
C         -2.26220        4.31200       -3.95570
C         -3.42060        5.31170       -4.00270
C         -2.99460        1.34620        1.74450
C         -3.46410        1.07740        2.99460
C         -2.49410        1.24760        4.01460
C         -2.65440        1.03130        5.40140
C         -3.93850        0.76500        6.00800
C         -4.19810       -0.03150        7.09060
C         -5.52260       -0.02560        7.56300
C         -6.37810        0.79750        6.88700
S         -8.08780        0.90570        7.22650
C         -8.51440        2.50120        6.44470
C         -7.96840        3.68230        7.22070
Se        -5.50790        1.66070        5.45820
C         -1.50080        1.12930        6.17800
C         -0.22070        1.41080        5.62650
C         -0.05480        1.61700        4.22950
C          1.23980        1.75680        3.61570
C          1.56780        2.44410        2.47420
C          2.89300        2.31450        2.02880
C          3.68610        1.49820        2.78970
S          5.36760        1.18540        2.44070
C          6.00440        0.60740        4.05830
C          5.79870       -0.87710        4.28320
Se         2.72550        0.76290        4.22050
C         -1.22440        1.58580        3.47620
S         -1.32070        1.84370        1.75780
C          0.74870        1.52340        6.62660
C          0.27300        1.32120        7.91440
S         -1.44400        0.98570        7.91340
C          1.13560        1.37250        9.02060
C          0.88990        1.21240       10.36080
C         -0.43050        1.00950       10.97570
O         -1.49770        0.86480       10.42100
C         -0.18870        1.02370       12.43920
C          1.18630        1.18740       12.68770
C          1.66260        1.24260       13.98720
C          0.74760        1.13070       15.02400
F          1.18550        1.18520       16.28440
C         -0.61620        0.96420       14.79390
F         -1.46420        0.85910       15.82100
C         -1.09080        0.90990       13.48140
F         -2.39290        0.75240       13.26420
C          1.88680        1.27160       11.40620
C          3.25060        1.34780       11.25660
C          4.16380        1.39670       12.33010
N          4.96030        1.44250       13.15580
C          3.94630        1.35890       10.03010
N          4.59520        1.35600        9.08140
H          1.63770       -3.00160       -7.13700
H          3.50510       -0.50660       -1.70360
H          6.65230       -3.38290       -4.44440
H          8.42730       -1.48330       -2.22150
H          8.25210       -3.94610       -1.22060
H          9.74460       -2.48940        0.37700
H          8.14940       -0.88820        1.77180
H          5.66480       -1.35970        1.03140
H          6.58930       -3.85100        0.83240
H          5.67290       -3.46240       -0.64260
H          6.83770        0.07410       -0.84900
H          0.46000        0.73940       -5.08410
H          0.59930        3.16320       -4.86020
H          1.46460        6.67020       -5.75890
H          2.01220        4.98310       -5.89570
H          0.91750        5.47470       -4.56830
H         -1.27050        3.63720       -8.67810
H         -1.39960        1.17950       -8.91020
H          1.38890        0.53350       -8.73620
H          2.50610       -0.53550      -10.64590
H          2.85710       -5.32010      -12.22060
H          1.12950       -5.16630      -11.84060
H          2.35690       -5.08220      -10.52760
H          0.16370       -4.06150      -10.04710
H         -0.96750       -2.99160       -8.17210
H         -3.86410       -3.85910       -3.47320
H         -5.47640       -5.62400       -2.89140
H         -7.39380       -7.40050        1.50920
H         -5.69650       -6.97390        1.81330
H         -6.93190       -5.68700        1.62080
H         -4.71570       -4.93820        1.26230
H         -3.14180       -3.17890        0.68630
H         -1.15910       -0.09200       -1.56420
H          0.92990        0.28310       -0.34610
H          3.29120       -3.68480        1.11780
H          2.35790       -3.26870        2.59360
H          4.04550       -2.74280        2.41870
H          1.00120       -3.84410        0.78430
H         -1.07440       -4.21230       -0.41510
H         -1.33750        5.74800       -1.78770
H         -1.33360        5.19930       -0.09960
H          0.51720        3.63330       -0.58020
H          0.53190        4.11910       -2.27320
H          0.98610        5.28100       -1.01950
H         -2.27880        3.70650       -4.86160
H         -1.31930        4.85360       -3.90160
H         -3.45230        5.91820       -3.09960
H         -3.30200        5.96770       -4.86100
H         -4.36560        4.78270       -4.09610
H         -4.46740        0.73000        3.17180
H         -3.44400       -0.65100        7.54440
H         -5.84250       -0.61330        8.40550
H         -8.12890        2.47340        5.42040
H         -9.60340        2.51300        6.41650
H         -6.87990        3.64700        7.26000
H         -8.26570        4.61090        6.73790
H         -8.35110        3.67680        8.23850
H          0.87110        3.10430        1.98640
H          3.27200        2.82910        1.16270
H          5.50630        1.20070        4.82850
H          7.06460        0.85830        4.04310
H          6.19500       -1.15430        5.25770
H          4.73580       -1.12390        4.26360
H          6.30980       -1.45780        3.51860
H          1.77790        1.79130        6.45210
H          2.16220        1.57580        8.74060
H          2.70480        1.37110       14.22730
