269

C         -7.86360        3.34030        3.85590
C         -8.32960        3.22980        5.14550
C         -7.67270        2.53250        6.25900
O         -6.50500        2.19660        6.34630
C         -8.70940        2.32500        7.28590
C         -8.57920        1.62500        8.48220
C         -9.73030        1.58440        9.23230
C        -10.92370        2.19230        8.82120
C        -11.06280        2.89220        7.64560
C         -9.90150        2.95080        6.87170
C         -9.64680        3.62080        5.59770
C        -10.47610        4.54750        5.01680
C        -10.11050        5.39490        3.95600
N         -9.87080        6.18580        3.15750
C        -11.76280        4.87530        5.48900
N        -12.82280        5.18160        5.80840
C        -11.66640        1.75510       10.05880
C        -11.91390        2.81410       11.16140
C        -10.81180        3.83580       11.02950
C         -9.68060        3.26380       11.41980
C         -9.99760        1.84490       11.82310
C        -11.41450        2.03400       12.38800
C        -10.33540        1.08090       10.51880
C         -6.67100        2.86520        3.29510
C         -6.43500        2.76950        1.90400
N         -7.27070        3.16880        0.88100
C         -7.79340        4.46320        0.79720
C         -8.89490        4.71650       -0.01990
C         -9.38230        5.99780       -0.15000
C         -8.79820        7.04680        0.55060
S         -9.47030        8.66510        0.34360
C         -9.25390        9.35970        2.01060
C         -7.70550        6.79830        1.37190
C         -7.20390        5.51920        1.48960
C         -7.26660        2.33200       -0.25590
C         -7.41470        0.95870       -0.07350
C         -7.29520        0.08900       -1.13810
C         -7.02910        0.58350       -2.40880
S         -6.78700       -0.44740       -3.81900
C         -6.34100       -2.04940       -3.08810
C         -6.94410        1.96080       -2.60340
C         -7.05930        2.82920       -1.54130
C         -5.20820        2.13530        1.64160
S         -4.38240        1.70870        0.18140
C         -3.00980        1.15790        1.12140
C         -3.22380        1.22310        2.48220
N         -2.33270        0.75250        3.44220
C         -1.79360       -0.52980        3.29780
C         -0.48600       -0.81440        3.69190
C          0.05210       -2.07150        3.50170
C         -0.71280       -3.07900        2.92980
S         -0.08280       -4.70760        2.63450
C          1.08030       -4.93500        4.01170
C         -2.02450       -2.81170        2.55510
C         -2.55880       -1.55420        2.73700
C         -2.04710        1.55360        4.55450
C         -1.77370        0.98580        5.79870
C         -1.45740        1.78730        6.87150
C         -1.41720        3.17360        6.73640
S         -0.99240        4.09470        8.17950
C         -0.69730        5.76970        7.54750
C         -1.72510        3.74450        5.51030
C         -2.03370        2.93950        4.43210
C         -4.47830        1.81590        2.77570
S         -5.31320        2.21230        4.22980
C         -1.78740        0.75200        0.46630
C         -0.71800        1.58060        0.20550
N         -0.71900        2.95220        0.49950
C         -1.76860        3.70580       -0.04350
C         -2.16080        3.46220       -1.36200
C         -3.21340        4.15220       -1.92010
C         -3.90010        5.10950       -1.17920
S         -5.24240        5.94520       -1.97500
C         -5.32330        7.53190       -1.09680
C         -3.52380        5.35140        0.13410
C         -2.46850        4.65780        0.69430
C          0.05910        3.40900        1.56430
C          0.39420        4.75700        1.67930
C          1.06900        5.22410        2.78920
C          1.43880        4.34890        3.80090
S          2.18130        4.86820        5.31960
C          2.92010        6.47300        4.90120
C          1.17780        2.99160        3.65390
C          0.50810        2.52450        2.54520
C          0.35910        0.86610       -0.36730
S          1.96460        1.24950       -0.88610
C          2.27680       -0.44060       -1.27850
C          1.18160       -1.24460       -0.97860
N          1.14490       -2.64050       -1.05320
C          1.95830       -3.38510       -0.19380
C          2.55460       -2.79560        0.92120
C          3.38980       -3.53060        1.73230
C          3.63760       -4.87420        1.46360
S          4.69280       -5.72200        2.60290
C          4.63320       -7.44690        2.04830
C          3.05640       -5.46240        0.34940
C          2.23400       -4.72180       -0.47410
C         -0.00190       -3.18450       -1.64710
C         -0.48980       -2.59920       -2.81620
C         -1.63980       -3.07380       -3.40670
C         -2.31720       -4.15510       -2.85100
S         -3.77280       -4.71550       -3.68820
C         -3.93940       -6.42760       -3.10560
C         -1.84330       -4.73300       -1.68230
C         -0.69810       -4.24950       -1.08300
C          0.09170       -0.48530       -0.51600
S         -1.51770       -0.89750       -0.05950
C          3.44600       -0.87390       -1.95200
C          4.55960       -0.16410       -2.39750
N          4.85760        1.17010       -2.16180
C          5.55510        1.81750       -3.20620
C          5.04680        1.75960       -4.49990
C          5.78010        2.23440       -5.56980
C          7.03600        2.78400       -5.35390
S          8.10180        3.34150       -6.64370
C          7.26090        2.83430       -8.16890
C          7.51820        2.90620       -4.05180
C          6.78900        2.42730       -2.98730
C          4.82140        1.74710       -0.89470
C          4.86440        0.98020        0.26750
C          4.83190        1.58110        1.51160
C          4.76150        2.96220        1.61600
S          4.75810        3.84760        3.14010
C          4.79770        2.55480        4.40920
C          4.70800        3.73420        0.45650
C          4.73560        3.13800       -0.78090
C          5.38140       -0.96760       -3.22530
S          6.87000       -0.68570       -4.05560
C          6.81900       -2.30790       -4.72810
C          5.75280       -3.06260       -4.19920
N          5.52650       -4.40250       -4.43770
C          6.58820       -5.31280       -4.54860
C          6.47790       -6.40940       -5.40530
C          7.52690       -7.29040       -5.54350
C          8.71170       -7.09950       -4.83410
S          9.99660       -8.27530       -5.12310
C         11.33430       -7.74920       -4.01470
C          8.81750       -6.02110       -3.96510
C          7.76250       -5.14250       -3.81930
C          4.20800       -4.88730       -4.38200
C          3.18190       -4.20100       -5.02700
C          1.88110       -4.66010       -4.96840
C          1.58840       -5.82710       -4.27660
S         -0.03910       -6.50100       -4.15990
C         -0.88110       -5.78810       -5.60220
C          2.61110       -6.51600       -3.62820
C          3.90660       -6.05110       -3.67610
C          4.93070       -2.26980       -3.38340
S          3.46890       -2.55180       -2.50490
C          7.60570       -2.73930       -5.81070
C          8.59130       -2.12010       -6.52420
C          9.20040       -0.86920       -6.13570
O          9.01400       -0.32140       -5.05940
N         10.11290       -0.28030       -7.02630
C         10.90430        0.83530       -6.51500
C         12.11980        0.33680       -5.74570
C         10.29210       -0.64480       -8.32820
O         11.12810       -0.15720       -9.04850
C          9.29930       -1.69810       -8.82650
C          8.05140       -1.00610       -9.03040
N          7.06710       -0.43430       -9.14090
C          9.11900       -2.79230       -7.76700
C         10.43260       -3.52860       -7.49490
H         -8.54450        3.78350        3.13520
H         -7.64130        1.16960        8.75900
H        -11.98860        3.35090        7.34090
H        -12.53190        1.11600        9.89530
H        -12.92790        3.20350       11.19340
H        -10.95400        4.82000       10.62300
H         -8.68790        3.67420       11.40450
H         -9.26670        1.35180       12.45870
H        -11.42850        2.62880       13.30000
H        -11.94510        1.09690       12.55170
H        -10.33230        0.00140       10.65800
H         -9.36740        3.90090       -0.54620
H        -10.23360        6.19520       -0.78220
H         -8.24800        9.75160        2.13420
H         -9.97440       10.16630        2.10000
H         -9.46830        8.57890        2.73310
H         -7.24160        7.60100        1.92450
H         -6.34340        5.33330        2.11630
H         -7.60600        0.57190        0.91750
H         -7.40720       -0.96940       -0.96610
H         -7.22040       -2.53840       -2.67910
H         -5.58120       -1.89860       -2.32730
H         -5.93380       -2.64670       -3.89810
H         -6.75640        2.34180       -3.59500
H         -6.94900        3.89020       -1.69980
H          0.11400       -0.04180        4.14890
H          1.07420       -2.25820        3.79250
H          1.25700       -6.00360        4.08150
H          0.62320       -4.57160        4.92660
H          2.01560       -4.42390        3.80600
H         -2.61920       -3.59820        2.11730
H         -3.57920       -1.35690        2.44390
H         -1.81360       -0.08640        5.91880
H         -1.24180        1.34900        7.83390
H          0.03960        5.72360        6.75110
H         -0.30300        6.33430        8.38660
H         -1.62910        6.21470        7.21020
H         -1.72020        4.81410        5.37620
H         -2.25930        3.38990        3.47740
H         -1.63120        2.72330       -1.94440
H         -3.51400        3.95960       -2.93810
H         -5.77560        7.39670       -0.11910
H         -4.32490        7.95180       -1.02170
H         -5.95660        8.17220       -1.70290
H         -4.05710        6.07140        0.73530
H         -2.19630        4.85040        1.72160
H          0.10750        5.44600        0.89900
H          1.29390        6.27660        2.85810
H          3.51940        6.36130        4.00310
H          3.55450        6.73430        5.74230
H          2.14850        7.22770        4.77680
H          1.47670        2.31130        4.43740
H          0.30140        1.47050        2.44440
H          2.35540       -1.76050        1.15690
H          3.85880       -3.07130        2.59090
H          3.60380       -7.79290        2.03120
H          5.09760       -7.54150        1.07060
H          5.20190       -8.01100        2.78140
H          3.24300       -6.49430        0.10050
H          1.80810       -5.17910       -1.35350
H          0.04370       -1.76940       -3.25650
H         -2.02570       -2.61170       -4.30370
H         -2.97040       -6.91610       -3.15210
H         -4.63700       -6.90770       -3.78490
H         -4.34050       -6.44550       -2.09640
H         -2.36500       -5.55370       -1.21780
H         -0.35850       -4.68710       -0.15710
H          4.08070        1.30650       -4.66940
H          5.37000        2.15210       -6.56320
H          6.33820        3.39440       -8.28990
H          7.94610        3.08110       -8.97430
H          7.07700        1.76320       -8.16090
H          8.48790        3.35110       -3.89110
H          7.18580        2.48840       -1.98530
H          4.93510       -0.09580        0.19940
H          4.87550        0.95650        2.38950
H          5.73390        2.00670        4.35230
H          4.72550        3.07420        5.35970
H          3.94270        1.89720        4.28640
H          4.64350        4.80800        0.54380
H          4.68810        3.74070       -1.67480
H          5.56710       -6.55820       -5.96590
H          7.44630       -8.13390       -6.21160
H         11.67990       -6.75680       -4.28950
H         10.99580       -7.77950       -2.98320
H         12.13280       -8.46990       -4.16120
H          9.71300       -5.85480       -3.38850
H          7.85270       -4.30960       -3.13880
H          3.40920       -3.30070       -5.57870
H          1.10400       -4.10140       -5.46430
H         -0.26110       -5.92540       -6.48260
H         -1.10040       -4.73920       -5.42820
H         -1.80930       -6.34020       -5.71130
H          2.37440       -7.41880       -3.08580
H          4.69520       -6.58610       -3.16850
H          7.31360       -3.71370       -6.18930
H         11.21150        1.43450       -7.37300
H         10.25570        1.42490       -5.86440
H         12.68940        1.18480       -5.37700
H         11.80540       -0.26720       -4.89740
H         12.76120       -0.25850       -6.39260
H          9.66160       -2.09440       -9.78020
H          8.38260       -3.51880       -8.12810
H         11.19200       -2.84790       -7.11630
H         10.26340       -4.30570       -6.75230
H         10.80620       -3.99330       -8.40490
