162

C         -3.72540        3.84420        3.46580
C         -4.74070        4.70960        3.21270
C         -5.53110        4.80870        1.96210
O         -5.55270        4.02550        1.03470
C         -6.39300        5.99330        2.12420
C         -7.23430        6.55530        1.16560
C         -7.89940        7.67860        1.59280
C         -7.74230        8.20620        2.88190
C         -6.92350        7.65840        3.83970
C         -6.23930        6.51000        3.42680
C         -5.29170        5.67130        4.15560
C         -5.00570        5.76960        5.49140
C         -4.12690        4.93660        6.21800
N         -3.44390        4.31550        6.90160
C         -5.59810        6.70890        6.36260
N         -6.04220        7.43860        7.12980
C         -8.69860        9.34280        2.62000
C        -10.11350        9.20730        3.22130
C        -10.94090       10.18750        2.42170
C        -11.09070        9.68810        1.20150
C        -10.36700        8.36160        1.15590
C        -10.59070        7.88900        2.59820
C         -8.87440        8.75430        1.18330
C         -3.03400        2.99060        2.55160
C         -2.77300        3.26270        1.21140
F         -3.06790        4.46210        0.69270
C         -2.08740        2.37010        0.39200
F         -1.78500        2.77800       -0.85670
C         -1.61660        1.14060        0.84880
C         -1.71920        0.91670        2.25270
N         -1.10430       -0.15010        2.77740
C         -1.16570       -0.36390        4.07090
C         -0.35380       -1.50660        4.59100
C          1.03650       -1.00840        4.99400
C         -1.91670        0.51230        4.90350
N         -2.52190        1.56060        4.39850
C         -2.42610        1.81180        3.08440
C         -2.10550        0.29620        6.37310
C         -3.29080       -0.64120        6.61980
C         -0.96430        0.18050        0.02590
C         -1.13610       -0.02820       -1.34470
N         -2.19150        0.44900       -2.08280
C         -2.01330        0.72400       -3.44400
C         -2.99890        0.39590       -4.36990
C         -2.81350        0.65150       -5.71400
C         -1.63360        1.23700       -6.15490
S         -1.27540        1.59940       -7.84250
C         -2.74080        1.01510       -8.74120
C         -0.64960        1.57780       -5.22790
C         -0.83630        1.32850       -3.88800
C         -3.46130        0.58610       -1.49480
C         -4.28460        1.65530       -1.83510
C         -5.52710        1.80420       -1.25180
C         -5.96610        0.88620       -0.30730
S         -7.52820        0.96460        0.49910
C         -8.17990        2.58540        0.01300
C         -5.14880       -0.19370        0.02690
C         -3.91460       -0.34640       -0.56070
C         -0.15340       -0.91960       -1.83870
S          0.26540       -1.48490       -3.41620
C          1.56250       -2.44730       -2.73180
C          1.68730       -2.29610       -1.35290
N          2.68160       -2.83050       -0.55130
C          2.32380       -3.25290        0.74030
C          1.13070       -3.94140        0.93800
C          0.77070       -4.38690        2.19500
C          1.60770       -4.15720        3.27800
S          1.27080       -4.69490        4.92550
C         -0.33410       -5.53210        4.79810
C          2.79880       -3.45790        3.08570
C          3.15100       -3.00430        1.83560
C          4.01730       -2.89080       -0.96680
C          4.85270       -3.90220       -0.49110
C          6.16490       -3.99120       -0.90430
C          6.66890       -3.07160       -1.81370
S          8.32710       -3.15340       -2.43120
C          9.24240       -3.84790       -1.02190
C          5.84530       -2.06050       -2.29580
C          4.53660       -1.96460       -1.87210
C          0.68280       -1.43040       -0.85540
S          0.24470       -0.87440        0.73310
C          2.36950       -3.15050       -3.67380
C          3.23340       -4.22510       -3.37240
N          4.14610       -4.59170       -4.23400
C          4.20050       -4.00640       -5.44000
C          3.14120       -3.16380       -5.82520
N          2.27940       -2.72860       -4.94530
C          5.37730       -4.26280       -6.20420
C          6.39100       -4.94640       -5.62680
S          6.27620       -5.60770       -4.02470
C          7.97220       -6.10410       -4.12020
C          8.58870       -6.77840       -3.10010
C          7.88440       -7.05270       -1.91290
N          7.33900       -7.24720       -0.92120
C          9.91800       -7.24000       -3.11470
N         10.98740       -7.65360       -3.04750
N          8.54830       -5.75400       -5.29750
C          9.94910       -5.87030       -5.54510
C         10.41920       -6.81950       -6.43680
C         11.78020       -6.90630       -6.67000
C         12.65370       -6.05030       -6.02160
C         12.17150       -5.09310       -5.14450
C         10.81400       -4.99440       -4.90460
C          7.71790       -5.13730       -6.22070
O          8.06610       -4.79690       -7.32510
H         -3.37880        3.73120        4.48490
H         -7.31630        6.12880        0.17790
H         -6.80710        8.08180        4.82310
H         -8.28500       10.34380        2.72610
H        -10.15830        9.29590        4.30320
H        -11.27360       11.13760        2.79650
H        -11.57300       10.13770        0.35340
H        -10.64460        7.68030        0.35590
H        -11.64050        7.69120        2.80830
H         -9.99360        7.02360        2.87990
H         -8.57860        9.36320        0.33100
H         -0.84030       -1.97650        5.44500
H         -0.24380       -2.23460        3.78700
H          0.96730       -0.21910        5.73930
H          1.61600       -1.82910        5.40730
H          1.55410       -0.61850        4.12110
H         -1.20360       -0.11890        6.82210
H         -2.32000        1.26390        6.82770
H         -3.12620       -1.61250        6.15710
H         -4.19730       -0.21050        6.20230
H         -3.43430       -0.78500        7.68740
H         -3.91340       -0.07030       -4.03390
H         -3.59440        0.38020       -6.40580
H         -2.86700       -0.05310       -8.59110
H         -2.54030        1.21860       -9.78860
H         -3.61940        1.56750       -8.42120
H          0.25820        2.04600       -5.57520
H         -0.08280        1.61590       -3.17100
H         -3.93710        2.38370       -2.55220
H         -6.13200        2.65010       -1.52980
H         -7.43070        3.33850        0.23890
H         -8.44370        2.58160       -1.04100
H         -9.06870        2.74230        0.61640
H         -5.50120       -0.91420        0.74920
H         -3.29520       -1.19150       -0.29890
H          0.48360       -4.14070        0.09640
H         -0.15800       -4.92220        2.30920
H         -1.09140       -4.83630        4.44880
H         -0.57180       -5.86050        5.80520
H         -0.25370       -6.39320        4.14130
H          3.44240       -3.27430        3.93200
H          4.07030       -2.45600        1.69790
H          4.46720       -4.63940        0.19660
H          6.77260       -4.79910       -0.53130
H          9.02520       -4.90500       -0.90100
H         10.29530       -3.71480       -1.25170
H          8.98190       -3.29430       -0.12530
H          6.24120       -1.34570       -3.00120
H          3.91460       -1.16230       -2.24000
H          3.17250       -4.78870       -2.45470
H          3.02160       -2.82120       -6.84300
H          5.48700       -3.86070       -7.19860
H          9.72640       -7.47940       -6.93640
H         12.15730       -7.64730       -7.35800
H         13.71490       -6.12690       -6.20260
H         12.85250       -4.42030       -4.64610
H         10.41810       -4.24940       -4.22900
