
  xtb     02052217573D
 energy: -445.371621284496 gnorm: 0.003080118102 xtb: 6.4.1 (unknown)
271296  0     0  0            999 V2000
    8.3344   -2.4836    0.6251 C   0  0  0  0  0  0  0  0  0  0  0  0
    8.5978   -3.1810    1.7584 C   0  0  0  0  0  0  0  0  0  0  0  0
    7.5695   -3.6163    2.7296 C   0  0  0  0  0  0  0  0  0  0  0  0
    6.4755   -3.1291    2.9202 O   0  0  0  0  0  0  0  0  0  0  0  0
    8.1306   -4.8200    3.3709 C   0  0  0  0  0  0  0  0  0  0  0  0
    7.4654   -5.6980    4.2256 C   0  0  0  0  0  0  0  0  0  0  0  0
    8.2174   -6.7824    4.6098 C   0  0  0  0  0  0  0  0  0  0  0  0
    9.5399   -6.9780    4.1852 C   0  0  0  0  0  0  0  0  0  0  0  0
   10.2092   -6.1209    3.3450 C   0  0  0  0  0  0  0  0  0  0  0  0
    9.4577   -5.0147    2.9343 C   0  0  0  0  0  0  0  0  0  0  0  0
    9.8035   -3.9556    1.9945 C   0  0  0  0  0  0  0  0  0  0  0  0
   11.0248   -3.7468    1.4166 C   0  0  0  0  0  0  0  0  0  0  0  0
   11.3088   -2.7033    0.5091 C   0  0  0  0  0  0  0  0  0  0  0  0
   11.6096   -1.8749   -0.2271 N   0  0  0  0  0  0  0  0  0  0  0  0
   12.1708   -4.5303    1.6649 C   0  0  0  0  0  0  0  0  0  0  0  0
   13.1414   -5.1195    1.8302 N   0  0  0  0  0  0  0  0  0  0  0  0
    9.6741   -8.2780    4.9382 C   0  0  0  0  0  0  0  0  0  0  0  0
   10.4637   -8.2353    6.2633 C   0  0  0  0  0  0  0  0  0  0  0  0
   10.0244   -9.4895    6.9841 C   0  0  0  0  0  0  0  0  0  0  0  0
    8.7720   -9.3086    7.3832 C   0  0  0  0  0  0  0  0  0  0  0  0
    8.3431   -7.9286    6.9392 C   0  0  0  0  0  0  0  0  0  0  0  0
    9.6794   -7.1845    7.0602 C   0  0  0  0  0  0  0  0  0  0  0  0
    8.1988   -8.0627    5.4087 C   0  0  0  0  0  0  0  0  0  0  0  0
    7.0905   -1.9307    0.2098 C   0  0  0  0  0  0  0  0  0  0  0  0
    6.6160   -2.1230   -1.0890 C   0  0  0  0  0  0  0  0  0  0  0  0
    7.2591   -2.9692   -1.9851 N   0  0  0  0  0  0  0  0  0  0  0  0
    7.5651   -2.5262   -3.2730 C   0  0  0  0  0  0  0  0  0  0  0  0
    7.7466   -1.1676   -3.5247 C   0  0  0  0  0  0  0  0  0  0  0  0
    8.1295   -0.7293   -4.7757 C   0  0  0  0  0  0  0  0  0  0  0  0
    8.3379   -1.6445   -5.7988 C   0  0  0  0  0  0  0  0  0  0  0  0
    8.8871   -1.1767   -7.4150 S   0  0  0  0  0  0  0  0  0  0  0  0
    9.7695    0.3817   -7.1001 C   0  0  0  0  0  0  0  0  0  0  0  0
    8.1065   -2.9978   -5.5671 C   0  0  0  0  0  0  0  0  0  0  0  0
    7.7209   -3.4360   -4.3194 C   0  0  0  0  0  0  0  0  0  0  0  0
    7.7603   -4.1819   -1.4782 C   0  0  0  0  0  0  0  0  0  0  0  0
    9.0419   -4.6373   -1.7940 C   0  0  0  0  0  0  0  0  0  0  0  0
    9.5422   -5.7683   -1.1892 C   0  0  0  0  0  0  0  0  0  0  0  0
    8.7809   -6.4750   -0.2584 C   0  0  0  0  0  0  0  0  0  0  0  0
    9.5545   -7.8626    0.5121 S   0  0  0  0  0  0  0  0  0  0  0  0
    8.1817   -8.7135    1.3420 C   0  0  0  0  0  0  0  0  0  0  0  0
    7.4945   -6.0451    0.0334 C   0  0  0  0  0  0  0  0  0  0  0  0
    6.9888   -4.9164   -0.5806 C   0  0  0  0  0  0  0  0  0  0  0  0
    5.3714   -1.4948   -1.2728 C   0  0  0  0  0  0  0  0  0  0  0  0
    4.1799   -1.4912   -2.5309 S   0  0  0  0  0  0  0  0  0  0  0  0
    3.0960   -0.5651   -1.5134 C   0  0  0  0  0  0  0  0  0  0  0  0
    3.6337   -0.2838   -0.2761 C   0  0  0  0  0  0  0  0  0  0  0  0
    2.9310    0.4174    0.7130 N   0  0  0  0  0  0  0  0  0  0  0  0
    1.7965   -0.1875    1.2755 C   0  0  0  0  0  0  0  0  0  0  0  0
    1.8229   -1.5432    1.5913 C   0  0  0  0  0  0  0  0  0  0  0  0
    0.7533   -2.1425    2.2274 C   0  0  0  0  0  0  0  0  0  0  0  0
   -0.3715   -1.3965    2.5494 C   0  0  0  0  0  0  0  0  0  0  0  0
   -1.7346   -2.0219    3.4841 S   0  0  0  0  0  0  0  0  0  0  0  0
   -1.5285   -3.8229    3.3922 C   0  0  0  0  0  0  0  0  0  0  0  0
   -0.4370   -0.0584    2.1666 C   0  0  0  0  0  0  0  0  0  0  0  0
    0.6331    0.5381    1.5376 C   0  0  0  0  0  0  0  0  0  0  0  0
    3.4092    1.6534    1.1347 C   0  0  0  0  0  0  0  0  0  0  0  0
    3.0160    2.2105    2.3547 C   0  0  0  0  0  0  0  0  0  0  0  0
    3.4648    3.4572    2.7277 C   0  0  0  0  0  0  0  0  0  0  0  0
    4.3324    4.1767    1.9096 C   0  0  0  0  0  0  0  0  0  0  0  0
    4.8128    5.7792    2.4821 S   0  0  0  0  0  0  0  0  0  0  0  0
    6.1515    6.2572    1.3527 C   0  0  0  0  0  0  0  0  0  0  0  0
    4.7583    3.6132    0.7163 C   0  0  0  0  0  0  0  0  0  0  0  0
    4.3028    2.3659    0.3365 C   0  0  0  0  0  0  0  0  0  0  0  0
    4.9330   -0.8197   -0.1359 C   0  0  0  0  0  0  0  0  0  0  0  0
    5.9925   -1.0175    1.2086 S   0  0  0  0  0  0  0  0  0  0  0  0
    1.7446   -0.1841   -1.8437 C   0  0  0  0  0  0  0  0  0  0  0  0
    1.2873    1.1162   -1.9280 C   0  0  0  0  0  0  0  0  0  0  0  0
    2.0877    2.2060   -2.2168 N   0  0  0  0  0  0  0  0  0  0  0  0
    3.1340    2.0947   -3.1472 C   0  0  0  0  0  0  0  0  0  0  0  0
    3.1449    1.1251   -4.1454 C   0  0  0  0  0  0  0  0  0  0  0  0
    4.1635    1.0765   -5.0769 C   0  0  0  0  0  0  0  0  0  0  0  0
    5.1885    2.0089   -5.0371 C   0  0  0  0  0  0  0  0  0  0  0  0
    6.4999    2.0715   -6.2160 S   0  0  0  0  0  0  0  0  0  0  0  0
    6.0085    0.8583   -7.4737 C   0  0  0  0  0  0  0  0  0  0  0  0
    5.1933    2.9750   -4.0330 C   0  0  0  0  0  0  0  0  0  0  0  0
    4.1814    3.0175   -3.1006 C   0  0  0  0  0  0  0  0  0  0  0  0
    1.5996    3.5032   -1.9405 C   0  0  0  0  0  0  0  0  0  0  0  0
    1.2888    3.8805   -0.6374 C   0  0  0  0  0  0  0  0  0  0  0  0
    0.8230    5.1513   -0.3754 C   0  0  0  0  0  0  0  0  0  0  0  0
    0.6553    6.0661   -1.4107 C   0  0  0  0  0  0  0  0  0  0  0  0
    0.0546    7.6704   -0.9869 S   0  0  0  0  0  0  0  0  0  0  0  0
    0.5859    8.6943   -2.3916 C   0  0  0  0  0  0  0  0  0  0  0  0
    0.9490    5.6894   -2.7150 C   0  0  0  0  0  0  0  0  0  0  0  0
    1.4222    4.4195   -2.9734 C   0  0  0  0  0  0  0  0  0  0  0  0
   -0.1230    1.1584   -1.7800 C   0  0  0  0  0  0  0  0  0  0  0  0
   -1.2669    2.4234   -1.5223 S   0  0  0  0  0  0  0  0  0  0  0  0
   -2.5567    1.2405   -1.3355 C   0  0  0  0  0  0  0  0  0  0  0  0
   -2.1228   -0.0548   -1.5132 C   0  0  0  0  0  0  0  0  0  0  0  0
   -2.9431   -1.1745   -1.6057 N   0  0  0  0  0  0  0  0  0  0  0  0
   -3.9802   -1.3351   -0.6653 C   0  0  0  0  0  0  0  0  0  0  0  0
   -5.3110   -1.4269   -1.0562 C   0  0  0  0  0  0  0  0  0  0  0  0
   -6.3123   -1.5348   -0.1099 C   0  0  0  0  0  0  0  0  0  0  0  0
   -5.9922   -1.5755    1.2411 C   0  0  0  0  0  0  0  0  0  0  0  0
   -7.1932   -1.6777    2.5342 S   0  0  0  0  0  0  0  0  0  0  0  0
   -8.7081   -2.1976    1.6816 C   0  0  0  0  0  0  0  0  0  0  0  0
   -4.6576   -1.5155    1.6331 C   0  0  0  0  0  0  0  0  0  0  0  0
   -3.6625   -1.3923    0.6884 C   0  0  0  0  0  0  0  0  0  0  0  0
   -2.8645   -1.9876   -2.7350 C   0  0  0  0  0  0  0  0  0  0  0  0
   -3.4527   -3.2522   -2.7307 C   0  0  0  0  0  0  0  0  0  0  0  0
   -3.3925   -4.0671   -3.8422 C   0  0  0  0  0  0  0  0  0  0  0  0
   -2.7237   -3.6458   -4.9825 C   0  0  0  0  0  0  0  0  0  0  0  0
   -2.5917   -4.6288   -6.4484 S   0  0  0  0  0  0  0  0  0  0  0  0
   -4.1055   -5.6309   -6.3809 C   0  0  0  0  0  0  0  0  0  0  0  0
   -2.1079   -2.4003   -4.9839 C   0  0  0  0  0  0  0  0  0  0  0  0
   -2.1902   -1.5742   -3.8854 C   0  0  0  0  0  0  0  0  0  0  0  0
   -0.7176   -0.0888   -1.7095 C   0  0  0  0  0  0  0  0  0  0  0  0
    0.4413   -1.3652   -1.7626 S   0  0  0  0  0  0  0  0  0  0  0  0
   -3.8271    1.7280   -0.8553 C   0  0  0  0  0  0  0  0  0  0  0  0
   -4.7512    2.4824   -1.5382 C   0  0  0  0  0  0  0  0  0  0  0  0
   -4.6115    2.7692   -2.9097 N   0  0  0  0  0  0  0  0  0  0  0  0
   -4.7863    1.6852   -3.7794 C   0  0  0  0  0  0  0  0  0  0  0  0
   -3.9037    1.4072   -4.8193 C   0  0  0  0  0  0  0  0  0  0  0  0
   -4.0980    0.3085   -5.6359 C   0  0  0  0  0  0  0  0  0  0  0  0
   -5.1747   -0.5394   -5.4199 C   0  0  0  0  0  0  0  0  0  0  0  0
   -5.5108   -1.9861   -6.3740 S   0  0  0  0  0  0  0  0  0  0  0  0
   -4.4553   -1.8046   -7.8381 C   0  0  0  0  0  0  0  0  0  0  0  0
   -6.0567   -0.2700   -4.3769 C   0  0  0  0  0  0  0  0  0  0  0  0
   -5.8657    0.8262   -3.5663 C   0  0  0  0  0  0  0  0  0  0  0  0
   -4.0778    3.9962   -3.2809 C   0  0  0  0  0  0  0  0  0  0  0  0
   -4.1825    4.4620   -4.5935 C   0  0  0  0  0  0  0  0  0  0  0  0
   -3.6638    5.6911   -4.9414 C   0  0  0  0  0  0  0  0  0  0  0  0
   -3.0401    6.4853   -3.9882 C   0  0  0  0  0  0  0  0  0  0  0  0
   -2.3715    8.0571   -4.4831 S   0  0  0  0  0  0  0  0  0  0  0  0
   -2.9931    9.1289   -3.1475 C   0  0  0  0  0  0  0  0  0  0  0  0
   -2.9392    6.0387   -2.6803 C   0  0  0  0  0  0  0  0  0  0  0  0
   -3.4613    4.8123   -2.3296 C   0  0  0  0  0  0  0  0  0  0  0  0
   -5.8146    2.8966   -0.7024 C   0  0  0  0  0  0  0  0  0  0  0  0
   -7.3158    3.7156   -0.9529 S   0  0  0  0  0  0  0  0  0  0  0  0
   -7.7272    3.5087    0.7573 C   0  0  0  0  0  0  0  0  0  0  0  0
   -6.7438    2.7639    1.4528 C   0  0  0  0  0  0  0  0  0  0  0  0
   -6.7919    2.3514    2.7597 N   0  0  0  0  0  0  0  0  0  0  0  0
   -5.5553    2.1874    3.4210 C   0  0  0  0  0  0  0  0  0  0  0  0
   -4.6073    3.2054    3.3621 C   0  0  0  0  0  0  0  0  0  0  0  0
   -3.3572    3.0382    3.9243 C   0  0  0  0  0  0  0  0  0  0  0  0
   -3.0366    1.8441    4.5580 C   0  0  0  0  0  0  0  0  0  0  0  0
   -1.4617    1.4962    5.2674 S   0  0  0  0  0  0  0  0  0  0  0  0
   -0.4047    2.8442    4.6645 C   0  0  0  0  0  0  0  0  0  0  0  0
   -4.0018    0.8419    4.6588 C   0  0  0  0  0  0  0  0  0  0  0  0
   -5.2491    1.0096    4.1016 C   0  0  0  0  0  0  0  0  0  0  0  0
   -7.9610    1.8880    3.3800 C   0  0  0  0  0  0  0  0  0  0  0  0
   -8.9754    1.2815    2.6428 C   0  0  0  0  0  0  0  0  0  0  0  0
  -10.1244    0.8345    3.2617 C   0  0  0  0  0  0  0  0  0  0  0  0
  -10.2718    0.9711    4.6365 C   0  0  0  0  0  0  0  0  0  0  0  0
  -11.6923    0.4283    5.5309 S   0  0  0  0  0  0  0  0  0  0  0  0
  -12.9551    0.2138    4.2416 C   0  0  0  0  0  0  0  0  0  0  0  0
   -9.2465    1.5482    5.3809 C   0  0  0  0  0  0  0  0  0  0  0  0
   -8.1070    2.0097    4.7616 C   0  0  0  0  0  0  0  0  0  0  0  0
   -5.6606    2.4657    0.6087 C   0  0  0  0  0  0  0  0  0  0  0  0
   -4.2039    1.5683    0.8444 S   0  0  0  0  0  0  0  0  0  0  0  0
   -8.8348    4.0663    1.3954 C   0  0  0  0  0  0  0  0  0  0  0  0
   -9.9177    4.7465    0.8915 C   0  0  0  0  0  0  0  0  0  0  0  0
  -10.2021    4.9919   -0.5244 C   0  0  0  0  0  0  0  0  0  0  0  0
   -9.4836    4.7195   -1.4737 O   0  0  0  0  0  0  0  0  0  0  0  0
  -11.5387    5.6114   -0.5713 C   0  0  0  0  0  0  0  0  0  0  0  0
  -12.0293    5.7379    0.7272 C   0  0  0  0  0  0  0  0  0  0  0  0
  -13.2917    6.3009    0.9542 C   0  0  0  0  0  0  0  0  0  0  0  0
  -14.0320    6.7199   -0.1213 C   0  0  0  0  0  0  0  0  0  0  0  0
  -13.5614    6.6058   -1.4467 C   0  0  0  0  0  0  0  0  0  0  0  0
  -14.3278    7.0429   -2.5466 C   0  0  0  0  0  0  0  0  0  0  0  0
  -13.8484    6.9239   -3.8216 C   0  0  0  0  0  0  0  0  0  0  0  0
  -12.5822    6.3633   -4.0571 C   0  0  0  0  0  0  0  0  0  0  0  0
  -11.8093    5.9275   -3.0171 C   0  0  0  0  0  0  0  0  0  0  0  0
  -12.2776    6.0369   -1.6912 C   0  0  0  0  0  0  0  0  0  0  0  0
  -11.0329    5.2291    1.6697 C   0  0  0  0  0  0  0  0  0  0  0  0
  -11.1568    5.2253    3.0384 C   0  0  0  0  0  0  0  0  0  0  0  0
  -12.3165    5.6195    3.7354 C   0  0  0  0  0  0  0  0  0  0  0  0
  -13.2329    5.8988    4.3695 N   0  0  0  0  0  0  0  0  0  0  0  0
  -10.1506    4.8539    3.9518 C   0  0  0  0  0  0  0  0  0  0  0  0
   -9.3762    4.6031    4.7642 N   0  0  0  0  0  0  0  0  0  0  0  0
    9.1078   -2.4479   -0.1344 H   0  0  0  0  0  0  0  0  0  0  0  0
    6.4442   -5.5154    4.5215 H   0  0  0  0  0  0  0  0  0  0  0  0
   11.2160   -6.2947    3.0049 H   0  0  0  0  0  0  0  0  0  0  0  0
    9.9087   -9.1516    4.3327 H   0  0  0  0  0  0  0  0  0  0  0  0
   11.5337   -8.0842    6.1503 H   0  0  0  0  0  0  0  0  0  0  0  0
   10.6307  -10.3711    7.0772 H   0  0  0  0  0  0  0  0  0  0  0  0
    8.1230  -10.0081    7.8768 H   0  0  0  0  0  0  0  0  0  0  0  0
    7.4811   -7.4982    7.4422 H   0  0  0  0  0  0  0  0  0  0  0  0
   10.0183   -7.1135    8.0924 H   0  0  0  0  0  0  0  0  0  0  0  0
    9.6788   -6.1944    6.6084 H   0  0  0  0  0  0  0  0  0  0  0  0
    7.4467   -8.7943    5.1157 H   0  0  0  0  0  0  0  0  0  0  0  0
    7.6130   -0.4499   -2.7288 H   0  0  0  0  0  0  0  0  0  0  0  0
    8.2755    0.3260   -4.9374 H   0  0  0  0  0  0  0  0  0  0  0  0
   10.4438    0.2446   -6.2605 H   0  0  0  0  0  0  0  0  0  0  0  0
    9.0678    1.1893   -6.9106 H   0  0  0  0  0  0  0  0  0  0  0  0
   10.3349    0.5883   -8.0034 H   0  0  0  0  0  0  0  0  0  0  0  0
    8.2434   -3.7018   -6.3734 H   0  0  0  0  0  0  0  0  0  0  0  0
    7.5553   -4.4879   -4.1422 H   0  0  0  0  0  0  0  0  0  0  0  0
    9.6521   -4.0827   -2.4912 H   0  0  0  0  0  0  0  0  0  0  0  0
   10.5414   -6.1090   -1.4146 H   0  0  0  0  0  0  0  0  0  0  0  0
    8.5942   -9.6519    1.6991 H   0  0  0  0  0  0  0  0  0  0  0  0
    7.3874   -8.9085    0.6280 H   0  0  0  0  0  0  0  0  0  0  0  0
    7.8257   -8.1237    2.1822 H   0  0  0  0  0  0  0  0  0  0  0  0
    6.8774   -6.5722    0.7435 H   0  0  0  0  0  0  0  0  0  0  0  0
    5.9912   -4.5819   -0.3373 H   0  0  0  0  0  0  0  0  0  0  0  0
    2.7051   -2.1255    1.3705 H   0  0  0  0  0  0  0  0  0  0  0  0
    0.8226   -3.1858    2.4893 H   0  0  0  0  0  0  0  0  0  0  0  0
   -1.4214   -4.1255    2.3546 H   0  0  0  0  0  0  0  0  0  0  0  0
   -0.6754   -4.1368    3.9867 H   0  0  0  0  0  0  0  0  0  0  0  0
   -2.4387   -4.2436    3.8080 H   0  0  0  0  0  0  0  0  0  0  0  0
   -1.3346    0.5053    2.3753 H   0  0  0  0  0  0  0  0  0  0  0  0
    0.5694    1.5769    1.2517 H   0  0  0  0  0  0  0  0  0  0  0  0
    2.3649    1.6565    3.0131 H   0  0  0  0  0  0  0  0  0  0  0  0
    3.1531    3.8886    3.6670 H   0  0  0  0  0  0  0  0  0  0  0  0
    6.5637    7.1750    1.7598 H   0  0  0  0  0  0  0  0  0  0  0  0
    6.9131    5.4836    1.3393 H   0  0  0  0  0  0  0  0  0  0  0  0
    5.7563    6.4416    0.3579 H   0  0  0  0  0  0  0  0  0  0  0  0
    5.4409    4.1346    0.0645 H   0  0  0  0  0  0  0  0  0  0  0  0
    4.6376    1.9460   -0.6002 H   0  0  0  0  0  0  0  0  0  0  0  0
    2.3411    0.4082   -4.2168 H   0  0  0  0  0  0  0  0  0  0  0  0
    4.1339    0.3093   -5.8331 H   0  0  0  0  0  0  0  0  0  0  0  0
    5.0303    1.1187   -7.8667 H   0  0  0  0  0  0  0  0  0  0  0  0
    6.7522    0.9254   -8.2618 H   0  0  0  0  0  0  0  0  0  0  0  0
    6.0166   -0.1422   -7.0507 H   0  0  0  0  0  0  0  0  0  0  0  0
    5.9958    3.6962   -4.0003 H   0  0  0  0  0  0  0  0  0  0  0  0
    4.1776    3.7805   -2.3368 H   0  0  0  0  0  0  0  0  0  0  0  0
    1.4432    3.1829    0.1698 H   0  0  0  0  0  0  0  0  0  0  0  0
    0.5978    5.4509    0.6367 H   0  0  0  0  0  0  0  0  0  0  0  0
   -0.0158    8.4809   -3.2712 H   0  0  0  0  0  0  0  0  0  0  0  0
    1.6400    8.5183   -2.5829 H   0  0  0  0  0  0  0  0  0  0  0  0
    0.4320    9.7235   -2.0816 H   0  0  0  0  0  0  0  0  0  0  0  0
    0.7986    6.3701   -3.5373 H   0  0  0  0  0  0  0  0  0  0  0  0
    1.6514    4.1307   -3.9887 H   0  0  0  0  0  0  0  0  0  0  0  0
   -5.5583   -1.3982   -2.1061 H   0  0  0  0  0  0  0  0  0  0  0  0
   -7.3380   -1.5775   -0.4411 H   0  0  0  0  0  0  0  0  0  0  0  0
   -8.5084   -3.0869    1.0914 H   0  0  0  0  0  0  0  0  0  0  0  0
   -9.0916   -1.3916    1.0632 H   0  0  0  0  0  0  0  0  0  0  0  0
   -9.4197   -2.4247    2.4691 H   0  0  0  0  0  0  0  0  0  0  0  0
   -4.4064   -1.5554    2.6808 H   0  0  0  0  0  0  0  0  0  0  0  0
   -2.6298   -1.3265    0.9907 H   0  0  0  0  0  0  0  0  0  0  0  0
   -3.9611   -3.6014   -1.8446 H   0  0  0  0  0  0  0  0  0  0  0  0
   -3.8625   -5.0370   -3.8050 H   0  0  0  0  0  0  0  0  0  0  0  0
   -4.2365   -6.0430   -7.3765 H   0  0  0  0  0  0  0  0  0  0  0  0
   -4.9423   -4.9872   -6.1267 H   0  0  0  0  0  0  0  0  0  0  0  0
   -3.9943   -6.4385   -5.6630 H   0  0  0  0  0  0  0  0  0  0  0  0
   -1.5685   -2.0779   -5.8623 H   0  0  0  0  0  0  0  0  0  0  0  0
   -1.7433   -0.5937   -3.9320 H   0  0  0  0  0  0  0  0  0  0  0  0
   -3.0500    2.0488   -4.9821 H   0  0  0  0  0  0  0  0  0  0  0  0
   -3.3932    0.1165   -6.4289 H   0  0  0  0  0  0  0  0  0  0  0  0
   -3.4138   -1.9494   -7.5689 H   0  0  0  0  0  0  0  0  0  0  0  0
   -4.7655   -2.5877   -8.5230 H   0  0  0  0  0  0  0  0  0  0  0  0
   -4.6223   -0.8301   -8.2871 H   0  0  0  0  0  0  0  0  0  0  0  0
   -6.8998   -0.9274   -4.2227 H   0  0  0  0  0  0  0  0  0  0  0  0
   -6.5586    1.0355   -2.7651 H   0  0  0  0  0  0  0  0  0  0  0  0
   -4.6908    3.8650   -5.3352 H   0  0  0  0  0  0  0  0  0  0  0  0
   -3.7479    6.0489   -5.9564 H   0  0  0  0  0  0  0  0  0  0  0  0
   -4.0563    8.9501   -3.0209 H   0  0  0  0  0  0  0  0  0  0  0  0
   -2.8195   10.1500   -3.4718 H   0  0  0  0  0  0  0  0  0  0  0  0
   -2.4572    8.9366   -2.2228 H   0  0  0  0  0  0  0  0  0  0  0  0
   -2.4495    6.6369   -1.9281 H   0  0  0  0  0  0  0  0  0  0  0  0
   -3.3751    4.4813   -1.3060 H   0  0  0  0  0  0  0  0  0  0  0  0
   -4.8519    4.1322    2.8634 H   0  0  0  0  0  0  0  0  0  0  0  0
   -2.6447    3.8446    3.8610 H   0  0  0  0  0  0  0  0  0  0  0  0
   -0.4603    2.9008    3.5816 H   0  0  0  0  0  0  0  0  0  0  0  0
    0.6037    2.5807    4.9680 H   0  0  0  0  0  0  0  0  0  0  0  0
   -0.6897    3.7854    5.1254 H   0  0  0  0  0  0  0  0  0  0  0  0
   -3.7473   -0.0783    5.1613 H   0  0  0  0  0  0  0  0  0  0  0  0
   -5.9836    0.2215    4.1637 H   0  0  0  0  0  0  0  0  0  0  0  0
   -8.8638    1.1668    1.5743 H   0  0  0  0  0  0  0  0  0  0  0  0
  -10.8940    0.3707    2.6648 H   0  0  0  0  0  0  0  0  0  0  0  0
  -13.0133    1.1135    3.6365 H   0  0  0  0  0  0  0  0  0  0  0  0
  -13.8905    0.0639    4.7712 H   0  0  0  0  0  0  0  0  0  0  0  0
  -12.7355   -0.6590    3.6334 H   0  0  0  0  0  0  0  0  0  0  0  0
   -9.3651    1.6520    6.4475 H   0  0  0  0  0  0  0  0  0  0  0  0
   -7.3301    2.4814    5.3416 H   0  0  0  0  0  0  0  0  0  0  0  0
   -8.8306    3.9177    2.4676 H   0  0  0  0  0  0  0  0  0  0  0  0
  -13.6809    6.4059    1.9533 H   0  0  0  0  0  0  0  0  0  0  0  0
  -15.0082    7.1547    0.0391 H   0  0  0  0  0  0  0  0  0  0  0  0
  -15.3009    7.4747   -2.3615 H   0  0  0  0  0  0  0  0  0  0  0  0
  -14.4416    7.2617   -4.6587 H   0  0  0  0  0  0  0  0  0  0  0  0
  -12.2227    6.2796   -5.0720 H   0  0  0  0  0  0  0  0  0  0  0  0
  -10.8354    5.4959   -3.1862 H   0  0  0  0  0  0  0  0  0  0  0  0
  1  2  2  0  0  0  0
  2  3  1  0  0  0  0
  3  4  2  0  0  0  0
  3  5  1  0  0  0  0
  5  6  2  0  0  0  0
  6  7  1  0  0  0  0
  7  8  2  0  0  0  0
  8  9  1  0  0  0  0
  9 10  2  0  0  0  0
 10 11  1  0  0  0  0
 11 12  2  0  0  0  0
 12 13  1  0  0  0  0
 13 14  3  0  0  0  0
 12 15  1  0  0  0  0
 15 16  3  0  0  0  0
  8 17  1  0  0  0  0
 17 18  1  0  0  0  0
 18 19  1  0  0  0  0
 19 20  2  0  0  0  0
 20 21  1  0  0  0  0
 21 22  1  0  0  0  0
 21 23  1  0  0  0  0
  1 24  1  0  0  0  0
 24 25  2  0  0  0  0
 25 26  1  0  0  0  0
 26 27  1  0  0  0  0
 27 28  2  0  0  0  0
 28 29  1  0  0  0  0
 29 30  2  0  0  0  0
 30 31  1  0  0  0  0
 31 32  1  0  0  0  0
 30 33  1  0  0  0  0
 33 34  2  0  0  0  0
 26 35  1  0  0  0  0
 35 36  2  0  0  0  0
 36 37  1  0  0  0  0
 37 38  2  0  0  0  0
 38 39  1  0  0  0  0
 39 40  1  0  0  0  0
 38 41  1  0  0  0  0
 41 42  2  0  0  0  0
 25 43  1  0  0  0  0
 43 44  1  0  0  0  0
 44 45  1  0  0  0  0
 45 46  2  0  0  0  0
 46 47  1  0  0  0  0
 47 48  1  0  0  0  0
 48 49  2  0  0  0  0
 49 50  1  0  0  0  0
 50 51  2  0  0  0  0
 51 52  1  0  0  0  0
 52 53  1  0  0  0  0
 51 54  1  0  0  0  0
 54 55  2  0  0  0  0
 47 56  1  0  0  0  0
 56 57  2  0  0  0  0
 57 58  1  0  0  0  0
 58 59  2  0  0  0  0
 59 60  1  0  0  0  0
 60 61  1  0  0  0  0
 59 62  1  0  0  0  0
 62 63  2  0  0  0  0
 46 64  1  0  0  0  0
 64 65  1  0  0  0  0
 45 66  1  0  0  0  0
 66 67  2  0  0  0  0
 67 68  1  0  0  0  0
 68 69  1  0  0  0  0
 69 70  2  0  0  0  0
 70 71  1  0  0  0  0
 71 72  2  0  0  0  0
 72 73  1  0  0  0  0
 73 74  1  0  0  0  0
 72 75  1  0  0  0  0
 75 76  2  0  0  0  0
 68 77  1  0  0  0  0
 77 78  2  0  0  0  0
 78 79  1  0  0  0  0
 79 80  2  0  0  0  0
 80 81  1  0  0  0  0
 81 82  1  0  0  0  0
 80 83  1  0  0  0  0
 83 84  2  0  0  0  0
 67 85  1  0  0  0  0
 85 86  1  0  0  0  0
 86 87  1  0  0  0  0
 87 88  2  0  0  0  0
 88 89  1  0  0  0  0
 89 90  1  0  0  0  0
 90 91  2  0  0  0  0
 91 92  1  0  0  0  0
 92 93  2  0  0  0  0
 93 94  1  0  0  0  0
 94 95  1  0  0  0  0
 93 96  1  0  0  0  0
 96 97  2  0  0  0  0
 89 98  1  0  0  0  0
 98 99  2  0  0  0  0
 99100  1  0  0  0  0
100101  2  0  0  0  0
101102  1  0  0  0  0
102103  1  0  0  0  0
101104  1  0  0  0  0
104105  2  0  0  0  0
 88106  1  0  0  0  0
106107  1  0  0  0  0
 87108  1  0  0  0  0
108109  2  0  0  0  0
109110  1  0  0  0  0
110111  1  0  0  0  0
111112  2  0  0  0  0
112113  1  0  0  0  0
113114  2  0  0  0  0
114115  1  0  0  0  0
115116  1  0  0  0  0
114117  1  0  0  0  0
117118  2  0  0  0  0
110119  1  0  0  0  0
119120  2  0  0  0  0
120121  1  0  0  0  0
121122  2  0  0  0  0
122123  1  0  0  0  0
123124  1  0  0  0  0
122125  1  0  0  0  0
125126  2  0  0  0  0
109127  1  0  0  0  0
127128  1  0  0  0  0
128129  1  0  0  0  0
129130  2  0  0  0  0
130131  1  0  0  0  0
131132  1  0  0  0  0
132133  2  0  0  0  0
133134  1  0  0  0  0
134135  2  0  0  0  0
135136  1  0  0  0  0
136137  1  0  0  0  0
135138  1  0  0  0  0
138139  2  0  0  0  0
131140  1  0  0  0  0
140141  2  0  0  0  0
141142  1  0  0  0  0
142143  2  0  0  0  0
143144  1  0  0  0  0
144145  1  0  0  0  0
143146  1  0  0  0  0
146147  2  0  0  0  0
130148  1  0  0  0  0
148149  1  0  0  0  0
129150  1  0  0  0  0
150151  2  0  0  0  0
151152  1  0  0  0  0
152153  2  0  0  0  0
152154  1  0  0  0  0
154155  2  0  0  0  0
155156  1  0  0  0  0
156157  2  0  0  0  0
157158  1  0  0  0  0
158159  2  0  0  0  0
159160  1  0  0  0  0
160161  2  0  0  0  0
161162  1  0  0  0  0
162163  2  0  0  0  0
155164  1  0  0  0  0
164165  2  0  0  0  0
165166  1  0  0  0  0
166167  3  0  0  0  0
165168  1  0  0  0  0
168169  3  0  0  0  0
 11  2  1  0  0  0  0
 23 17  1  0  0  0  0
 65 24  1  0  0  0  0
107 66  1  0  0  0  0
149108  1  0  0  0  0
164151  1  0  0  0  0
 10  5  1  0  0  0  0
 22 18  1  0  0  0  0
 34 27  1  0  0  0  0
 42 35  1  0  0  0  0
 64 43  2  0  0  0  0
 76 69  1  0  0  0  0
 84 77  1  0  0  0  0
106 85  2  0  0  0  0
118111  1  0  0  0  0
126119  1  0  0  0  0
148127  2  0  0  0  0
163154  1  0  0  0  0
 23  7  1  0  0  0  0
 55 48  1  0  0  0  0
 63 56  1  0  0  0  0
 97 90  1  0  0  0  0
105 98  1  0  0  0  0
139132  1  0  0  0  0
147140  1  0  0  0  0
163158  1  0  0  0  0
  1170  1  0  0  0  0
  6171  1  0  0  0  0
  9172  1  0  0  0  0
 17173  1  0  0  0  0
 18174  1  0  0  0  0
 19175  1  0  0  0  0
 20176  1  0  0  0  0
 21177  1  0  0  0  0
 22178  1  0  0  0  0
 22179  1  0  0  0  0
 23180  1  0  0  0  0
 28181  1  0  0  0  0
 29182  1  0  0  0  0
 32183  1  0  0  0  0
 32184  1  0  0  0  0
 32185  1  0  0  0  0
 33186  1  0  0  0  0
 34187  1  0  0  0  0
 36188  1  0  0  0  0
 37189  1  0  0  0  0
 40190  1  0  0  0  0
 40191  1  0  0  0  0
 40192  1  0  0  0  0
 41193  1  0  0  0  0
 42194  1  0  0  0  0
 49195  1  0  0  0  0
 50196  1  0  0  0  0
 53197  1  0  0  0  0
 53198  1  0  0  0  0
 53199  1  0  0  0  0
 54200  1  0  0  0  0
 55201  1  0  0  0  0
 57202  1  0  0  0  0
 58203  1  0  0  0  0
 61204  1  0  0  0  0
 61205  1  0  0  0  0
 61206  1  0  0  0  0
 62207  1  0  0  0  0
 63208  1  0  0  0  0
 70209  1  0  0  0  0
 71210  1  0  0  0  0
 74211  1  0  0  0  0
 74212  1  0  0  0  0
 74213  1  0  0  0  0
 75214  1  0  0  0  0
 76215  1  0  0  0  0
 78216  1  0  0  0  0
 79217  1  0  0  0  0
 82218  1  0  0  0  0
 82219  1  0  0  0  0
 82220  1  0  0  0  0
 83221  1  0  0  0  0
 84222  1  0  0  0  0
 91223  1  0  0  0  0
 92224  1  0  0  0  0
 95225  1  0  0  0  0
 95226  1  0  0  0  0
 95227  1  0  0  0  0
 96228  1  0  0  0  0
 97229  1  0  0  0  0
 99230  1  0  0  0  0
100231  1  0  0  0  0
103232  1  0  0  0  0
103233  1  0  0  0  0
103234  1  0  0  0  0
104235  1  0  0  0  0
105236  1  0  0  0  0
112237  1  0  0  0  0
113238  1  0  0  0  0
116239  1  0  0  0  0
116240  1  0  0  0  0
116241  1  0  0  0  0
117242  1  0  0  0  0
118243  1  0  0  0  0
120244  1  0  0  0  0
121245  1  0  0  0  0
124246  1  0  0  0  0
124247  1  0  0  0  0
124248  1  0  0  0  0
125249  1  0  0  0  0
126250  1  0  0  0  0
133251  1  0  0  0  0
134252  1  0  0  0  0
137253  1  0  0  0  0
137254  1  0  0  0  0
137255  1  0  0  0  0
138256  1  0  0  0  0
139257  1  0  0  0  0
141258  1  0  0  0  0
142259  1  0  0  0  0
145260  1  0  0  0  0
145261  1  0  0  0  0
145262  1  0  0  0  0
146263  1  0  0  0  0
147264  1  0  0  0  0
150265  1  0  0  0  0
156266  1  0  0  0  0
157267  1  0  0  0  0
159268  1  0  0  0  0
160269  1  0  0  0  0
161270  1  0  0  0  0
162271  1  0  0  0  0
M  END
