192

C          2.05100       -7.50680       -0.50530
C          3.28810       -7.85220       -0.08180
C          4.33450       -6.90050        0.39140
O          4.33220       -5.69260        0.31290
C          5.35750       -7.73510        1.04510
C          6.50150       -7.28300        1.69760
C          7.27280       -8.28470        2.23450
C          6.92580       -9.64020        2.14260
C          5.79820      -10.09990        1.50800
C          5.00320       -9.09600        0.94370
C          3.74390       -9.20170        0.22040
C          3.10990      -10.36310       -0.13220
C          1.88950      -10.44690       -0.83670
N          0.90380      -10.61390       -1.40230
C          3.58950      -11.65730        0.16200
N          3.91190      -12.73940        0.37020
C          8.14680      -10.08670        2.90700
C          9.32000      -10.69420        2.09930
C          9.23210      -10.10960        0.71130
C          9.56130       -8.82720        0.79060
C          9.87960       -8.52190        2.23350
C         10.48350       -9.86670        2.66840
C          8.53640       -8.57780        3.00300
C          1.58950       -6.16430       -0.74390
C          2.30260       -5.18650       -1.41660
F          3.42010       -5.49970       -2.07840
C          1.85610       -3.86100       -1.47000
F          2.65340       -2.95670       -2.06220
C          0.67120       -3.45190       -0.87890
C         -0.18720       -4.48420       -0.38970
N         -1.47040       -4.21200       -0.10420
C         -2.25050       -5.17240        0.33270
C         -3.70140       -4.83250        0.50660
C         -4.04760       -4.44890        1.94750
C         -1.72070       -6.46440        0.60330
N         -0.48100       -6.75280        0.28660
C          0.29080       -5.81110       -0.28070
C         -2.52200       -7.59740        1.16960
C         -2.98660       -8.51880        0.03780
C          0.30410       -2.06910       -0.73690
C         -0.27560       -1.47570        0.37900
N         -0.49370       -2.07670        1.60520
C         -1.49590       -1.55310        2.43140
C         -1.26930       -1.37720        3.79640
C         -2.21090       -0.74330        4.57670
C         -3.39420       -0.27550        4.01080
S         -4.49400        0.64830        5.04500
C         -5.26920        1.77530        3.84600
C         -3.66330       -0.52810        2.67340
C         -2.71990       -1.16320        1.89040
C          0.28570       -3.14860        2.05710
C         -0.31470       -4.19280        2.75840
C          0.40540       -5.31930        3.09710
C          1.74500       -5.41790        2.74730
S          2.69100       -6.88160        3.05880
C          1.42600       -8.17760        2.87140
C          2.37830       -4.33610        2.14370
C          1.65600       -3.21350        1.80110
C         -0.53560       -0.10360        0.13860
S         -1.17140        1.18780        1.10840
C         -1.00440        2.29080       -0.24140
C         -0.32220        1.72930       -1.32030
N          0.19470        2.42220       -2.39310
C          0.31430        1.77410       -3.63110
C         -0.69690        0.93110       -4.08160
C         -0.57890        0.27140       -5.28940
C          0.55480        0.45060       -6.06950
S          0.81720       -0.32980       -7.62960
C         -0.53780       -1.53250       -7.74730
C          1.56250        1.30770       -5.62830
C          1.44740        1.96090       -4.42300
C          0.64000        3.74710       -2.25310
C          1.24000        4.18480       -1.07170
C          1.59220        5.50710       -0.91970
C          1.36480        6.42520       -1.94380
S          1.81460        8.09900       -1.62370
C          1.55690        8.94170       -3.20910
C          0.80420        5.98760       -3.13630
C          0.45220        4.66150       -3.28760
C         -0.11040        0.34340       -1.10220
S          0.62780       -0.91900       -2.02230
C         -1.51810        3.61560       -0.09840
C         -1.90950        4.43290       -1.14620
F         -2.07910        3.91900       -2.38080
C         -2.18440        5.79610       -0.96760
F         -2.42630        6.49680       -2.09010
C         -2.20450        6.39400        0.27260
C         -2.01450        5.53440        1.38490
N         -2.16220        6.01150        2.63540
C         -2.01330        5.20790        3.66060
C         -2.27920        5.80170        5.01090
C         -3.73500        5.55600        5.41670
C         -1.67660        3.83840        3.47410
N         -1.51460        3.37070        2.25990
C         -1.67840        4.17130        1.20260
C         -1.43590        2.86990        4.58930
C          0.03400        2.91290        5.01440
C         -2.39590        7.86890        0.53680
C         -1.53540        8.70490       -0.34930
C         -1.99680        9.33140       -1.43920
C         -3.34170        9.17480       -1.92420
C         -3.70530        9.58890       -3.19060
C         -5.10710        9.56380       -3.60880
O         -5.98940        8.93650       -3.05480
N         -5.43500       10.38130       -4.68810
C         -6.85250       10.49570       -5.01320
C         -7.25340        9.50910       -6.10160
C         -4.52330       11.02700       -5.46880
S         -4.99910       12.05570       -6.66960
N         -3.20160       10.77100       -5.24610
C         -2.71470       10.04430       -4.16660
O         -1.52040        9.81230       -4.10480
C         -2.20760       11.30870       -6.16850
C         -1.74270       12.69310       -5.73710
C         -4.32450        8.52080       -1.00840
C         -3.84320        8.36600        0.42860
H          1.27590       -8.25910       -0.56990
H          6.72630       -6.22960        1.75360
H          5.53980      -11.14440        1.45370
H          7.95760      -10.62410        3.83410
H          9.39750      -11.77640        2.16060
H          8.89420      -10.65760       -0.14870
H          9.55290       -8.08930        0.01000
H         10.46760       -7.62620        2.41640
H         10.59740       -9.96280        3.74740
H         11.43190      -10.08060        2.17790
H          8.60670       -8.13060        3.99270
H         -4.31340       -5.68100        0.19690
H         -3.92320       -3.98590       -0.14450
H         -5.11660       -4.26920        2.03320
H         -3.77610       -5.23810        2.64520
H         -3.52580       -3.53870        2.23190
H         -3.38200       -7.23060        1.72710
H         -1.88160       -8.16950        1.84330
H         -3.61300       -7.97820       -0.66870
H         -3.55830       -9.34930        0.44380
H         -2.12680       -8.91470       -0.49610
H         -0.33650       -1.70640        4.22910
H         -2.02680       -0.57440        5.62660
H         -4.50490        2.16460        3.17960
H         -5.70810        2.58000        4.42760
H         -6.04930        1.26310        3.29060
H         -4.59890       -0.22580        2.23100
H         -2.91880       -1.35020        0.84610
H         -1.36130       -4.13060        3.01370
H         -0.08930       -6.12370        3.61800
H          0.83580       -8.26330        3.77920
H          0.80230       -7.93990        2.01290
H          1.96580       -9.10470        2.70380
H          3.43010       -4.39460        1.91560
H          2.15080       -2.38550        1.31700
H         -1.58890        0.80450       -3.48630
H         -1.38280       -0.37040       -5.61140
H         -0.52200       -2.18760       -6.88140
H         -0.34270       -2.10530       -8.64850
H         -1.49030       -1.01840       -7.83870
H          2.44030        1.44310       -6.24100
H          2.23710        2.61240       -4.08040
H          1.42420        3.48630       -0.26930
H          2.04940        5.84580       -0.00240
H          0.50300        8.95240       -3.46980
H          1.90770        9.95760       -3.05490
H          2.15540        8.45970       -3.97640
H          0.60930        6.67340       -3.94400
H         -0.01160        4.33450       -4.20580
H         -2.10360        6.87620        4.94960
H         -1.60950        5.37490        5.75700
H         -3.93340        6.00680        6.38560
H         -4.40510        5.99830        4.68340
H         -3.94780        4.49110        5.48100
H         -2.07740        3.08610        5.44270
H         -1.66000        1.86910        4.21830
H          0.20850        2.20210        5.81770
H          0.66900        2.64900        4.17250
H          0.31440        3.90570        5.36060
H         -2.07630        8.00510        1.57600
H         -0.49240        8.78820       -0.08090
H         -1.31810        9.93210       -2.02110
H         -7.40410       10.28530       -4.09550
H         -7.04410       11.52070       -5.33510
H         -6.70660        9.71280       -7.01940
H         -7.04490        8.49160       -5.77960
H         -8.31660        9.60320       -6.30230
H         -2.65390       11.34940       -7.16300
H         -1.36750       10.61170       -6.16750
H         -2.57890       13.38800       -5.73060
H         -1.30580       12.65050       -4.74210
H         -0.99320       13.05710       -6.43350
H         -4.56290        7.54640       -1.44430
H         -5.26780        9.07160       -1.01540
H         -4.50880        7.68930        0.96580
H         -3.88540        9.34040        0.92130
