
  xtb     02082215133D
 energy: -422.835428338813 gnorm: 0.000817556659 xtb: 6.4.1 (unknown)
261288  0     0  0            999 V2000
   -2.4675    8.1123    6.9751 C   0  0  0  0  0  0  0  0  0  0  0  0
   -2.6803    6.8927    7.5231 C   0  0  0  0  0  0  0  0  0  0  0  0
   -2.8246    5.6443    6.7116 C   0  0  0  0  0  0  0  0  0  0  0  0
   -2.9030    5.5465    5.5073 O   0  0  0  0  0  0  0  0  0  0  0  0
   -3.0011    4.5529    7.6818 C   0  0  0  0  0  0  0  0  0  0  0  0
   -3.1431    3.1984    7.3834 C   0  0  0  0  0  0  0  0  0  0  0  0
   -3.3022    2.4002    8.4886 C   0  0  0  0  0  0  0  0  0  0  0  0
   -3.3148    2.9088    9.7958 C   0  0  0  0  0  0  0  0  0  0  0  0
   -3.1974    4.2434   10.1013 C   0  0  0  0  0  0  0  0  0  0  0  0
   -3.0412    5.0800    8.9885 C   0  0  0  0  0  0  0  0  0  0  0  0
   -2.9027    6.5320    8.9174 C   0  0  0  0  0  0  0  0  0  0  0  0
   -2.9463    7.3940    9.9795 C   0  0  0  0  0  0  0  0  0  0  0  0
   -2.8129    8.7958    9.8867 C   0  0  0  0  0  0  0  0  0  0  0  0
   -2.7134    9.9399    9.8925 N   0  0  0  0  0  0  0  0  0  0  0  0
   -3.1470    7.0058   11.3212 C   0  0  0  0  0  0  0  0  0  0  0  0
   -3.3082    6.7638   12.4317 N   0  0  0  0  0  0  0  0  0  0  0  0
   -3.4956    1.5416   10.4088 C   0  0  0  0  0  0  0  0  0  0  0  0
   -2.2377    0.8842   11.0174 C   0  0  0  0  0  0  0  0  0  0  0  0
   -2.6038   -0.5802   11.1021 C   0  0  0  0  0  0  0  0  0  0  0  0
   -2.6181   -1.0644    9.8667 C   0  0  0  0  0  0  0  0  0  0  0  0
   -2.2606    0.0637    8.9270 C   0  0  0  0  0  0  0  0  0  0  0  0
   -1.2858    0.8480    9.8142 C   0  0  0  0  0  0  0  0  0  0  0  0
   -3.5016    0.9790    8.9512 C   0  0  0  0  0  0  0  0  0  0  0  0
   -2.0449    8.2121    5.5880 C   0  0  0  0  0  0  0  0  0  0  0  0
   -0.9467    7.4418    5.1855 C   0  0  0  0  0  0  0  0  0  0  0  0
   -0.6908    7.3043    3.8496 C   0  0  0  0  0  0  0  0  0  0  0  0
    0.3149    6.3852    3.2088 C   0  0  0  0  0  0  0  0  0  0  0  0
    0.3844    5.0152    3.8368 C   0  0  0  0  0  0  0  0  0  0  0  0
   -0.6150    4.0792    3.9627 C   0  0  0  0  0  0  0  0  0  0  0  0
   -0.3272    2.8606    4.5638 C   0  0  0  0  0  0  0  0  0  0  0  0
    0.9541    2.5898    5.0387 C   0  0  0  0  0  0  0  0  0  0  0  0
    1.3233    1.4297    5.6503 O   0  0  0  0  0  0  0  0  0  0  0  0
    0.3523    0.4199    5.8319 C   0  0  0  0  0  0  0  0  0  0  0  0
    1.0040   -0.7166    6.6041 C   0  0  0  0  0  0  0  0  0  0  0  0
    1.9702    3.5396    4.9035 C   0  0  0  0  0  0  0  0  0  0  0  0
    1.6814    4.7456    4.2981 C   0  0  0  0  0  0  0  0  0  0  0  0
    2.5210    5.8964    3.9999 C   0  0  0  0  0  0  0  0  0  0  0  0
    3.8669    6.1132    4.2471 C   0  0  0  0  0  0  0  0  0  0  0  0
    4.4325    7.3178    3.8392 C   0  0  0  0  0  0  0  0  0  0  0  0
    5.7320    7.6823    4.0269 O   0  0  0  0  0  0  0  0  0  0  0  0
    6.6471    6.7656    4.5905 C   0  0  0  0  0  0  0  0  0  0  0  0
    7.1025    5.7004    3.5964 C   0  0  0  0  0  0  0  0  0  0  0  0
    3.6428    8.2767    3.1955 C   0  0  0  0  0  0  0  0  0  0  0  0
    2.2993    8.0572    2.9521 C   0  0  0  0  0  0  0  0  0  0  0  0
    1.7408    6.8624    3.3545 C   0  0  0  0  0  0  0  0  0  0  0  0
   -0.1970    6.3509    1.7952 C   0  0  0  0  0  0  0  0  0  0  0  0
   -1.2200    7.2952    1.6001 C   0  0  0  0  0  0  0  0  0  0  0  0
   -1.5134    7.9100    2.8815 C   0  0  0  0  0  0  0  0  0  0  0  0
   -2.5118    8.7858    3.2851 C   0  0  0  0  0  0  0  0  0  0  0  0
   -2.7609    8.9424    4.6383 C   0  0  0  0  0  0  0  0  0  0  0  0
   -1.8867    7.3255    0.3817 C   0  0  0  0  0  0  0  0  0  0  0  0
   -1.6344    6.3376   -0.5526 C   0  0  0  0  0  0  0  0  0  0  0  0
   -0.6898    5.3314   -0.3103 C   0  0  0  0  0  0  0  0  0  0  0  0
    0.0940    5.4075    0.8491 C   0  0  0  0  0  0  0  0  0  0  0  0
   -0.6716    4.0829   -1.0381 C   0  0  0  0  0  0  0  0  0  0  0  0
   -1.1336    3.7233   -2.2958 C   0  0  0  0  0  0  0  0  0  0  0  0
   -1.3717    4.6018   -3.3383 N   0  0  0  0  0  0  0  0  0  0  0  0
   -2.0711    4.1351   -4.4654 C   0  0  0  0  0  0  0  0  0  0  0  0
   -1.4911    4.2188   -5.7302 C   0  0  0  0  0  0  0  0  0  0  0  0
   -2.1074    3.6312   -6.8131 C   0  0  0  0  0  0  0  0  0  0  0  0
   -3.3105    2.9593   -6.6447 C   0  0  0  0  0  0  0  0  0  0  0  0
   -3.9998    2.0533   -8.0125 S   0  0  0  0  0  0  0  0  0  0  0  0
   -4.0818    0.4020   -7.2484 C   0  0  0  0  0  0  0  0  0  0  0  0
   -3.9463    2.9660   -5.4135 C   0  0  0  0  0  0  0  0  0  0  0  0
   -3.3271    3.5487   -4.3243 C   0  0  0  0  0  0  0  0  0  0  0  0
   -0.6971    5.8304   -3.4406 C   0  0  0  0  0  0  0  0  0  0  0  0
   -1.3466    6.9004   -4.0589 C   0  0  0  0  0  0  0  0  0  0  0  0
   -0.7404    8.1332   -4.1361 C   0  0  0  0  0  0  0  0  0  0  0  0
    0.5280    8.3316   -3.5941 C   0  0  0  0  0  0  0  0  0  0  0  0
    1.1915    9.9624   -3.7160 S   0  0  0  0  0  0  0  0  0  0  0  0
    2.6859    9.9009   -2.6873 C   0  0  0  0  0  0  0  0  0  0  0  0
    1.1919    7.2619   -3.0104 C   0  0  0  0  0  0  0  0  0  0  0  0
    0.5856    6.0229   -2.9398 C   0  0  0  0  0  0  0  0  0  0  0  0
   -1.2587    2.3104   -2.3984 C   0  0  0  0  0  0  0  0  0  0  0  0
   -1.8820    1.2056   -3.5791 S   0  0  0  0  0  0  0  0  0  0  0  0
   -1.5919   -0.1653   -2.5191 C   0  0  0  0  0  0  0  0  0  0  0  0
   -0.9990    0.2151   -1.3271 C   0  0  0  0  0  0  0  0  0  0  0  0
   -0.5337   -0.6525   -0.3126 N   0  0  0  0  0  0  0  0  0  0  0  0
    0.6290   -1.3932   -0.5649 C   0  0  0  0  0  0  0  0  0  0  0  0
    1.4749   -1.8199    0.4641 C   0  0  0  0  0  0  0  0  0  0  0  0
    2.4962   -2.7215    0.2320 C   0  0  0  0  0  0  0  0  0  0  0  0
    2.7279   -3.2048   -1.0486 C   0  0  0  0  0  0  0  0  0  0  0  0
    3.8895   -4.4802   -1.4400 S   0  0  0  0  0  0  0  0  0  0  0  0
    4.1291   -5.2994    0.1635 C   0  0  0  0  0  0  0  0  0  0  0  0
    2.0304   -2.6284   -2.1032 C   0  0  0  0  0  0  0  0  0  0  0  0
    1.0212   -1.7204   -1.8693 C   0  0  0  0  0  0  0  0  0  0  0  0
   -1.1704   -0.6139    0.9349 C   0  0  0  0  0  0  0  0  0  0  0  0
   -2.0462    0.4239    1.2703 C   0  0  0  0  0  0  0  0  0  0  0  0
   -2.6229    0.4999    2.5184 C   0  0  0  0  0  0  0  0  0  0  0  0
   -2.3733   -0.4738    3.4764 C   0  0  0  0  0  0  0  0  0  0  0  0
   -3.0809   -0.2443    5.0839 S   0  0  0  0  0  0  0  0  0  0  0  0
   -3.2117   -1.9425    5.7170 C   0  0  0  0  0  0  0  0  0  0  0  0
   -1.5927   -1.5649    3.1263 C   0  0  0  0  0  0  0  0  0  0  0  0
   -1.0240   -1.6422    1.8704 C   0  0  0  0  0  0  0  0  0  0  0  0
   -0.8373    1.6177   -1.2734 C   0  0  0  0  0  0  0  0  0  0  0  0
   -0.2252    2.6828   -0.0655 S   0  0  0  0  0  0  0  0  0  0  0  0
   -1.7727   -1.4670   -3.0737 C   0  0  0  0  0  0  0  0  0  0  0  0
   -1.8413   -2.7176   -2.4605 C   0  0  0  0  0  0  0  0  0  0  0  0
   -2.3556   -2.9863   -1.2128 N   0  0  0  0  0  0  0  0  0  0  0  0
   -3.3566   -2.2234   -0.5949 C   0  0  0  0  0  0  0  0  0  0  0  0
   -4.0961   -1.2470   -1.2557 C   0  0  0  0  0  0  0  0  0  0  0  0
   -5.0438   -0.4921   -0.5889 C   0  0  0  0  0  0  0  0  0  0  0  0
   -5.2969   -0.7111    0.7557 C   0  0  0  0  0  0  0  0  0  0  0  0
   -6.4440    0.2096    1.7283 S   0  0  0  0  0  0  0  0  0  0  0  0
   -7.0388    1.4969    0.5954 C   0  0  0  0  0  0  0  0  0  0  0  0
   -4.6114   -1.7334    1.4077 C   0  0  0  0  0  0  0  0  0  0  0  0
   -3.6568   -2.4704    0.7500 C   0  0  0  0  0  0  0  0  0  0  0  0
   -2.1062   -4.2765   -0.6731 C   0  0  0  0  0  0  0  0  0  0  0  0
   -3.1630   -5.1654   -0.4880 C   0  0  0  0  0  0  0  0  0  0  0  0
   -2.9288   -6.4190    0.0295 C   0  0  0  0  0  0  0  0  0  0  0  0
   -1.6346   -6.8071    0.3665 C   0  0  0  0  0  0  0  0  0  0  0  0
   -1.4214   -8.4342    1.0143 S   0  0  0  0  0  0  0  0  0  0  0  0
    0.2699   -8.8254    0.4789 C   0  0  0  0  0  0  0  0  0  0  0  0
   -0.5833   -5.9176    0.1991 C   0  0  0  0  0  0  0  0  0  0  0  0
   -0.8173   -4.6603   -0.3259 C   0  0  0  0  0  0  0  0  0  0  0  0
   -1.3599   -3.7220   -3.3493 C   0  0  0  0  0  0  0  0  0  0  0  0
   -0.7635   -5.3287   -3.1325 S   0  0  0  0  0  0  0  0  0  0  0  0
   -0.2165   -5.3880   -4.8126 C   0  0  0  0  0  0  0  0  0  0  0  0
   -0.6219   -4.2304   -5.5261 C   0  0  0  0  0  0  0  0  0  0  0  0
   -0.4865   -4.0256   -6.8741 N   0  0  0  0  0  0  0  0  0  0  0  0
   -0.3190   -2.7048   -7.3398 C   0  0  0  0  0  0  0  0  0  0  0  0
    0.6892   -1.9028   -6.8045 C   0  0  0  0  0  0  0  0  0  0  0  0
    0.8409   -0.6037   -7.2342 C   0  0  0  0  0  0  0  0  0  0  0  0
   -0.0063   -0.0783   -8.2091 C   0  0  0  0  0  0  0  0  0  0  0  0
    0.2725    1.5969   -8.6711 S   0  0  0  0  0  0  0  0  0  0  0  0
   -0.8592    1.8643  -10.0664 C   0  0  0  0  0  0  0  0  0  0  0  0
   -1.0030   -0.8796   -8.7529 C   0  0  0  0  0  0  0  0  0  0  0  0
   -1.1552   -2.1823   -8.3206 C   0  0  0  0  0  0  0  0  0  0  0  0
   -0.7772   -5.0345   -7.8089 C   0  0  0  0  0  0  0  0  0  0  0  0
   -0.1441   -5.0245   -9.0486 C   0  0  0  0  0  0  0  0  0  0  0  0
   -0.4281   -5.9955   -9.9850 C   0  0  0  0  0  0  0  0  0  0  0  0
   -1.3392   -7.0017   -9.6896 C   0  0  0  0  0  0  0  0  0  0  0  0
   -1.7046   -8.3076  -10.8160 S   0  0  0  0  0  0  0  0  0  0  0  0
   -0.1158   -8.4995  -11.6786 C   0  0  0  0  0  0  0  0  0  0  0  0
   -1.9971   -6.9957   -8.4637 C   0  0  0  0  0  0  0  0  0  0  0  0
   -1.7237   -6.0198   -7.5315 C   0  0  0  0  0  0  0  0  0  0  0  0
   -1.1439   -3.2703   -4.6464 C   0  0  0  0  0  0  0  0  0  0  0  0
   -1.4942   -1.5840   -4.8145 S   0  0  0  0  0  0  0  0  0  0  0  0
    0.6977   -6.3131   -5.3209 C   0  0  0  0  0  0  0  0  0  0  0  0
    1.5076   -7.1999   -4.6424 C   0  0  0  0  0  0  0  0  0  0  0  0
    1.5202   -7.4477   -3.2001 C   0  0  0  0  0  0  0  0  0  0  0  0
    0.6398   -7.2028   -2.3886 O   0  0  0  0  0  0  0  0  0  0  0  0
    2.8047   -8.1066   -2.9009 C   0  0  0  0  0  0  0  0  0  0  0  0
    3.3239   -8.4270   -1.6488 C   0  0  0  0  0  0  0  0  0  0  0  0
    4.5700   -9.0052   -1.6885 C   0  0  0  0  0  0  0  0  0  0  0  0
    5.2512   -9.2492   -2.8867 C   0  0  0  0  0  0  0  0  0  0  0  0
    4.7453   -8.9510   -4.1300 C   0  0  0  0  0  0  0  0  0  0  0  0
    3.4786   -8.3624   -4.1101 C   0  0  0  0  0  0  0  0  0  0  0  0
    2.6342   -7.9032   -5.2137 C   0  0  0  0  0  0  0  0  0  0  0  0
    2.8714   -8.1705   -6.5385 C   0  0  0  0  0  0  0  0  0  0  0  0
    2.0160   -7.8672   -7.6132 C   0  0  0  0  0  0  0  0  0  0  0  0
    1.3916   -7.7074   -8.5648 N   0  0  0  0  0  0  0  0  0  0  0  0
    3.9926   -8.8742   -7.0242 C   0  0  0  0  0  0  0  0  0  0  0  0
    4.8759   -9.4331   -7.5008 N   0  0  0  0  0  0  0  0  0  0  0  0
    6.4525   -9.8266   -2.1808 C   0  0  0  0  0  0  0  0  0  0  0  0
    7.6871   -8.9084   -2.0566 C   0  0  0  0  0  0  0  0  0  0  0  0
    8.4940   -9.5404   -0.9459 C   0  0  0  0  0  0  0  0  0  0  0  0
    7.8495   -9.3243    0.1935 C   0  0  0  0  0  0  0  0  0  0  0  0
    6.5976   -8.5402   -0.1283 C   0  0  0  0  0  0  0  0  0  0  0  0
    7.1061   -7.7012   -1.3083 C   0  0  0  0  0  0  0  0  0  0  0  0
    5.6896   -9.5632   -0.8427 C   0  0  0  0  0  0  0  0  0  0  0  0
   -2.5973    9.0218    7.5461 H   0  0  0  0  0  0  0  0  0  0  0  0
   -3.1272    2.8474    6.3638 H   0  0  0  0  0  0  0  0  0  0  0  0
   -3.2297    4.6192   11.1104 H   0  0  0  0  0  0  0  0  0  0  0  0
   -4.3827    1.4101   11.0254 H   0  0  0  0  0  0  0  0  0  0  0  0
   -1.8762    1.3512   11.9295 H   0  0  0  0  0  0  0  0  0  0  0  0
   -2.8618   -1.0821   12.0161 H   0  0  0  0  0  0  0  0  0  0  0  0
   -2.8902   -2.0529    9.5448 H   0  0  0  0  0  0  0  0  0  0  0  0
   -1.9261   -0.2136    7.9321 H   0  0  0  0  0  0  0  0  0  0  0  0
   -1.0233    1.8296    9.4242 H   0  0  0  0  0  0  0  0  0  0  0  0
   -0.3779    0.2857   10.0271 H   0  0  0  0  0  0  0  0  0  0  0  0
   -4.4018    0.4898    8.5844 H   0  0  0  0  0  0  0  0  0  0  0  0
   -0.3507    6.9186    5.9193 H   0  0  0  0  0  0  0  0  0  0  0  0
   -1.6135    4.2880    3.6120 H   0  0  0  0  0  0  0  0  0  0  0  0
   -1.1127    2.1270    4.6497 H   0  0  0  0  0  0  0  0  0  0  0  0
   -0.0050    0.0637    4.8554 H   0  0  0  0  0  0  0  0  0  0  0  0
   -0.5033    0.8186    6.3934 H   0  0  0  0  0  0  0  0  0  0  0  0
    1.8514   -1.1072    6.0471 H   0  0  0  0  0  0  0  0  0  0  0  0
    0.2864   -1.5158    6.7681 H   0  0  0  0  0  0  0  0  0  0  0  0
    1.3580   -0.3561    7.5659 H   0  0  0  0  0  0  0  0  0  0  0  0
    2.9554    3.3032    5.2736 H   0  0  0  0  0  0  0  0  0  0  0  0
    4.4411    5.3520    4.7504 H   0  0  0  0  0  0  0  0  0  0  0  0
    7.4999    7.3831    4.8865 H   0  0  0  0  0  0  0  0  0  0  0  0
    6.2281    6.3042    5.4934 H   0  0  0  0  0  0  0  0  0  0  0  0
    7.5469    6.1765    2.7259 H   0  0  0  0  0  0  0  0  0  0  0  0
    7.8426    5.0561    4.0632 H   0  0  0  0  0  0  0  0  0  0  0  0
    6.2637    5.0937    3.2641 H   0  0  0  0  0  0  0  0  0  0  0  0
    4.1164    9.1989    2.8982 H   0  0  0  0  0  0  0  0  0  0  0  0
    1.7032    8.8094    2.4564 H   0  0  0  0  0  0  0  0  0  0  0  0
   -3.1272    9.2949    2.5584 H   0  0  0  0  0  0  0  0  0  0  0  0
   -3.5839    9.5617    4.9643 H   0  0  0  0  0  0  0  0  0  0  0  0
   -2.6568    8.0582    0.1922 H   0  0  0  0  0  0  0  0  0  0  0  0
   -2.2373    6.2975   -1.4461 H   0  0  0  0  0  0  0  0  0  0  0  0
    0.8541    4.6637    1.0424 H   0  0  0  0  0  0  0  0  0  0  0  0
   -0.5353    4.7069   -5.8475 H   0  0  0  0  0  0  0  0  0  0  0  0
   -1.6388    3.6574   -7.7833 H   0  0  0  0  0  0  0  0  0  0  0  0
   -4.3418   -0.2921   -8.0409 H   0  0  0  0  0  0  0  0  0  0  0  0
   -4.8450    0.3844   -6.4768 H   0  0  0  0  0  0  0  0  0  0  0  0
   -3.1095    0.1526   -6.8323 H   0  0  0  0  0  0  0  0  0  0  0  0
   -4.9125    2.4992   -5.2968 H   0  0  0  0  0  0  0  0  0  0  0  0
   -3.8038    3.5362   -3.3550 H   0  0  0  0  0  0  0  0  0  0  0  0
   -2.3353    6.7569   -4.4699 H   0  0  0  0  0  0  0  0  0  0  0  0
   -1.2470    8.9625   -4.6051 H   0  0  0  0  0  0  0  0  0  0  0  0
    3.0508   10.9223   -2.6416 H   0  0  0  0  0  0  0  0  0  0  0  0
    2.4313    9.5527   -1.6906 H   0  0  0  0  0  0  0  0  0  0  0  0
    3.4351    9.2646   -3.1496 H   0  0  0  0  0  0  0  0  0  0  0  0
    2.1862    7.3740   -2.6095 H   0  0  0  0  0  0  0  0  0  0  0  0
    1.1233    5.1995   -2.4956 H   0  0  0  0  0  0  0  0  0  0  0  0
    1.3467   -1.4312    1.4618 H   0  0  0  0  0  0  0  0  0  0  0  0
    3.1070   -3.0369    1.0632 H   0  0  0  0  0  0  0  0  0  0  0  0
    3.1615   -5.4728    0.6248 H   0  0  0  0  0  0  0  0  0  0  0  0
    4.7663   -4.6979    0.8058 H   0  0  0  0  0  0  0  0  0  0  0  0
    4.6153   -6.2439   -0.0577 H   0  0  0  0  0  0  0  0  0  0  0  0
    2.2767   -2.9106   -3.1156 H   0  0  0  0  0  0  0  0  0  0  0  0
    0.5439   -1.2707   -2.7204 H   0  0  0  0  0  0  0  0  0  0  0  0
   -2.3117    1.1774    0.5504 H   0  0  0  0  0  0  0  0  0  0  0  0
   -3.2793    1.3219    2.7577 H   0  0  0  0  0  0  0  0  0  0  0  0
   -2.2346   -2.3183    6.0083 H   0  0  0  0  0  0  0  0  0  0  0  0
   -3.8583   -1.8879    6.5871 H   0  0  0  0  0  0  0  0  0  0  0  0
   -3.6613   -2.5759    4.9585 H   0  0  0  0  0  0  0  0  0  0  0  0
   -1.4273   -2.3760    3.8186 H   0  0  0  0  0  0  0  0  0  0  0  0
   -0.4834   -2.5388    1.6129 H   0  0  0  0  0  0  0  0  0  0  0  0
   -3.9627   -1.0775   -2.3117 H   0  0  0  0  0  0  0  0  0  0  0  0
   -5.5835    0.2586   -1.1437 H   0  0  0  0  0  0  0  0  0  0  0  0
   -7.5881    1.0475   -0.2269 H   0  0  0  0  0  0  0  0  0  0  0  0
   -7.7043    2.1204    1.1843 H   0  0  0  0  0  0  0  0  0  0  0  0
   -6.2009    2.0878    0.2370 H   0  0  0  0  0  0  0  0  0  0  0  0
   -4.8362   -1.9343    2.4435 H   0  0  0  0  0  0  0  0  0  0  0  0
   -3.1361   -3.2505    1.2811 H   0  0  0  0  0  0  0  0  0  0  0  0
   -4.1643   -4.8662   -0.7615 H   0  0  0  0  0  0  0  0  0  0  0  0
   -3.7402   -7.1175    0.1631 H   0  0  0  0  0  0  0  0  0  0  0  0
    0.9898   -8.4272    1.1899 H   0  0  0  0  0  0  0  0  0  0  0  0
    0.4101   -8.4108   -0.5154 H   0  0  0  0  0  0  0  0  0  0  0  0
    0.3416   -9.9083    0.4534 H   0  0  0  0  0  0  0  0  0  0  0  0
    0.4228   -6.1950    0.4669 H   0  0  0  0  0  0  0  0  0  0  0  0
    0.0027   -3.9757   -0.4755 H   0  0  0  0  0  0  0  0  0  0  0  0
    1.3482   -2.3084   -6.0508 H   0  0  0  0  0  0  0  0  0  0  0  0
    1.6180    0.0211   -6.8216 H   0  0  0  0  0  0  0  0  0  0  0  0
   -1.8915    1.8114   -9.7294 H   0  0  0  0  0  0  0  0  0  0  0  0
   -0.6546    1.1394  -10.8485 H   0  0  0  0  0  0  0  0  0  0  0  0
   -0.6421    2.8645  -10.4291 H   0  0  0  0  0  0  0  0  0  0  0  0
   -1.6758   -0.4971   -9.5028 H   0  0  0  0  0  0  0  0  0  0  0  0
   -1.9367   -2.8001   -8.7380 H   0  0  0  0  0  0  0  0  0  0  0  0
    0.5805   -4.2552   -9.2711 H   0  0  0  0  0  0  0  0  0  0  0  0
    0.0776   -5.9720  -10.9362 H   0  0  0  0  0  0  0  0  0  0  0  0
   -0.0233   -7.7664  -12.4749 H   0  0  0  0  0  0  0  0  0  0  0  0
   -0.1198   -9.4996  -12.1005 H   0  0  0  0  0  0  0  0  0  0  0  0
    0.6828   -8.3989  -10.9504 H   0  0  0  0  0  0  0  0  0  0  0  0
   -2.7195   -7.7676   -8.2483 H   0  0  0  0  0  0  0  0  0  0  0  0
   -2.2353   -6.0217   -6.5805 H   0  0  0  0  0  0  0  0  0  0  0  0
    0.8891   -6.2120   -6.3846 H   0  0  0  0  0  0  0  0  0  0  0  0
    2.7715   -8.2244   -0.7452 H   0  0  0  0  0  0  0  0  0  0  0  0
    5.2825   -9.1465   -5.0427 H   0  0  0  0  0  0  0  0  0  0  0  0
    6.7097  -10.8515   -2.4409 H   0  0  0  0  0  0  0  0  0  0  0  0
    8.2065   -8.7155   -2.9911 H   0  0  0  0  0  0  0  0  0  0  0  0
    9.3907  -10.1100   -1.1044 H   0  0  0  0  0  0  0  0  0  0  0  0
    8.0998   -9.6766    1.1770 H   0  0  0  0  0  0  0  0  0  0  0  0
    6.1314   -8.0151    0.7024 H   0  0  0  0  0  0  0  0  0  0  0  0
    6.3243   -7.1762   -1.8550 H   0  0  0  0  0  0  0  0  0  0  0  0
    7.8771   -6.9931   -1.0087 H   0  0  0  0  0  0  0  0  0  0  0  0
    5.4315  -10.4153   -0.2162 H   0  0  0  0  0  0  0  0  0  0  0  0
  1  2  2  0  0  0  0
  2  3  1  0  0  0  0
  3  4  2  0  0  0  0
  3  5  1  0  0  0  0
  5  6  2  0  0  0  0
  6  7  1  0  0  0  0
  7  8  2  0  0  0  0
  8  9  1  0  0  0  0
  9 10  2  0  0  0  0
 10 11  1  0  0  0  0
 11 12  2  0  0  0  0
 12 13  1  0  0  0  0
 13 14  3  0  0  0  0
 12 15  1  0  0  0  0
 15 16  3  0  0  0  0
  8 17  1  0  0  0  0
 17 18  1  0  0  0  0
 18 19  1  0  0  0  0
 19 20  2  0  0  0  0
 20 21  1  0  0  0  0
 21 22  1  0  0  0  0
 21 23  1  0  0  0  0
  1 24  1  0  0  0  0
 24 25  2  0  0  0  0
 25 26  1  0  0  0  0
 26 27  1  0  0  0  0
 27 28  1  0  0  0  0
 28 29  2  0  0  0  0
 29 30  1  0  0  0  0
 30 31  2  0  0  0  0
 31 32  1  0  0  0  0
 32 33  1  0  0  0  0
 33 34  1  0  0  0  0
 31 35  1  0  0  0  0
 35 36  2  0  0  0  0
 36 37  1  0  0  0  0
 37 38  2  0  0  0  0
 38 39  1  0  0  0  0
 39 40  1  0  0  0  0
 40 41  1  0  0  0  0
 41 42  1  0  0  0  0
 39 43  2  0  0  0  0
 43 44  1  0  0  0  0
 44 45  2  0  0  0  0
 27 46  1  0  0  0  0
 46 47  2  0  0  0  0
 47 48  1  0  0  0  0
 48 49  1  0  0  0  0
 49 50  2  0  0  0  0
 47 51  1  0  0  0  0
 51 52  2  0  0  0  0
 52 53  1  0  0  0  0
 53 54  2  0  0  0  0
 53 55  1  0  0  0  0
 55 56  2  0  0  0  0
 56 57  1  0  0  0  0
 57 58  1  0  0  0  0
 58 59  2  0  0  0  0
 59 60  1  0  0  0  0
 60 61  2  0  0  0  0
 61 62  1  0  0  0  0
 62 63  1  0  0  0  0
 61 64  1  0  0  0  0
 64 65  2  0  0  0  0
 57 66  1  0  0  0  0
 66 67  2  0  0  0  0
 67 68  1  0  0  0  0
 68 69  2  0  0  0  0
 69 70  1  0  0  0  0
 70 71  1  0  0  0  0
 69 72  1  0  0  0  0
 72 73  2  0  0  0  0
 56 74  1  0  0  0  0
 74 75  1  0  0  0  0
 75 76  1  0  0  0  0
 76 77  2  0  0  0  0
 77 78  1  0  0  0  0
 78 79  1  0  0  0  0
 79 80  2  0  0  0  0
 80 81  1  0  0  0  0
 81 82  2  0  0  0  0
 82 83  1  0  0  0  0
 83 84  1  0  0  0  0
 82 85  1  0  0  0  0
 85 86  2  0  0  0  0
 78 87  1  0  0  0  0
 87 88  2  0  0  0  0
 88 89  1  0  0  0  0
 89 90  2  0  0  0  0
 90 91  1  0  0  0  0
 91 92  1  0  0  0  0
 90 93  1  0  0  0  0
 93 94  2  0  0  0  0
 77 95  1  0  0  0  0
 95 96  1  0  0  0  0
 76 97  1  0  0  0  0
 97 98  2  0  0  0  0
 98 99  1  0  0  0  0
 99100  1  0  0  0  0
100101  2  0  0  0  0
101102  1  0  0  0  0
102103  2  0  0  0  0
103104  1  0  0  0  0
104105  1  0  0  0  0
103106  1  0  0  0  0
106107  2  0  0  0  0
 99108  1  0  0  0  0
108109  2  0  0  0  0
109110  1  0  0  0  0
110111  2  0  0  0  0
111112  1  0  0  0  0
112113  1  0  0  0  0
111114  1  0  0  0  0
114115  2  0  0  0  0
 98116  1  0  0  0  0
116117  1  0  0  0  0
117118  1  0  0  0  0
118119  2  0  0  0  0
119120  1  0  0  0  0
120121  1  0  0  0  0
121122  2  0  0  0  0
122123  1  0  0  0  0
123124  2  0  0  0  0
124125  1  0  0  0  0
125126  1  0  0  0  0
124127  1  0  0  0  0
127128  2  0  0  0  0
120129  1  0  0  0  0
129130  2  0  0  0  0
130131  1  0  0  0  0
131132  2  0  0  0  0
132133  1  0  0  0  0
133134  1  0  0  0  0
132135  1  0  0  0  0
135136  2  0  0  0  0
119137  1  0  0  0  0
137138  1  0  0  0  0
118139  1  0  0  0  0
139140  2  0  0  0  0
140141  1  0  0  0  0
141142  2  0  0  0  0
141143  1  0  0  0  0
143144  2  0  0  0  0
144145  1  0  0  0  0
145146  2  0  0  0  0
146147  1  0  0  0  0
147148  2  0  0  0  0
148149  1  0  0  0  0
149150  2  0  0  0  0
150151  1  0  0  0  0
151152  3  0  0  0  0
150153  1  0  0  0  0
153154  3  0  0  0  0
146155  1  0  0  0  0
155156  1  0  0  0  0
156157  1  0  0  0  0
157158  2  0  0  0  0
158159  1  0  0  0  0
159160  1  0  0  0  0
159161  1  0  0  0  0
 11  2  1  0  0  0  0
 23 17  1  0  0  0  0
 50 24  1  0  0  0  0
 96 55  1  0  0  0  0
138 97  1  0  0  0  0
149140  1  0  0  0  0
161155  1  0  0  0  0
 10  5  1  0  0  0  0
 22 18  1  0  0  0  0
 48 26  2  0  0  0  0
 65 58  1  0  0  0  0
 73 66  1  0  0  0  0
 95 74  2  0  0  0  0
107100  1  0  0  0  0
115108  1  0  0  0  0
137116  2  0  0  0  0
148143  1  0  0  0  0
160156  1  0  0  0  0
 23  7  1  0  0  0  0
 45 27  1  0  0  0  0
 54 46  1  0  0  0  0
 86 79  1  0  0  0  0
 94 87  1  0  0  0  0
128121  1  0  0  0  0
136129  1  0  0  0  0
161145  1  0  0  0  0
 36 28  1  0  0  0  0
 45 37  1  0  0  0  0
  1162  1  0  0  0  0
  6163  1  0  0  0  0
  9164  1  0  0  0  0
 17165  1  0  0  0  0
 18166  1  0  0  0  0
 19167  1  0  0  0  0
 20168  1  0  0  0  0
 21169  1  0  0  0  0
 22170  1  0  0  0  0
 22171  1  0  0  0  0
 23172  1  0  0  0  0
 25173  1  0  0  0  0
 29174  1  0  0  0  0
 30175  1  0  0  0  0
 33176  1  0  0  0  0
 33177  1  0  0  0  0
 34178  1  0  0  0  0
 34179  1  0  0  0  0
 34180  1  0  0  0  0
 35181  1  0  0  0  0
 38182  1  0  0  0  0
 41183  1  0  0  0  0
 41184  1  0  0  0  0
 42185  1  0  0  0  0
 42186  1  0  0  0  0
 42187  1  0  0  0  0
 43188  1  0  0  0  0
 44189  1  0  0  0  0
 49190  1  0  0  0  0
 50191  1  0  0  0  0
 51192  1  0  0  0  0
 52193  1  0  0  0  0
 54194  1  0  0  0  0
 59195  1  0  0  0  0
 60196  1  0  0  0  0
 63197  1  0  0  0  0
 63198  1  0  0  0  0
 63199  1  0  0  0  0
 64200  1  0  0  0  0
 65201  1  0  0  0  0
 67202  1  0  0  0  0
 68203  1  0  0  0  0
 71204  1  0  0  0  0
 71205  1  0  0  0  0
 71206  1  0  0  0  0
 72207  1  0  0  0  0
 73208  1  0  0  0  0
 80209  1  0  0  0  0
 81210  1  0  0  0  0
 84211  1  0  0  0  0
 84212  1  0  0  0  0
 84213  1  0  0  0  0
 85214  1  0  0  0  0
 86215  1  0  0  0  0
 88216  1  0  0  0  0
 89217  1  0  0  0  0
 92218  1  0  0  0  0
 92219  1  0  0  0  0
 92220  1  0  0  0  0
 93221  1  0  0  0  0
 94222  1  0  0  0  0
101223  1  0  0  0  0
102224  1  0  0  0  0
105225  1  0  0  0  0
105226  1  0  0  0  0
105227  1  0  0  0  0
106228  1  0  0  0  0
107229  1  0  0  0  0
109230  1  0  0  0  0
110231  1  0  0  0  0
113232  1  0  0  0  0
113233  1  0  0  0  0
113234  1  0  0  0  0
114235  1  0  0  0  0
115236  1  0  0  0  0
122237  1  0  0  0  0
123238  1  0  0  0  0
126239  1  0  0  0  0
126240  1  0  0  0  0
126241  1  0  0  0  0
127242  1  0  0  0  0
128243  1  0  0  0  0
130244  1  0  0  0  0
131245  1  0  0  0  0
134246  1  0  0  0  0
134247  1  0  0  0  0
134248  1  0  0  0  0
135249  1  0  0  0  0
136250  1  0  0  0  0
139251  1  0  0  0  0
144252  1  0  0  0  0
147253  1  0  0  0  0
155254  1  0  0  0  0
156255  1  0  0  0  0
157256  1  0  0  0  0
158257  1  0  0  0  0
159258  1  0  0  0  0
160259  1  0  0  0  0
160260  1  0  0  0  0
161261  1  0  0  0  0
M  END
