182

C          7.03320        0.46400       -1.26810
C          7.63130        0.13770       -2.45970
C          6.97710       -0.42090       -3.64750
O          5.78150       -0.47420       -3.88500
C          8.06290       -0.93270       -4.50710
C          7.93860       -1.60400       -5.72080
C          9.13660       -1.97010       -6.28690
C         10.37290       -1.69370       -5.69040
C         10.51140       -1.03400       -4.49200
C          9.30490       -0.65170       -3.90130
C          9.06110        0.06030       -2.64980
C         10.03100        0.55590       -1.81300
C         11.41520        0.34520       -1.96650
N         12.55510        0.20150       -1.98690
C          9.80210        1.36440       -0.68370
N          9.72550        2.05030        0.23650
C         11.14830       -2.34690       -6.80690
C         11.83540       -1.42640       -7.84530
C         11.04310       -0.14290       -7.87070
C          9.87160       -0.40130       -8.43640
C          9.85070       -1.86440       -8.80400
C         11.33430       -2.07970       -9.14330
C          9.76980       -2.65280       -7.47340
C          5.69240        0.43210       -0.87700
C          5.27750        0.48790        0.47350
N          6.10400        0.43610        1.56890
C          5.71510        1.09830        2.74520
C          5.15450        2.37070        2.67990
C          4.75950        3.02700        3.82850
C          4.93170        2.42240        5.06580
S          4.46280        3.15890        6.59970
C          4.00750        4.85730        6.14440
C          5.50360        1.15270        5.13600
C          5.89100        0.49570        3.99030
C          7.30300       -0.29910        1.56110
C          7.37520       -1.52840        0.90160
C          8.58070       -2.18020        0.78880
C          9.73530       -1.63480        1.35230
S         11.24400       -2.50280        1.06790
C         12.51970       -1.27660        1.46980
C          9.64490       -0.46420        2.09240
C          8.43840        0.20270        2.18940
C          3.87570        0.54870        0.56360
S          2.77460        0.59510        1.90020
C          1.42550        0.53480        0.78820
C          1.80670        0.58400       -0.54760
N          0.94010        0.78490       -1.59810
C         -0.26860        1.48140       -1.41380
C         -0.33200        2.61640       -0.60990
C         -1.53850        3.24460       -0.36970
C         -2.70510        2.75520       -0.94420
S         -4.30680        3.43680       -0.66820
C         -3.97140        5.03790        0.12060
C         -2.63810        1.64380       -1.78360
C         -1.43610        1.01550       -2.01850
C          1.28660        0.34730       -2.88350
C          1.91450       -0.88160       -3.06530
C          2.32770       -1.27450       -4.32200
C          2.11180       -0.44400       -5.41250
S          2.67640       -0.85450       -7.03450
C          4.20220       -1.76870       -6.65480
C          1.42390        0.75390       -5.24530
C          1.01650        1.14990       -3.99120
C          3.22350        0.54140       -0.66500
S          4.32490        0.38400       -1.98860
C          0.09060        0.49400        1.32110
C         -0.28160        1.25590        2.44760
N          0.44910        2.04390        3.24570
N         -0.40920        2.50320        4.11310
C          0.00390        3.35570        5.19080
C          0.86680        2.57400        6.17520
N         -1.64600        2.11810        3.97980
C         -1.62970        1.31410        2.90690
C         -2.66740        0.60790        2.26570
C         -2.26790       -0.19020        1.21120
C         -0.93450       -0.25840        0.77180
F         -0.65820       -1.11290       -0.23320
F         -3.16700       -0.89020        0.50450
C         -4.05480        0.73480        2.70060
C         -4.63290        1.96900        2.91360
F         -3.92360        3.09230        2.72620
C         -5.98080        2.10060        3.27240
F         -6.48090        3.33700        3.41820
C         -6.81160        1.00740        3.42400
C         -6.22300       -0.28290        3.27900
N         -6.94960       -1.38150        3.53700
C         -6.42100       -2.56600        3.36850
C         -7.29060       -3.73460        3.72240
C         -7.10310       -4.10530        5.19580
C         -5.06200       -2.69600        2.95850
N         -4.31710       -1.63530        2.78910
C         -4.86070       -0.41420        2.91530
C         -4.40620       -4.01220        2.67910
C         -4.65450       -4.39740        1.21760
C         -8.19160        1.13010        3.82640
C         -9.15150        0.28460        3.39310
C         -8.99900       -0.63500        2.22450
O         -8.21630       -0.53690        1.30670
C        -10.13160       -1.57560        2.32190
C        -10.35830       -2.69850        1.52870
C        -11.51140       -3.37920        1.83520
C        -12.38150       -2.97230        2.85730
C        -12.17780       -1.86160        3.63870
C        -11.00960       -1.15020        3.34030
C        -10.47600        0.06100        3.95440
C        -11.10340        0.82870        4.89630
C        -10.56690        1.99920        5.47600
N        -10.20150        2.95170        6.00200
C        -12.39390        0.57280        5.40780
N        -13.43720        0.42580        5.86350
C        -13.33720       -4.11180        2.60610
C        -14.64830       -3.79600        1.84510
C        -14.36430       -2.58810        0.98670
C        -13.54310       -2.96560        0.01600
C        -13.25800       -4.43590        0.19960
C        -14.60310       -4.90230        0.77890
C        -12.37160       -4.56070        1.46400
H          7.71070        0.73810       -0.46990
H          6.97110       -1.80690       -6.15130
H         11.46820       -0.83180       -4.03980
H         11.77430       -3.18990       -6.52110
H         12.90980       -1.32510       -7.71750
H         11.38290        0.77910       -7.43640
H          9.03690        0.26190       -8.56900
H          9.11860       -2.16150       -9.55050
H         11.64550       -1.53780      -10.03510
H         11.61050       -3.12930       -9.23550
H          9.49770       -3.69570       -7.62550
H          5.03420        2.85200        1.72090
H          4.32550        4.00940        3.74140
H          3.12510        4.85320        5.51160
H          4.84490        5.34270        5.65230
H          3.78750        5.36200        7.08000
H          5.63360        0.68860        6.10150
H          6.32830       -0.48950        4.04960
H          6.48750       -1.94800        0.45250
H          8.64900       -3.11650        0.25660
H         13.45210       -1.69560        1.10510
H         12.57690       -1.12820        2.54430
H         12.30770       -0.34690        0.95040
H         10.51170       -0.04110        2.57200
H          8.38520        1.13640        2.72710
H          0.56890        3.00350       -0.15630
H         -1.55800        4.11110        0.27150
H         -3.56220        4.89010        1.11470
H         -3.30160        5.61950       -0.50570
H         -4.93550        5.53140        0.19300
H         -3.54520        1.26980       -2.23190
H         -1.39280        0.14230       -2.65130
H          2.06550       -1.53340       -2.21820
H          2.81660       -2.22750       -4.44220
H          4.67700       -1.29960       -5.79700
H          4.82760       -1.68670       -7.53910
H          3.97960       -2.81450       -6.45930
H          1.23710        1.37970       -6.10440
H          0.50830        2.09320       -3.85640
H          0.57070        4.18880        4.76680
H         -0.90440        3.72970        5.66520
H          1.21170        3.22640        6.97190
H          0.29500        1.76080        6.61510
H          1.72940        2.15610        5.66200
H         -8.33020       -3.44700        3.55740
H         -7.05830       -4.59070        3.08960
H         -6.06920       -4.37460        5.40140
H         -7.36960       -3.26150        5.82750
H         -7.73960       -4.94800        5.45380
H         -4.78220       -4.78970        3.34390
H         -3.33370       -3.89600        2.83730
H         -4.24910       -3.63080        0.56260
H         -4.17040       -5.34450        0.99290
H         -5.71940       -4.49240        1.01590
H         -8.40750        1.89120        4.56460
H         -9.66140       -2.97610        0.75320
H        -12.85770       -1.56020        4.41790
H        -13.49400       -4.79460        3.43870
H        -15.53280       -3.74120        2.47370
H        -14.73270       -1.60200        1.20060
H        -13.08750       -2.35760       -0.74330
H        -12.87790       -4.96340       -0.67140
H        -14.57090       -5.90750        1.19720
H        -15.41860       -4.82850        0.06120
H        -11.90310       -5.53970        1.54610
