170

C         -7.67890        3.40330        0.89850
C         -7.65980        4.66330        0.34260
C         -6.53280        5.30180       -0.33480
O         -5.42680        4.82980       -0.55640
C         -6.97400        6.66210       -0.68720
C         -6.23520        7.63930       -1.34870
C         -6.92060        8.81200       -1.55850
C         -8.24510        8.99680       -1.14300
C         -8.98490        8.03980       -0.48870
C         -8.30500        6.84100       -0.26090
C         -8.75370        5.60870        0.38870
C        -10.00660        5.40580        0.91480
C        -10.46950        4.21820        1.51630
N        -10.93370        3.29200        2.01600
C        -11.03550        6.36960        0.92630
N        -11.92270        7.09720        0.98010
C         -8.30130       10.40540       -1.67890
C         -8.18690       11.56960       -0.66430
C         -7.40900       11.03670        0.51310
C         -6.15350       10.86210        0.12300
C         -6.05960       11.27370       -1.32540
C         -7.09710       12.40740       -1.35220
C         -6.82370       10.20040       -2.13980
C         -6.74250        2.37140        0.85920
C         -6.91020        1.13680        1.53650
C         -8.06220        0.86450        2.45280
C         -7.88010        1.55980        3.80490
C         -5.86420        0.26990        1.28200
C         -4.92270        0.81450        0.39170
S         -5.25950        2.41240       -0.08800
C         -3.86860       -0.10060        0.23020
C         -4.09090       -1.22250        1.02870
C         -5.44610       -1.13340        1.69260
C         -6.42680       -2.14270        1.05060
C         -5.98570       -3.59880        1.12660
C         -5.35000       -1.31150        3.21390
C         -4.37240       -0.33190        3.85160
C         -2.99030       -2.06750        1.06770
C         -1.92870       -1.58960        0.31140
S         -2.34900       -0.13020       -0.55810
C         -0.63680       -2.17090        0.21240
C          0.60740       -1.57690       -0.00340
N          0.88210       -0.22470       -0.05460
C          2.01500        0.21610       -0.75880
C          2.33020       -0.32330       -2.00370
C          3.49450        0.03890       -2.65220
C          4.35740        0.95710       -2.07040
S          5.88280        1.44960       -2.81070
C          6.35580       -0.01620       -3.77450
C          4.01060        1.55010       -0.85850
C          2.85480        1.18300       -0.20650
C          0.12900        0.70110        0.68420
C         -0.35100        0.38740        1.95600
C         -1.21640        1.24330        2.59780
C         -1.63000        2.42720        1.98640
S         -2.86150        3.35680        2.83630
C         -3.10880        4.83080        1.80930
C         -1.08140        2.78630        0.76210
C         -0.20310        1.93300        0.12330
C          1.61580       -2.56840       -0.09570
S          3.32090       -2.50930       -0.35060
C          3.43050       -4.26650       -0.26210
C          2.19810       -4.85370        0.04820
N          1.95090       -6.18490        0.29990
C          0.68060       -6.68790       -0.04300
C          0.14680       -6.42010       -1.30380
C         -1.10930       -6.87440       -1.63430
C         -1.85880       -7.61010       -0.71690
S         -3.46150       -8.11500       -1.24670
C         -4.13300       -9.02200        0.17500
C         -1.32060       -7.89570        0.53170
C         -0.06170       -7.43580        0.86460
C          2.84440       -6.99140        1.01300
C          3.72550       -6.44680        1.94390
C          4.63690       -7.24660        2.60350
C          4.67940       -8.61200        2.35180
S          5.80870       -9.71930        3.12830
C          7.10830       -8.61970        3.75910
C          3.77330       -9.16700        1.44930
C          2.87070       -8.36960        0.78410
C          1.18000       -3.86950        0.09770
S         -0.52180       -3.91970        0.40730
C          4.69710       -4.80030       -0.58310
C          5.13860       -6.11100       -0.80740
N          6.40460       -6.23580       -1.13640
C          7.04610       -5.08620       -1.22880
S          6.00470       -3.70230       -0.88400
C          8.41040       -5.05850       -1.53680
C          9.23590       -3.97690       -1.74070
C          8.80410       -2.57920       -1.79980
O          7.68480       -2.13030       -1.60830
C          9.98960       -1.79170       -2.17400
C         10.09090       -0.44460       -2.36740
C         11.34200        0.09990       -2.73370
C         11.50480        1.48200       -2.94840
C         12.72620        1.98240       -3.30390
F         12.88170        3.29790       -3.50890
C         13.83320        1.12490       -3.45920
F         15.01870        1.64340       -3.80850
C         13.70540       -0.22110       -3.25720
C         12.46050       -0.76900       -2.88980
C         12.32190       -2.16070       -2.67450
C         11.10090       -2.66810       -2.31830
C         10.65700       -4.02930       -2.01860
C         11.47440       -5.12940       -1.96360
C         12.85560       -5.09720       -2.24610
N         13.98160       -5.13790       -2.46730
C         11.08070       -6.43120       -1.58930
N         10.85810       -7.51340       -1.27540
H         -8.57220        3.15650        1.45460
H         -5.21860        7.45170       -1.65800
H        -10.00380        8.19980       -0.17840
H         -9.05200       10.59410       -2.44380
H         -9.12790       12.06210       -0.43460
H         -7.85060       10.79430        1.46200
H         -5.33600       10.44430        0.68120
H         -5.06310       11.49820       -1.69720
H         -7.36560       12.72590       -2.35860
H         -6.79360       13.27060       -0.76180
H         -6.60960       10.25830       -3.20540
H         -8.99680        1.20200        2.00000
H         -8.14460       -0.21070        2.61150
H         -7.79720        2.63620        3.67750
H         -8.73550        1.35450        4.44310
H         -6.97960        1.20530        4.30030
H         -6.55000       -1.86740        0.00030
H         -7.39820       -2.03550        1.53630
H         -6.72870       -4.22590        0.63930
H         -5.88880       -3.93070        2.15690
H         -5.03520       -3.74290        0.61980
H         -6.34100       -1.18160        3.65010
H         -5.01950       -2.32880        3.42800
H         -4.62480        0.69590        3.60100
H         -3.36280       -0.52640        3.49890
H         -4.38640       -0.43770        4.93400
H         -2.90450       -2.96100        1.66020
H          1.65900       -1.03520       -2.46210
H          3.71920       -0.40320       -3.60940
H          6.37360       -0.88060       -3.11660
H          5.67840       -0.16030       -4.61070
H          7.35390        0.18610       -4.15160
H          4.67250        2.28280       -0.42340
H          2.60560        1.62220        0.74800
H         -0.05730       -0.53910        2.42700
H         -1.59570        1.00350        3.57890
H         -3.53810        4.55920        0.84880
H         -3.81250        5.44840        2.35990
H         -2.16790        5.36130        1.69580
H         -1.35730        3.70870        0.27850
H          0.19400        2.19800       -0.84500
H          0.72550       -5.85270       -2.01770
H         -1.52730       -6.66710       -2.60710
H         -3.51550       -9.88920        0.38940
H         -4.20630       -8.36320        1.03530
H         -5.12480       -9.34320       -0.12780
H         -1.87360       -8.46540        1.26030
H          0.34740       -7.64880        1.84100
H          3.69530       -5.38920        2.15810
H          5.30410       -6.79330        3.31870
H          6.74990       -8.06110        4.61910
H          7.92320       -9.27080        4.05970
H          7.43730       -7.95760        2.96380
H          3.80170      -10.22930        1.26390
H          2.19180       -8.80460        0.06590
H          4.53310       -6.99600       -0.75020
H          8.83190       -6.05190       -1.62690
H          9.23250        0.19720       -2.23730
H         10.66580        2.15030       -2.83240
H         14.56410       -0.86260       -3.37940
H         13.18940       -2.78800       -2.79970
