
  xtb     02092209033D
 energy: -280.990494300423 gnorm: 0.000352045055 xtb: 6.4.1 (unknown)
175193  0     0  0            999 V2000
    2.9338   -2.0794    0.8903 C   0  0  0  0  0  0  0  0  0  0  0  0
    3.3053   -3.2469    1.5248 C   0  0  0  0  0  0  0  0  0  0  0  0
    3.2038   -3.5188    2.9561 C   0  0  0  0  0  0  0  0  0  0  0  0
    2.7773   -2.7792    3.8326 O   0  0  0  0  0  0  0  0  0  0  0  0
    3.6622   -4.9035    3.1547 C   0  0  0  0  0  0  0  0  0  0  0  0
    3.7819   -5.5831    4.3638 C   0  0  0  0  0  0  0  0  0  0  0  0
    4.2536   -6.8677    4.2363 C   0  0  0  0  0  0  0  0  0  0  0  0
    4.5815   -7.4323    2.9977 C   0  0  0  0  0  0  0  0  0  0  0  0
    4.4731   -6.7681    1.7978 C   0  0  0  0  0  0  0  0  0  0  0  0
    3.9932   -5.4610    1.9039 C   0  0  0  0  0  0  0  0  0  0  0  0
    3.7716   -4.4460    0.8714 C   0  0  0  0  0  0  0  0  0  0  0  0
    3.9971   -4.6275   -0.4726 C   0  0  0  0  0  0  0  0  0  0  0  0
    4.3950   -5.8457   -1.0584 C   0  0  0  0  0  0  0  0  0  0  0  0
    4.7056   -6.8024   -1.6138 N   0  0  0  0  0  0  0  0  0  0  0  0
    3.8887   -3.6396   -1.4693 C   0  0  0  0  0  0  0  0  0  0  0  0
    3.8564   -2.8982   -2.3482 N   0  0  0  0  0  0  0  0  0  0  0  0
    4.9820   -8.7493    3.6141 C   0  0  0  0  0  0  0  0  0  0  0  0
    3.9856   -9.9299    3.5051 C   0  0  0  0  0  0  0  0  0  0  0  0
    2.6102   -9.3216    3.3894 C   0  0  0  0  0  0  0  0  0  0  0  0
    2.3037   -8.7875    4.5642 C   0  0  0  0  0  0  0  0  0  0  0  0
    3.4671   -9.0239    5.4950 C   0  0  0  0  0  0  0  0  0  0  0  0
    3.9589  -10.3835    4.9735 C   0  0  0  0  0  0  0  0  0  0  0  0
    4.6200   -8.1185    4.9956 C   0  0  0  0  0  0  0  0  0  0  0  0
    2.5661   -0.8489    1.4261 C   0  0  0  0  0  0  0  0  0  0  0  0
    2.2049    0.2728    0.6344 C   0  0  0  0  0  0  0  0  0  0  0  0
    1.9294    0.2494   -0.7022 N   0  0  0  0  0  0  0  0  0  0  0  0
    2.0474    1.4409   -1.4436 C   0  0  0  0  0  0  0  0  0  0  0  0
    3.2039    2.2145   -1.3539 C   0  0  0  0  0  0  0  0  0  0  0  0
    3.3189    3.3735   -2.0906 C   0  0  0  0  0  0  0  0  0  0  0  0
    2.2845    3.7772   -2.9308 C   0  0  0  0  0  0  0  0  0  0  0  0
    2.5021    5.2660   -3.8509 S   0  0  0  0  0  0  0  0  0  0  0  0
    1.4449    4.9937   -5.3042 C   0  0  0  0  0  0  0  0  0  0  0  0
    1.1255    3.0149   -3.0109 C   0  0  0  0  0  0  0  0  0  0  0  0
    1.0109    1.8544   -2.2763 C   0  0  0  0  0  0  0  0  0  0  0  0
    1.2785   -0.8318   -1.3312 C   0  0  0  0  0  0  0  0  0  0  0  0
    0.2504   -1.5245   -0.6927 C   0  0  0  0  0  0  0  0  0  0  0  0
   -0.4273   -2.5173   -1.3640 C   0  0  0  0  0  0  0  0  0  0  0  0
   -0.0922   -2.8368   -2.6792 C   0  0  0  0  0  0  0  0  0  0  0  0
   -1.0571   -4.0888   -3.4620 S   0  0  0  0  0  0  0  0  0  0  0  0
   -0.5485   -3.9794   -5.2005 C   0  0  0  0  0  0  0  0  0  0  0  0
    0.9482   -2.1662   -3.3062 C   0  0  0  0  0  0  0  0  0  0  0  0
    1.6230   -1.1659   -2.6365 C   0  0  0  0  0  0  0  0  0  0  0  0
    2.1005    1.4289    1.4246 C   0  0  0  0  0  0  0  0  0  0  0  0
    1.6716    3.0693    1.0826 S   0  0  0  0  0  0  0  0  0  0  0  0
    1.5834    3.4317    2.7992 C   0  0  0  0  0  0  0  0  0  0  0  0
    2.0371    2.3632    3.5784 C   0  0  0  0  0  0  0  0  0  0  0  0
    2.1785    2.3657    4.9534 N   0  0  0  0  0  0  0  0  0  0  0  0
    1.9509    1.1608    5.6444 C   0  0  0  0  0  0  0  0  0  0  0  0
    0.8260    0.3950    5.3497 C   0  0  0  0  0  0  0  0  0  0  0  0
    0.6422   -0.8360    5.9454 C   0  0  0  0  0  0  0  0  0  0  0  0
    1.5813   -1.3158    6.8474 C   0  0  0  0  0  0  0  0  0  0  0  0
    1.4418   -2.9126    7.5892 S   0  0  0  0  0  0  0  0  0  0  0  0
    0.7140   -3.8732    6.2272 C   0  0  0  0  0  0  0  0  0  0  0  0
    2.6726   -0.5261    7.1930 C   0  0  0  0  0  0  0  0  0  0  0  0
    2.8601    0.7004    6.5949 C   0  0  0  0  0  0  0  0  0  0  0  0
    2.7575    3.4417    5.6329 C   0  0  0  0  0  0  0  0  0  0  0  0
    3.7494    4.2266    5.0396 C   0  0  0  0  0  0  0  0  0  0  0  0
    4.3095    5.2771    5.7306 C   0  0  0  0  0  0  0  0  0  0  0  0
    3.9031    5.5678    7.0322 C   0  0  0  0  0  0  0  0  0  0  0  0
    4.6922    6.9413    7.8112 S   0  0  0  0  0  0  0  0  0  0  0  0
    4.0289    6.9290    9.5009 C   0  0  0  0  0  0  0  0  0  0  0  0
    2.9220    4.7867    7.6290 C   0  0  0  0  0  0  0  0  0  0  0  0
    2.3553    3.7367    6.9337 C   0  0  0  0  0  0  0  0  0  0  0  0
    2.2812    1.2139    2.7837 C   0  0  0  0  0  0  0  0  0  0  0  0
    2.6279   -0.4418    3.1442 S   0  0  0  0  0  0  0  0  0  0  0  0
    1.1448    4.7081    3.2542 C   0  0  0  0  0  0  0  0  0  0  0  0
    0.2812    5.5806    2.6742 C   0  0  0  0  0  0  0  0  0  0  0  0
   -0.6006    5.4280    1.5646 C   0  0  0  0  0  0  0  0  0  0  0  0
   -1.1852    6.4768    0.8456 C   0  0  0  0  0  0  0  0  0  0  0  0
   -0.8943    7.9188    1.1353 C   0  0  0  0  0  0  0  0  0  0  0  0
   -1.7742    8.4507    2.2700 C   0  0  0  0  0  0  0  0  0  0  0  0
   -2.0426    6.0101   -0.1513 C   0  0  0  0  0  0  0  0  0  0  0  0
   -2.1377    4.6168   -0.1681 C   0  0  0  0  0  0  0  0  0  0  0  0
   -1.1890    3.8650    1.0410 S   0  0  0  0  0  0  0  0  0  0  0  0
   -2.9697    4.2127   -1.2244 C   0  0  0  0  0  0  0  0  0  0  0  0
   -3.4654    5.3461   -1.8802 C   0  0  0  0  0  0  0  0  0  0  0  0
   -2.9072    6.6030   -1.2507 C   0  0  0  0  0  0  0  0  0  0  0  0
   -2.0792    7.3807   -2.2902 C   0  0  0  0  0  0  0  0  0  0  0  0
   -0.9129    6.5695   -2.8409 C   0  0  0  0  0  0  0  0  0  0  0  0
   -4.0029    7.4841   -0.6147 C   0  0  0  0  0  0  0  0  0  0  0  0
   -5.1296    7.8944   -1.5540 C   0  0  0  0  0  0  0  0  0  0  0  0
   -4.2746    5.0213   -2.9532 C   0  0  0  0  0  0  0  0  0  0  0  0
   -4.3786    3.6473   -3.1575 C   0  0  0  0  0  0  0  0  0  0  0  0
   -3.4667    2.7455   -1.9476 S   0  0  0  0  0  0  0  0  0  0  0  0
   -5.1641    2.9952   -4.1260 C   0  0  0  0  0  0  0  0  0  0  0  0
   -5.0409    1.7101   -4.5746 C   0  0  0  0  0  0  0  0  0  0  0  0
   -6.1976    0.9889   -5.1638 C   0  0  0  0  0  0  0  0  0  0  0  0
   -7.2526    1.4720   -5.5118 O   0  0  0  0  0  0  0  0  0  0  0  0
   -5.8005   -0.4354   -5.1817 C   0  0  0  0  0  0  0  0  0  0  0  0
   -6.5893   -1.5352   -5.5094 C   0  0  0  0  0  0  0  0  0  0  0  0
   -5.9405   -2.7434   -5.4021 C   0  0  0  0  0  0  0  0  0  0  0  0
   -4.6046   -2.8562   -4.9942 C   0  0  0  0  0  0  0  0  0  0  0  0
   -3.8149   -1.7814   -4.6627 C   0  0  0  0  0  0  0  0  0  0  0  0
   -4.4540   -0.5464   -4.7762 C   0  0  0  0  0  0  0  0  0  0  0  0
   -3.9293    0.7958   -4.5471 C   0  0  0  0  0  0  0  0  0  0  0  0
   -2.5994    1.1403   -4.6166 C   0  0  0  0  0  0  0  0  0  0  0  0
   -1.5612    0.2126   -4.8106 C   0  0  0  0  0  0  0  0  0  0  0  0
   -0.6765   -0.4978   -4.9942 N   0  0  0  0  0  0  0  0  0  0  0  0
   -2.1396    2.4675   -4.6570 C   0  0  0  0  0  0  0  0  0  0  0  0
   -1.7040    3.5288   -4.7407 N   0  0  0  0  0  0  0  0  0  0  0  0
   -4.6161   -4.3596   -5.0923 C   0  0  0  0  0  0  0  0  0  0  0  0
   -4.7096   -5.1648   -3.7740 C   0  0  0  0  0  0  0  0  0  0  0  0
   -5.4084   -4.2710   -2.7804 C   0  0  0  0  0  0  0  0  0  0  0  0
   -6.6767   -4.1639   -3.1529 C   0  0  0  0  0  0  0  0  0  0  0  0
   -6.8592   -4.9833   -4.4066 C   0  0  0  0  0  0  0  0  0  0  0  0
   -5.8591   -6.1191   -4.1350 C   0  0  0  0  0  0  0  0  0  0  0  0
   -6.1074   -4.2370   -5.5373 C   0  0  0  0  0  0  0  0  0  0  0  0
    2.9514   -2.1002   -0.1919 H   0  0  0  0  0  0  0  0  0  0  0  0
    3.5299   -5.1065    5.2984 H   0  0  0  0  0  0  0  0  0  0  0  0
    4.7387   -7.2163    0.8552 H   0  0  0  0  0  0  0  0  0  0  0  0
    6.0118   -9.0604    3.4492 H   0  0  0  0  0  0  0  0  0  0  0  0
    4.2461  -10.6724    2.7555 H   0  0  0  0  0  0  0  0  0  0  0  0
    2.0439   -9.2909    2.4770 H   0  0  0  0  0  0  0  0  0  0  0  0
    1.4291   -8.2222    4.8288 H   0  0  0  0  0  0  0  0  0  0  0  0
    3.2565   -8.9421    6.5583 H   0  0  0  0  0  0  0  0  0  0  0  0
    3.2462  -11.1871    5.1536 H   0  0  0  0  0  0  0  0  0  0  0  0
    4.9379  -10.6669    5.3577 H   0  0  0  0  0  0  0  0  0  0  0  0
    5.4151   -8.0146    5.7316 H   0  0  0  0  0  0  0  0  0  0  0  0
    4.0147    1.8898   -0.7187 H   0  0  0  0  0  0  0  0  0  0  0  0
    4.2155    3.9708   -2.0330 H   0  0  0  0  0  0  0  0  0  0  0  0
    1.6789    4.0251   -5.7351 H   0  0  0  0  0  0  0  0  0  0  0  0
    1.6974    5.7845   -6.0036 H   0  0  0  0  0  0  0  0  0  0  0  0
    0.3951    5.0556   -5.0382 H   0  0  0  0  0  0  0  0  0  0  0  0
    0.3042    3.3256   -3.6349 H   0  0  0  0  0  0  0  0  0  0  0  0
    0.1077    1.2653   -2.3383 H   0  0  0  0  0  0  0  0  0  0  0  0
   -0.0249   -1.2678    0.3198 H   0  0  0  0  0  0  0  0  0  0  0  0
   -1.2373   -3.0452   -0.8835 H   0  0  0  0  0  0  0  0  0  0  0  0
   -1.2389   -4.6095   -5.7526 H   0  0  0  0  0  0  0  0  0  0  0  0
   -0.6295   -2.9489   -5.5344 H   0  0  0  0  0  0  0  0  0  0  0  0
    0.4641   -4.3557   -5.3146 H   0  0  0  0  0  0  0  0  0  0  0  0
    1.2484   -2.4063   -4.3105 H   0  0  0  0  0  0  0  0  0  0  0  0
    2.4233   -0.6381   -3.1297 H   0  0  0  0  0  0  0  0  0  0  0  0
    0.1020    0.7656    4.6383 H   0  0  0  0  0  0  0  0  0  0  0  0
   -0.2300   -1.4189    5.6961 H   0  0  0  0  0  0  0  0  0  0  0  0
   -0.3600   -3.7166    6.1799 H   0  0  0  0  0  0  0  0  0  0  0  0
    0.9205   -4.9165    6.4457 H   0  0  0  0  0  0  0  0  0  0  0  0
    1.2003   -3.5722    5.3037 H   0  0  0  0  0  0  0  0  0  0  0  0
    3.3880   -0.8992    7.9094 H   0  0  0  0  0  0  0  0  0  0  0  0
    3.7300    1.2939    6.8345 H   0  0  0  0  0  0  0  0  0  0  0  0
    4.0796    4.0021    4.0365 H   0  0  0  0  0  0  0  0  0  0  0  0
    5.0775    5.8821    5.2737 H   0  0  0  0  0  0  0  0  0  0  0  0
    4.2492    5.9785    9.9778 H   0  0  0  0  0  0  0  0  0  0  0  0
    4.5437    7.7307   10.0212 H   0  0  0  0  0  0  0  0  0  0  0  0
    2.9610    7.1270    9.4860 H   0  0  0  0  0  0  0  0  0  0  0  0
    2.5828    4.9874    8.6323 H   0  0  0  0  0  0  0  0  0  0  0  0
    1.5901    3.1351    7.4012 H   0  0  0  0  0  0  0  0  0  0  0  0
    1.5724    5.0248    4.1973 H   0  0  0  0  0  0  0  0  0  0  0  0
    0.2123    6.5479    3.1547 H   0  0  0  0  0  0  0  0  0  0  0  0
    0.1574    8.0359    1.4021 H   0  0  0  0  0  0  0  0  0  0  0  0
   -1.0755    8.5085    0.2370 H   0  0  0  0  0  0  0  0  0  0  0  0
   -1.5541    9.4999    2.4528 H   0  0  0  0  0  0  0  0  0  0  0  0
   -2.8268    8.3559    2.0154 H   0  0  0  0  0  0  0  0  0  0  0  0
   -1.6010    7.8967    3.1894 H   0  0  0  0  0  0  0  0  0  0  0  0
   -1.7035    8.2984   -1.8342 H   0  0  0  0  0  0  0  0  0  0  0  0
   -2.7361    7.6614   -3.1147 H   0  0  0  0  0  0  0  0  0  0  0  0
   -1.2745    5.6696   -3.3331 H   0  0  0  0  0  0  0  0  0  0  0  0
   -0.2289    6.2774   -2.0469 H   0  0  0  0  0  0  0  0  0  0  0  0
   -0.3596    7.1633   -3.5645 H   0  0  0  0  0  0  0  0  0  0  0  0
   -3.5237    8.3824   -0.2224 H   0  0  0  0  0  0  0  0  0  0  0  0
   -4.4314    6.9357    0.2284 H   0  0  0  0  0  0  0  0  0  0  0  0
   -5.6959    7.0276   -1.8824 H   0  0  0  0  0  0  0  0  0  0  0  0
   -4.7473    8.4181   -2.4258 H   0  0  0  0  0  0  0  0  0  0  0  0
   -5.8096    8.5630   -1.0305 H   0  0  0  0  0  0  0  0  0  0  0  0
   -4.7477    5.7214   -3.6178 H   0  0  0  0  0  0  0  0  0  0  0  0
   -6.0234    3.5454   -4.4968 H   0  0  0  0  0  0  0  0  0  0  0  0
   -7.6158   -1.4110   -5.8173 H   0  0  0  0  0  0  0  0  0  0  0  0
   -2.7998   -1.8780   -4.3156 H   0  0  0  0  0  0  0  0  0  0  0  0
   -3.9113   -4.7965   -5.7965 H   0  0  0  0  0  0  0  0  0  0  0  0
   -3.7695   -5.5998   -3.4470 H   0  0  0  0  0  0  0  0  0  0  0  0
   -4.9081   -3.7774   -1.9682 H   0  0  0  0  0  0  0  0  0  0  0  0
   -7.4512   -3.5625   -2.7135 H   0  0  0  0  0  0  0  0  0  0  0  0
   -7.8802   -5.2636   -4.6526 H   0  0  0  0  0  0  0  0  0  0  0  0
   -6.1583   -6.7528   -3.3015 H   0  0  0  0  0  0  0  0  0  0  0  0
   -5.6538   -6.7347   -5.0097 H   0  0  0  0  0  0  0  0  0  0  0  0
   -6.3780   -4.6026   -6.5261 H   0  0  0  0  0  0  0  0  0  0  0  0
  1  2  2  0  0  0  0
  2  3  1  0  0  0  0
  3  4  2  0  0  0  0
  3  5  1  0  0  0  0
  5  6  2  0  0  0  0
  6  7  1  0  0  0  0
  7  8  2  0  0  0  0
  8  9  1  0  0  0  0
  9 10  2  0  0  0  0
 10 11  1  0  0  0  0
 11 12  2  0  0  0  0
 12 13  1  0  0  0  0
 13 14  3  0  0  0  0
 12 15  1  0  0  0  0
 15 16  3  0  0  0  0
  8 17  1  0  0  0  0
 17 18  1  0  0  0  0
 18 19  1  0  0  0  0
 19 20  2  0  0  0  0
 20 21  1  0  0  0  0
 21 22  1  0  0  0  0
 21 23  1  0  0  0  0
  1 24  1  0  0  0  0
 24 25  2  0  0  0  0
 25 26  1  0  0  0  0
 26 27  1  0  0  0  0
 27 28  2  0  0  0  0
 28 29  1  0  0  0  0
 29 30  2  0  0  0  0
 30 31  1  0  0  0  0
 31 32  1  0  0  0  0
 30 33  1  0  0  0  0
 33 34  2  0  0  0  0
 26 35  1  0  0  0  0
 35 36  2  0  0  0  0
 36 37  1  0  0  0  0
 37 38  2  0  0  0  0
 38 39  1  0  0  0  0
 39 40  1  0  0  0  0
 38 41  1  0  0  0  0
 41 42  2  0  0  0  0
 25 43  1  0  0  0  0
 43 44  1  0  0  0  0
 44 45  1  0  0  0  0
 45 46  2  0  0  0  0
 46 47  1  0  0  0  0
 47 48  1  0  0  0  0
 48 49  2  0  0  0  0
 49 50  1  0  0  0  0
 50 51  2  0  0  0  0
 51 52  1  0  0  0  0
 52 53  1  0  0  0  0
 51 54  1  0  0  0  0
 54 55  2  0  0  0  0
 47 56  1  0  0  0  0
 56 57  2  0  0  0  0
 57 58  1  0  0  0  0
 58 59  2  0  0  0  0
 59 60  1  0  0  0  0
 60 61  1  0  0  0  0
 59 62  1  0  0  0  0
 62 63  2  0  0  0  0
 46 64  1  0  0  0  0
 64 65  1  0  0  0  0
 45 66  1  0  0  0  0
 66 67  2  0  0  0  0
 67 68  1  0  0  0  0
 68 69  2  0  0  0  0
 69 70  1  0  0  0  0
 70 71  1  0  0  0  0
 69 72  1  0  0  0  0
 72 73  2  0  0  0  0
 73 74  1  0  0  0  0
 73 75  1  0  0  0  0
 75 76  2  0  0  0  0
 76 77  1  0  0  0  0
 77 78  1  0  0  0  0
 78 79  1  0  0  0  0
 77 80  1  0  0  0  0
 80 81  1  0  0  0  0
 76 82  1  0  0  0  0
 82 83  2  0  0  0  0
 83 84  1  0  0  0  0
 83 85  1  0  0  0  0
 85 86  2  0  0  0  0
 86 87  1  0  0  0  0
 87 88  2  0  0  0  0
 87 89  1  0  0  0  0
 89 90  2  0  0  0  0
 90 91  1  0  0  0  0
 91 92  2  0  0  0  0
 92 93  1  0  0  0  0
 93 94  2  0  0  0  0
 94 95  1  0  0  0  0
 95 96  2  0  0  0  0
 96 97  1  0  0  0  0
 97 98  3  0  0  0  0
 96 99  1  0  0  0  0
 99100  3  0  0  0  0
 92101  1  0  0  0  0
101102  1  0  0  0  0
102103  1  0  0  0  0
103104  2  0  0  0  0
104105  1  0  0  0  0
105106  1  0  0  0  0
105107  1  0  0  0  0
 11  2  1  0  0  0  0
 23 17  1  0  0  0  0
 65 24  1  0  0  0  0
 74 68  1  0  0  0  0
 84 75  1  0  0  0  0
 95 86  1  0  0  0  0
107101  1  0  0  0  0
 10  5  1  0  0  0  0
 22 18  1  0  0  0  0
 34 27  1  0  0  0  0
 42 35  1  0  0  0  0
 64 43  2  0  0  0  0
 77 72  1  0  0  0  0
 94 89  1  0  0  0  0
106102  1  0  0  0  0
 23  7  1  0  0  0  0
 55 48  1  0  0  0  0
 63 56  1  0  0  0  0
107 91  1  0  0  0  0
  1108  1  0  0  0  0
  6109  1  0  0  0  0
  9110  1  0  0  0  0
 17111  1  0  0  0  0
 18112  1  0  0  0  0
 19113  1  0  0  0  0
 20114  1  0  0  0  0
 21115  1  0  0  0  0
 22116  1  0  0  0  0
 22117  1  0  0  0  0
 23118  1  0  0  0  0
 28119  1  0  0  0  0
 29120  1  0  0  0  0
 32121  1  0  0  0  0
 32122  1  0  0  0  0
 32123  1  0  0  0  0
 33124  1  0  0  0  0
 34125  1  0  0  0  0
 36126  1  0  0  0  0
 37127  1  0  0  0  0
 40128  1  0  0  0  0
 40129  1  0  0  0  0
 40130  1  0  0  0  0
 41131  1  0  0  0  0
 42132  1  0  0  0  0
 49133  1  0  0  0  0
 50134  1  0  0  0  0
 53135  1  0  0  0  0
 53136  1  0  0  0  0
 53137  1  0  0  0  0
 54138  1  0  0  0  0
 55139  1  0  0  0  0
 57140  1  0  0  0  0
 58141  1  0  0  0  0
 61142  1  0  0  0  0
 61143  1  0  0  0  0
 61144  1  0  0  0  0
 62145  1  0  0  0  0
 63146  1  0  0  0  0
 66147  1  0  0  0  0
 67148  1  0  0  0  0
 70149  1  0  0  0  0
 70150  1  0  0  0  0
 71151  1  0  0  0  0
 71152  1  0  0  0  0
 71153  1  0  0  0  0
 78154  1  0  0  0  0
 78155  1  0  0  0  0
 79156  1  0  0  0  0
 79157  1  0  0  0  0
 79158  1  0  0  0  0
 80159  1  0  0  0  0
 80160  1  0  0  0  0
 81161  1  0  0  0  0
 81162  1  0  0  0  0
 81163  1  0  0  0  0
 82164  1  0  0  0  0
 85165  1  0  0  0  0
 90166  1  0  0  0  0
 93167  1  0  0  0  0
101168  1  0  0  0  0
102169  1  0  0  0  0
103170  1  0  0  0  0
104171  1  0  0  0  0
105172  1  0  0  0  0
106173  1  0  0  0  0
106174  1  0  0  0  0
107175  1  0  0  0  0
M  END
