
  xtb     02082205293D
 energy: -388.685455078142 gnorm: 0.000631877784 xtb: 6.4.1 (unknown)
224249  0     0  0            999 V2000
    7.1019    7.5809   -0.3598 C   0  0  0  0  0  0  0  0  0  0  0  0
    8.3968    7.1783   -0.5101 C   0  0  0  0  0  0  0  0  0  0  0  0
    9.5130    8.1427   -0.3432 C   0  0  0  0  0  0  0  0  0  0  0  0
    9.4240    9.3506   -0.2931 O   0  0  0  0  0  0  0  0  0  0  0  0
   10.7284    7.3131   -0.2092 C   0  0  0  0  0  0  0  0  0  0  0  0
   12.0163    7.7337    0.1165 C   0  0  0  0  0  0  0  0  0  0  0  0
   12.9312    6.7117    0.2111 C   0  0  0  0  0  0  0  0  0  0  0  0
   12.5927    5.3653    0.0199 C   0  0  0  0  0  0  0  0  0  0  0  0
   11.3290    4.9329   -0.3060 C   0  0  0  0  0  0  0  0  0  0  0  0
   10.3932    5.9614   -0.4331 C   0  0  0  0  0  0  0  0  0  0  0  0
    8.9803    5.8888   -0.7932 C   0  0  0  0  0  0  0  0  0  0  0  0
    8.4230    4.8858   -1.5466 C   0  0  0  0  0  0  0  0  0  0  0  0
    7.1162    4.9198   -2.0655 C   0  0  0  0  0  0  0  0  0  0  0  0
    6.0723    4.9124   -2.5473 N   0  0  0  0  0  0  0  0  0  0  0  0
    9.1512    3.7788   -2.0265 C   0  0  0  0  0  0  0  0  0  0  0  0
    9.6984    2.8773   -2.4810 N   0  0  0  0  0  0  0  0  0  0  0  0
   13.9986    4.8901    0.2879 C   0  0  0  0  0  0  0  0  0  0  0  0
   14.8329    4.4894   -0.9469 C   0  0  0  0  0  0  0  0  0  0  0  0
   16.2600    4.5392   -0.4514 C   0  0  0  0  0  0  0  0  0  0  0  0
   16.5830    5.8147   -0.2787 C   0  0  0  0  0  0  0  0  0  0  0  0
   15.3793    6.6484   -0.6547 C   0  0  0  0  0  0  0  0  0  0  0  0
   14.7965    5.7794   -1.7766 C   0  0  0  0  0  0  0  0  0  0  0  0
   14.3789    6.3917    0.4925 C   0  0  0  0  0  0  0  0  0  0  0  0
    5.9999    6.7428   -0.0908 C   0  0  0  0  0  0  0  0  0  0  0  0
    4.6587    6.8969   -0.4617 C   0  0  0  0  0  0  0  0  0  0  0  0
    4.1369    7.9690   -1.1367 N   0  0  0  0  0  0  0  0  0  0  0  0
    4.5779    9.2726   -0.8689 C   0  0  0  0  0  0  0  0  0  0  0  0
    4.7639   10.1812   -1.9064 C   0  0  0  0  0  0  0  0  0  0  0  0
    5.1966   11.4665   -1.6460 C   0  0  0  0  0  0  0  0  0  0  0  0
    5.4550   11.8643   -0.3399 C   0  0  0  0  0  0  0  0  0  0  0  0
    6.0027   13.4760    0.1126 S   0  0  0  0  0  0  0  0  0  0  0  0
    6.4417   14.2448   -1.4721 C   0  0  0  0  0  0  0  0  0  0  0  0
    5.2604   10.9586    0.7027 C   0  0  0  0  0  0  0  0  0  0  0  0
    4.8254    9.6790    0.4438 C   0  0  0  0  0  0  0  0  0  0  0  0
    3.1323    7.7616   -2.0983 C   0  0  0  0  0  0  0  0  0  0  0  0
    2.0588    8.6461   -2.1938 C   0  0  0  0  0  0  0  0  0  0  0  0
    1.0727    8.4332   -3.1301 C   0  0  0  0  0  0  0  0  0  0  0  0
    1.1339    7.3329   -3.9843 C   0  0  0  0  0  0  0  0  0  0  0  0
   -0.1938    7.1613   -5.1335 S   0  0  0  0  0  0  0  0  0  0  0  0
    0.1297    5.5681   -5.9406 C   0  0  0  0  0  0  0  0  0  0  0  0
    2.2097    6.4592   -3.8984 C   0  0  0  0  0  0  0  0  0  0  0  0
    3.2043    6.6747   -2.9646 C   0  0  0  0  0  0  0  0  0  0  0  0
    3.9093    5.7432   -0.1197 C   0  0  0  0  0  0  0  0  0  0  0  0
    2.2562    5.2696   -0.3311 S   0  0  0  0  0  0  0  0  0  0  0  0
    2.5741    3.7516    0.4804 C   0  0  0  0  0  0  0  0  0  0  0  0
    3.8687    3.6560    0.9571 C   0  0  0  0  0  0  0  0  0  0  0  0
    4.3182    2.6284    1.7653 N   0  0  0  0  0  0  0  0  0  0  0  0
    5.6435    2.1995    1.6586 C   0  0  0  0  0  0  0  0  0  0  0  0
    6.3649    1.8266    2.7887 C   0  0  0  0  0  0  0  0  0  0  0  0
    7.7016    1.4931    2.6908 C   0  0  0  0  0  0  0  0  0  0  0  0
    8.3358    1.5161    1.4560 C   0  0  0  0  0  0  0  0  0  0  0  0
   10.0578    1.2038    1.2195 S   0  0  0  0  0  0  0  0  0  0  0  0
   10.5827    0.4732    2.7984 C   0  0  0  0  0  0  0  0  0  0  0  0
    7.6033    1.8346    0.3153 C   0  0  0  0  0  0  0  0  0  0  0  0
    6.2736    2.1767    0.4133 C   0  0  0  0  0  0  0  0  0  0  0  0
    3.4390    2.1204    2.7375 C   0  0  0  0  0  0  0  0  0  0  0  0
    2.6370    2.9926    3.4669 C   0  0  0  0  0  0  0  0  0  0  0  0
    1.6733    2.5135    4.3323 C   0  0  0  0  0  0  0  0  0  0  0  0
    1.4949    1.1455    4.4769 C   0  0  0  0  0  0  0  0  0  0  0  0
    0.2163    0.4150    5.4495 S   0  0  0  0  0  0  0  0  0  0  0  0
   -0.6558    1.8395    6.1629 C   0  0  0  0  0  0  0  0  0  0  0  0
    2.3463    0.2700    3.8038 C   0  0  0  0  0  0  0  0  0  0  0  0
    3.3166    0.7488    2.9520 C   0  0  0  0  0  0  0  0  0  0  0  0
    4.6288    4.7869    0.5772 C   0  0  0  0  0  0  0  0  0  0  0  0
    6.2745    5.2407    0.7950 S   0  0  0  0  0  0  0  0  0  0  0  0
    1.6182    2.6758    0.5570 C   0  0  0  0  0  0  0  0  0  0  0  0
    1.8134    1.4372    0.0368 C   0  0  0  0  0  0  0  0  0  0  0  0
    0.7733    0.5194    0.3324 C   0  0  0  0  0  0  0  0  0  0  0  0
    0.6537   -0.8170   -0.0869 C   0  0  0  0  0  0  0  0  0  0  0  0
    1.6643   -1.4573   -0.9122 C   0  0  0  0  0  0  0  0  0  0  0  0
    1.2254   -2.3564   -2.3367 S   0  0  0  0  0  0  0  0  0  0  0  0
    2.8679   -2.7510   -2.7084 C   0  0  0  0  0  0  0  0  0  0  0  0
    3.2360   -3.5460   -3.9126 C   0  0  0  0  0  0  0  0  0  0  0  0
    2.9283   -2.7821   -5.2013 C   0  0  0  0  0  0  0  0  0  0  0  0
    3.6962   -2.2076   -1.7740 C   0  0  0  0  0  0  0  0  0  0  0  0
    5.0289   -2.3551   -1.7933 F   0  0  0  0  0  0  0  0  0  0  0  0
    3.0233   -1.4780   -0.7643 C   0  0  0  0  0  0  0  0  0  0  0  0
    3.6779   -0.9117    0.2587 F   0  0  0  0  0  0  0  0  0  0  0  0
   -0.5060   -1.4867    0.2844 C   0  0  0  0  0  0  0  0  0  0  0  0
   -1.5015   -0.9098    1.1104 C   0  0  0  0  0  0  0  0  0  0  0  0
   -1.3428    0.4052    1.5926 C   0  0  0  0  0  0  0  0  0  0  0  0
   -2.2659    0.9626    2.5599 C   0  0  0  0  0  0  0  0  0  0  0  0
   -2.7646    2.6287    2.5194 S   0  0  0  0  0  0  0  0  0  0  0  0
   -3.7224    2.4734    3.9542 C   0  0  0  0  0  0  0  0  0  0  0  0
   -4.4938    3.6155    4.5205 C   0  0  0  0  0  0  0  0  0  0  0  0
   -5.5616    4.1175    3.5484 C   0  0  0  0  0  0  0  0  0  0  0  0
   -3.6443    1.1970    4.4245 C   0  0  0  0  0  0  0  0  0  0  0  0
   -2.8279    0.3428    3.6463 C   0  0  0  0  0  0  0  0  0  0  0  0
   -2.6102   -0.9311    3.9911 F   0  0  0  0  0  0  0  0  0  0  0  0
   -4.2691    0.7867    5.5404 F   0  0  0  0  0  0  0  0  0  0  0  0
   -0.2361    1.1113    1.1294 C   0  0  0  0  0  0  0  0  0  0  0  0
    0.1101    2.7886    1.4407 S   0  0  0  0  0  0  0  0  0  0  0  0
   -2.6025   -1.7807    1.2887 C   0  0  0  0  0  0  0  0  0  0  0  0
   -2.4508   -2.9883    0.6696 C   0  0  0  0  0  0  0  0  0  0  0  0
   -0.9260   -3.1107   -0.1747 S   0  0  0  0  0  0  0  0  0  0  0  0
   -3.3940   -4.0568    0.6221 C   0  0  0  0  0  0  0  0  0  0  0  0
   -4.5709   -4.1444    1.3090 C   0  0  0  0  0  0  0  0  0  0  0  0
   -5.3273   -5.3004    1.0062 C   0  0  0  0  0  0  0  0  0  0  0  0
   -6.6140   -5.6331    1.4808 C   0  0  0  0  0  0  0  0  0  0  0  0
   -7.3815   -4.7460    2.3271 C   0  0  0  0  0  0  0  0  0  0  0  0
   -8.2379   -5.0852    3.3380 C   0  0  0  0  0  0  0  0  0  0  0  0
   -8.9114   -4.0211    3.9673 C   0  0  0  0  0  0  0  0  0  0  0  0
   -8.6452   -2.7813    3.4599 C   0  0  0  0  0  0  0  0  0  0  0  0
   -9.4039   -1.3108    4.0265 S   0  0  0  0  0  0  0  0  0  0  0  0
   -8.3543   -0.0308    3.2526 C   0  0  0  0  0  0  0  0  0  0  0  0
   -7.0013    0.0974    3.9223 C   0  0  0  0  0  0  0  0  0  0  0  0
   -7.4238   -2.8808    2.0339 Se  0  0  0  0  0  2  0  0  0  0  0  0
   -7.1362   -6.8492    1.0441 C   0  0  0  0  0  0  0  0  0  0  0  0
   -6.4443   -7.7045    0.1448 C   0  0  0  0  0  0  0  0  0  0  0  0
   -5.1734   -7.3473   -0.3755 C   0  0  0  0  0  0  0  0  0  0  0  0
   -4.4795   -8.1407   -1.3606 C   0  0  0  0  0  0  0  0  0  0  0  0
   -3.1232   -8.2977   -1.4915 C   0  0  0  0  0  0  0  0  0  0  0  0
   -2.6858   -9.0558   -2.5894 C   0  0  0  0  0  0  0  0  0  0  0  0
   -3.6810   -9.5222   -3.4056 C   0  0  0  0  0  0  0  0  0  0  0  0
   -3.4077  -10.4846   -4.8329 S   0  0  0  0  0  0  0  0  0  0  0  0
   -5.1346  -10.8428   -5.3268 C   0  0  0  0  0  0  0  0  0  0  0  0
   -5.1546  -11.7281   -6.5551 C   0  0  0  0  0  0  0  0  0  0  0  0
   -5.3756   -9.0073   -2.7815 Se  0  0  0  0  0  2  0  0  0  0  0  0
   -4.6489   -6.1472    0.0924 C   0  0  0  0  0  0  0  0  0  0  0  0
   -3.1328   -5.4421   -0.4082 S   0  0  0  0  0  0  0  0  0  0  0  0
   -7.1908   -8.8593   -0.1266 C   0  0  0  0  0  0  0  0  0  0  0  0
   -8.4327   -8.8949    0.4799 C   0  0  0  0  0  0  0  0  0  0  0  0
   -8.7029   -7.4798    1.4703 S   0  0  0  0  0  0  0  0  0  0  0  0
   -9.3256   -9.9622    0.2513 C   0  0  0  0  0  0  0  0  0  0  0  0
  -10.5908  -10.1781    0.7154 C   0  0  0  0  0  0  0  0  0  0  0  0
  -11.3163   -9.3432    1.6901 C   0  0  0  0  0  0  0  0  0  0  0  0
  -10.9404   -8.3073    2.2042 O   0  0  0  0  0  0  0  0  0  0  0  0
  -12.5979  -10.0245    1.9378 C   0  0  0  0  0  0  0  0  0  0  0  0
  -13.6101   -9.6114    2.8009 C   0  0  0  0  0  0  0  0  0  0  0  0
  -14.6989  -10.4489    2.8269 C   0  0  0  0  0  0  0  0  0  0  0  0
  -14.7716  -11.6183    2.0576 C   0  0  0  0  0  0  0  0  0  0  0  0
  -13.7790  -12.0387    1.2050 C   0  0  0  0  0  0  0  0  0  0  0  0
  -12.6650  -11.1952    1.1547 C   0  0  0  0  0  0  0  0  0  0  0  0
  -11.4422  -11.3002    0.3626 C   0  0  0  0  0  0  0  0  0  0  0  0
  -11.1840  -12.2674   -0.5750 C   0  0  0  0  0  0  0  0  0  0  0  0
  -10.0366  -12.3452   -1.3922 C   0  0  0  0  0  0  0  0  0  0  0  0
   -9.1489  -12.4834   -2.1091 N   0  0  0  0  0  0  0  0  0  0  0  0
  -12.0555  -13.3328   -0.8854 C   0  0  0  0  0  0  0  0  0  0  0  0
  -12.7068  -14.2267   -1.1937 N   0  0  0  0  0  0  0  0  0  0  0  0
  -16.1459  -11.9662    2.5714 C   0  0  0  0  0  0  0  0  0  0  0  0
  -17.3519  -11.6942    1.6386 C   0  0  0  0  0  0  0  0  0  0  0  0
  -16.9389  -10.5701    0.7211 C   0  0  0  0  0  0  0  0  0  0  0  0
  -16.8708   -9.4609    1.4451 C   0  0  0  0  0  0  0  0  0  0  0  0
  -17.2369   -9.8149    2.8654 C   0  0  0  0  0  0  0  0  0  0  0  0
  -18.2645  -10.9291    2.6104 C   0  0  0  0  0  0  0  0  0  0  0  0
  -16.0666  -10.6615    3.4253 C   0  0  0  0  0  0  0  0  0  0  0  0
    6.9369    8.6522   -0.3923 H   0  0  0  0  0  0  0  0  0  0  0  0
   12.2371    8.7776    0.2753 H   0  0  0  0  0  0  0  0  0  0  0  0
   11.0688    3.8937   -0.4283 H   0  0  0  0  0  0  0  0  0  0  0  0
   14.1169    4.2032    1.1238 H   0  0  0  0  0  0  0  0  0  0  0  0
   14.5126    3.5719   -1.4324 H   0  0  0  0  0  0  0  0  0  0  0  0
   16.8499    3.6687   -0.2314 H   0  0  0  0  0  0  0  0  0  0  0  0
   17.4961    6.2223    0.1145 H   0  0  0  0  0  0  0  0  0  0  0  0
   15.5604    7.6971   -0.8753 H   0  0  0  0  0  0  0  0  0  0  0  0
   13.7981    6.0736   -2.0943 H   0  0  0  0  0  0  0  0  0  0  0  0
   15.4546    5.7303   -2.6426 H   0  0  0  0  0  0  0  0  0  0  0  0
   14.7562    6.7068    1.4638 H   0  0  0  0  0  0  0  0  0  0  0  0
    4.5732    9.8729   -2.9235 H   0  0  0  0  0  0  0  0  0  0  0  0
    5.3339   12.1452   -2.4718 H   0  0  0  0  0  0  0  0  0  0  0  0
    7.1569   13.6171   -1.9950 H   0  0  0  0  0  0  0  0  0  0  0  0
    5.5503   14.4155   -2.0691 H   0  0  0  0  0  0  0  0  0  0  0  0
    6.9001   15.1955   -1.2183 H   0  0  0  0  0  0  0  0  0  0  0  0
    5.4553   11.2749    1.7156 H   0  0  0  0  0  0  0  0  0  0  0  0
    4.6761    8.9816    1.2548 H   0  0  0  0  0  0  0  0  0  0  0  0
    2.0013    9.4929   -1.5263 H   0  0  0  0  0  0  0  0  0  0  0  0
    0.2363    9.1109   -3.2062 H   0  0  0  0  0  0  0  0  0  0  0  0
    1.0438    5.6226   -6.5247 H   0  0  0  0  0  0  0  0  0  0  0  0
    0.1827    4.7814   -5.1939 H   0  0  0  0  0  0  0  0  0  0  0  0
   -0.7167    5.3970   -6.5985 H   0  0  0  0  0  0  0  0  0  0  0  0
    2.2956    5.6113   -4.5579 H   0  0  0  0  0  0  0  0  0  0  0  0
    4.0490    6.0041   -2.9152 H   0  0  0  0  0  0  0  0  0  0  0  0
    5.8784    1.8204    3.7530 H   0  0  0  0  0  0  0  0  0  0  0  0
    8.2392    1.2343    3.5888 H   0  0  0  0  0  0  0  0  0  0  0  0
    9.9421   -0.3693    3.0409 H   0  0  0  0  0  0  0  0  0  0  0  0
   11.6004    0.1304    2.6397 H   0  0  0  0  0  0  0  0  0  0  0  0
   10.5661    1.2218    3.5854 H   0  0  0  0  0  0  0  0  0  0  0  0
    8.0909    1.8059   -0.6464 H   0  0  0  0  0  0  0  0  0  0  0  0
    5.7146    2.4254   -0.4771 H   0  0  0  0  0  0  0  0  0  0  0  0
    2.7508    4.0592    3.3372 H   0  0  0  0  0  0  0  0  0  0  0  0
    1.0610    3.2197    4.8686 H   0  0  0  0  0  0  0  0  0  0  0  0
   -1.0362    2.4805    5.3721 H   0  0  0  0  0  0  0  0  0  0  0  0
    0.0062    2.3860    6.8282 H   0  0  0  0  0  0  0  0  0  0  0  0
   -1.4821    1.4210    6.7295 H   0  0  0  0  0  0  0  0  0  0  0  0
    2.2192   -0.7928    3.9412 H   0  0  0  0  0  0  0  0  0  0  0  0
    3.9629    0.0682    2.4229 H   0  0  0  0  0  0  0  0  0  0  0  0
    2.6770    1.1961   -0.5544 H   0  0  0  0  0  0  0  0  0  0  0  0
    4.3024   -3.7741   -3.8602 H   0  0  0  0  0  0  0  0  0  0  0  0
    2.6792   -4.4861   -3.9100 H   0  0  0  0  0  0  0  0  0  0  0  0
    3.2013   -3.3830   -6.0642 H   0  0  0  0  0  0  0  0  0  0  0  0
    1.8668   -2.5512   -5.2569 H   0  0  0  0  0  0  0  0  0  0  0  0
    3.4898   -1.8515   -5.2343 H   0  0  0  0  0  0  0  0  0  0  0  0
   -4.9597    3.2858    5.4515 H   0  0  0  0  0  0  0  0  0  0  0  0
   -3.8088    4.4360    4.7503 H   0  0  0  0  0  0  0  0  0  0  0  0
   -5.1012    4.4348    2.6155 H   0  0  0  0  0  0  0  0  0  0  0  0
   -6.0913    4.9614    3.9816 H   0  0  0  0  0  0  0  0  0  0  0  0
   -6.2821    3.3323    3.3317 H   0  0  0  0  0  0  0  0  0  0  0  0
   -3.4972   -1.5125    1.8174 H   0  0  0  0  0  0  0  0  0  0  0  0
   -4.8587   -3.4137    2.0440 H   0  0  0  0  0  0  0  0  0  0  0  0
   -8.3553   -6.1005    3.6754 H   0  0  0  0  0  0  0  0  0  0  0  0
   -9.5854   -4.1675    4.7933 H   0  0  0  0  0  0  0  0  0  0  0  0
   -8.2584   -0.2905    2.1932 H   0  0  0  0  0  0  0  0  0  0  0  0
   -8.9299    0.8900    3.3425 H   0  0  0  0  0  0  0  0  0  0  0  0
   -6.4615   -0.8493    3.8875 H   0  0  0  0  0  0  0  0  0  0  0  0
   -6.4068    0.8495    3.4066 H   0  0  0  0  0  0  0  0  0  0  0  0
   -7.1124    0.3881    4.9640 H   0  0  0  0  0  0  0  0  0  0  0  0
   -2.4283   -7.9111   -0.7657 H   0  0  0  0  0  0  0  0  0  0  0  0
   -1.6471   -9.2622   -2.7800 H   0  0  0  0  0  0  0  0  0  0  0  0
   -5.6215   -9.8824   -5.5200 H   0  0  0  0  0  0  0  0  0  0  0  0
   -5.6191  -11.3320   -4.4768 H   0  0  0  0  0  0  0  0  0  0  0  0
   -4.6562  -11.2375   -7.3880 H   0  0  0  0  0  0  0  0  0  0  0  0
   -4.6472  -12.6686   -6.3536 H   0  0  0  0  0  0  0  0  0  0  0  0
   -6.1833  -11.9401   -6.8371 H   0  0  0  0  0  0  0  0  0  0  0  0
   -6.8452   -9.6803   -0.7333 H   0  0  0  0  0  0  0  0  0  0  0  0
   -8.9156  -10.7089   -0.4182 H   0  0  0  0  0  0  0  0  0  0  0  0
  -13.5094   -8.7056    3.3783 H   0  0  0  0  0  0  0  0  0  0  0  0
  -13.8513  -12.9426    0.6239 H   0  0  0  0  0  0  0  0  0  0  0  0
  -16.2326  -12.9152    3.0967 H   0  0  0  0  0  0  0  0  0  0  0  0
  -17.7600  -12.5798    1.1591 H   0  0  0  0  0  0  0  0  0  0  0  0
  -16.6909  -10.7040   -0.3155 H   0  0  0  0  0  0  0  0  0  0  0  0
  -16.5539   -8.4825    1.1344 H   0  0  0  0  0  0  0  0  0  0  0  0
  -17.5415   -8.9888    3.5027 H   0  0  0  0  0  0  0  0  0  0  0  0
  -18.5199  -11.4969    3.5041 H   0  0  0  0  0  0  0  0  0  0  0  0
  -19.1730  -10.5630    2.1348 H   0  0  0  0  0  0  0  0  0  0  0  0
  -16.1052  -10.7571    4.5087 H   0  0  0  0  0  0  0  0  0  0  0  0
  1  2  2  0  0  0  0
  2  3  1  0  0  0  0
  3  4  2  0  0  0  0
  3  5  1  0  0  0  0
  5  6  2  0  0  0  0
  6  7  1  0  0  0  0
  7  8  2  0  0  0  0
  8  9  1  0  0  0  0
  9 10  2  0  0  0  0
 10 11  1  0  0  0  0
 11 12  2  0  0  0  0
 12 13  1  0  0  0  0
 13 14  3  0  0  0  0
 12 15  1  0  0  0  0
 15 16  3  0  0  0  0
  8 17  1  0  0  0  0
 17 18  1  0  0  0  0
 18 19  1  0  0  0  0
 19 20  2  0  0  0  0
 20 21  1  0  0  0  0
 21 22  1  0  0  0  0
 21 23  1  0  0  0  0
  1 24  1  0  0  0  0
 24 25  2  0  0  0  0
 25 26  1  0  0  0  0
 26 27  1  0  0  0  0
 27 28  2  0  0  0  0
 28 29  1  0  0  0  0
 29 30  2  0  0  0  0
 30 31  1  0  0  0  0
 31 32  1  0  0  0  0
 30 33  1  0  0  0  0
 33 34  2  0  0  0  0
 26 35  1  0  0  0  0
 35 36  2  0  0  0  0
 36 37  1  0  0  0  0
 37 38  2  0  0  0  0
 38 39  1  0  0  0  0
 39 40  1  0  0  0  0
 38 41  1  0  0  0  0
 41 42  2  0  0  0  0
 25 43  1  0  0  0  0
 43 44  1  0  0  0  0
 44 45  1  0  0  0  0
 45 46  2  0  0  0  0
 46 47  1  0  0  0  0
 47 48  1  0  0  0  0
 48 49  2  0  0  0  0
 49 50  1  0  0  0  0
 50 51  2  0  0  0  0
 51 52  1  0  0  0  0
 52 53  1  0  0  0  0
 51 54  1  0  0  0  0
 54 55  2  0  0  0  0
 47 56  1  0  0  0  0
 56 57  2  0  0  0  0
 57 58  1  0  0  0  0
 58 59  2  0  0  0  0
 59 60  1  0  0  0  0
 60 61  1  0  0  0  0
 59 62  1  0  0  0  0
 62 63  2  0  0  0  0
 46 64  1  0  0  0  0
 64 65  1  0  0  0  0
 45 66  1  0  0  0  0
 66 67  2  0  0  0  0
 67 68  1  0  0  0  0
 68 69  2  0  0  0  0
 69 70  1  0  0  0  0
 70 71  1  0  0  0  0
 71 72  1  0  0  0  0
 72 73  1  0  0  0  0
 73 74  1  0  0  0  0
 72 75  2  0  0  0  0
 75 76  1  0  0  0  0
 75 77  1  0  0  0  0
 77 78  1  0  0  0  0
 69 79  1  0  0  0  0
 79 80  2  0  0  0  0
 80 81  1  0  0  0  0
 81 82  1  0  0  0  0
 82 83  1  0  0  0  0
 83 84  1  0  0  0  0
 84 85  1  0  0  0  0
 85 86  1  0  0  0  0
 84 87  2  0  0  0  0
 87 88  1  0  0  0  0
 88 89  1  0  0  0  0
 87 90  1  0  0  0  0
 81 91  2  0  0  0  0
 91 92  1  0  0  0  0
 80 93  1  0  0  0  0
 93 94  2  0  0  0  0
 94 95  1  0  0  0  0
 94 96  1  0  0  0  0
 96 97  2  0  0  0  0
 97 98  1  0  0  0  0
 98 99  2  0  0  0  0
 99100  1  0  0  0  0
100101  2  0  0  0  0
101102  1  0  0  0  0
102103  2  0  0  0  0
103104  1  0  0  0  0
104105  1  0  0  0  0
105106  1  0  0  0  0
103107  1  0  0  0  0
 99108  1  0  0  0  0
108109  2  0  0  0  0
109110  1  0  0  0  0
110111  1  0  0  0  0
111112  2  0  0  0  0
112113  1  0  0  0  0
113114  2  0  0  0  0
114115  1  0  0  0  0
115116  1  0  0  0  0
116117  1  0  0  0  0
114118  1  0  0  0  0
110119  2  0  0  0  0
119120  1  0  0  0  0
109121  1  0  0  0  0
121122  2  0  0  0  0
122123  1  0  0  0  0
122124  1  0  0  0  0
124125  2  0  0  0  0
125126  1  0  0  0  0
126127  2  0  0  0  0
126128  1  0  0  0  0
128129  2  0  0  0  0
129130  1  0  0  0  0
130131  2  0  0  0  0
131132  1  0  0  0  0
132133  2  0  0  0  0
133134  1  0  0  0  0
134135  2  0  0  0  0
135136  1  0  0  0  0
136137  3  0  0  0  0
135138  1  0  0  0  0
138139  3  0  0  0  0
131140  1  0  0  0  0
140141  1  0  0  0  0
141142  1  0  0  0  0
142143  2  0  0  0  0
143144  1  0  0  0  0
144145  1  0  0  0  0
144146  1  0  0  0  0
 11  2  1  0  0  0  0
 23 17  1  0  0  0  0
 65 24  1  0  0  0  0
 92 66  1  0  0  0  0
120 96  1  0  0  0  0
134125  1  0  0  0  0
146140  1  0  0  0  0
 10  5  1  0  0  0  0
 22 18  1  0  0  0  0
 34 27  1  0  0  0  0
 42 35  1  0  0  0  0
 64 43  2  0  0  0  0
 91 68  1  0  0  0  0
119 98  1  0  0  0  0
133128  1  0  0  0  0
145141  1  0  0  0  0
 23  7  1  0  0  0  0
 55 48  1  0  0  0  0
 63 56  1  0  0  0  0
 77 70  2  0  0  0  0
 95 79  1  0  0  0  0
107100  1  0  0  0  0
123108  1  0  0  0  0
146130  1  0  0  0  0
 88 82  2  0  0  0  0
118111  1  0  0  0  0
  1147  1  0  0  0  0
  6148  1  0  0  0  0
  9149  1  0  0  0  0
 17150  1  0  0  0  0
 18151  1  0  0  0  0
 19152  1  0  0  0  0
 20153  1  0  0  0  0
 21154  1  0  0  0  0
 22155  1  0  0  0  0
 22156  1  0  0  0  0
 23157  1  0  0  0  0
 28158  1  0  0  0  0
 29159  1  0  0  0  0
 32160  1  0  0  0  0
 32161  1  0  0  0  0
 32162  1  0  0  0  0
 33163  1  0  0  0  0
 34164  1  0  0  0  0
 36165  1  0  0  0  0
 37166  1  0  0  0  0
 40167  1  0  0  0  0
 40168  1  0  0  0  0
 40169  1  0  0  0  0
 41170  1  0  0  0  0
 42171  1  0  0  0  0
 49172  1  0  0  0  0
 50173  1  0  0  0  0
 53174  1  0  0  0  0
 53175  1  0  0  0  0
 53176  1  0  0  0  0
 54177  1  0  0  0  0
 55178  1  0  0  0  0
 57179  1  0  0  0  0
 58180  1  0  0  0  0
 61181  1  0  0  0  0
 61182  1  0  0  0  0
 61183  1  0  0  0  0
 62184  1  0  0  0  0
 63185  1  0  0  0  0
 67186  1  0  0  0  0
 73187  1  0  0  0  0
 73188  1  0  0  0  0
 74189  1  0  0  0  0
 74190  1  0  0  0  0
 74191  1  0  0  0  0
 85192  1  0  0  0  0
 85193  1  0  0  0  0
 86194  1  0  0  0  0
 86195  1  0  0  0  0
 86196  1  0  0  0  0
 93197  1  0  0  0  0
 97198  1  0  0  0  0
101199  1  0  0  0  0
102200  1  0  0  0  0
105201  1  0  0  0  0
105202  1  0  0  0  0
106203  1  0  0  0  0
106204  1  0  0  0  0
106205  1  0  0  0  0
112206  1  0  0  0  0
113207  1  0  0  0  0
116208  1  0  0  0  0
116209  1  0  0  0  0
117210  1  0  0  0  0
117211  1  0  0  0  0
117212  1  0  0  0  0
121213  1  0  0  0  0
124214  1  0  0  0  0
129215  1  0  0  0  0
132216  1  0  0  0  0
140217  1  0  0  0  0
141218  1  0  0  0  0
142219  1  0  0  0  0
143220  1  0  0  0  0
144221  1  0  0  0  0
145222  1  0  0  0  0
145223  1  0  0  0  0
146224  1  0  0  0  0
M  END
