148

C         -7.12840        5.13630        3.68120
C         -8.19770        4.30510        3.49950
C         -8.08460        2.83160        3.40380
O         -7.16460        2.12630        3.76620
C         -9.29260        2.39520        2.67720
C         -9.58330        1.10320        2.24650
C        -10.76870        0.99640        1.55950
C        -11.60740        2.09250        1.31790
C        -11.33670        3.37190        1.74360
C        -10.13290        3.50240        2.44020
C         -9.50400        4.68770        3.01280
C        -10.06650        5.92910        3.15860
C         -9.43380        6.98190        3.85240
N         -8.97700        7.85650        4.43980
C        -11.34910        6.28230        2.69640
N        -12.38340        6.62390        2.33280
C        -12.60430        1.26130        0.54960
C        -12.59060        1.36620       -0.99570
C        -11.18870        1.76200       -1.38760
C        -10.39540        0.72440       -1.15680
C        -11.24700       -0.39210       -0.60480
C        -12.56070       -0.12750       -1.35740
C        -11.67090        0.03970        0.82120
C         -5.86350        4.73490        4.17290
C         -5.52970        3.91410        5.25090
C         -6.50530        3.55070        6.32530
C         -6.77790        4.76740        7.21370
C         -4.15990        3.65750        5.28430
C         -3.45810        4.28460        4.25120
S         -4.44930        5.27230        3.27180
C         -2.11790        3.84450        4.24980
C         -1.94590        2.94290        5.30050
C         -3.21530        2.80370        6.10970
C         -3.64970        1.33140        6.19450
C         -4.06780        0.76250        4.84340
C         -3.06520        3.44530        7.50700
C         -1.98450        2.81890        8.37840
C         -0.69990        2.33380        5.26760
C          0.07710        2.76280        4.19950
S         -0.73640        3.97250        3.23460
C          1.33440        2.23180        3.77410
C          1.98780        1.18780        4.41860
C          3.09610        0.55440        3.87380
C          3.63710        0.91200        2.64420
C          3.04940        2.04340        1.99980
N          3.56410        2.48680        0.84360
C          3.00310        3.50690        0.25000
C          1.88260        4.14780        0.80360
N          1.36970        3.74510        1.93610
C          1.92150        2.69750        2.56300
C          4.63870        0.15310        1.94340
C          5.59450       -0.75890        2.39920
C          5.98240       -0.96730        3.83440
C          6.46230        0.32870        4.48700
C          6.21880       -1.41570        1.33410
C          5.74190       -1.00540        0.08850
S          4.58130        0.24420        0.19530
C          6.33910       -1.77060       -0.93210
C          7.21670       -2.69440       -0.34010
C          7.27620       -2.49420        1.15930
C          8.64580       -1.91330        1.57790
C          9.83810       -2.81270        1.27980
C          6.94680       -3.80110        1.89770
C          5.51140       -4.25680        1.66240
C          7.74340       -3.56220       -1.26680
C          7.28530       -3.31480       -2.57360
S          6.18130       -1.94560       -2.62290
C          7.65320       -4.12650       -3.65140
C          7.25530       -4.09660       -4.96690
C          6.32900       -3.12900       -5.55970
O          5.81180       -2.16440       -5.02080
C          6.13050       -3.54500       -6.95820
C          5.30560       -2.93780       -7.90180
C          5.29910       -3.56710       -9.12330
C          6.05810       -4.71470       -9.38580
C          6.88420       -5.31650       -8.46550
C          6.90600       -4.69270       -7.21440
C          7.64040       -5.03930       -5.99610
C          8.53460       -6.07490       -5.88260
C          9.26140       -6.41500       -4.72370
N          9.89410       -6.76270       -3.82910
C          8.87080       -6.95930       -6.92800
N          9.19590       -7.71920       -7.72570
C          5.55070       -4.82280      -10.80290
C          4.46680       -5.88940      -11.06740
C          3.83620       -5.44900      -12.36890
C          3.12090       -4.35900      -12.12240
C          3.25590       -4.04440      -10.65010
C          3.36630       -5.46660      -10.08550
C          4.70790       -3.54000      -10.51080
H         -7.19300        6.15050        3.30140
H         -8.90930        0.28590        2.45070
H        -11.98510        4.21000        1.54720
H        -13.61410        1.23180        0.95410
H        -13.39350        1.96700       -1.41420
H        -10.91650        2.74400       -1.72770
H         -9.32810        0.66660       -1.26510
H        -10.82650       -1.39240       -0.66770
H        -13.40750       -0.68700       -0.96230
H        -12.47400       -0.29970       -2.42920
H        -12.07120       -0.78800        1.40350
H         -6.09310        2.74030        6.92470
H         -7.44260        3.20540        5.89550
H         -7.23900        5.56500        6.63500
H         -7.45000        4.49540        8.02410
H         -5.85250        5.14640        7.64230
H         -2.81190        0.75040        6.58420
H         -4.47790        1.23670        6.89870
H         -4.26480       -0.30320        4.93600
H         -4.97060        1.24520        4.47890
H         -3.27730        0.90190        4.10870
H         -4.02560        3.37470        8.02030
H         -2.83730        4.50540        7.36860
H         -1.00830        2.91480        7.91080
H         -1.95230        3.32910        9.33870
H         -2.18670        1.76700        8.56180
H         -0.37100        1.58100        5.96060
H          1.60030        0.81640        5.35440
H          3.49770       -0.29000        4.40700
H          3.44870        3.83440       -0.67870
H          1.41040        4.99490        0.32680
H          5.15070       -1.38770        4.40380
H          6.78910       -1.69840        3.87000
H          6.77980        0.13850        5.50970
H          7.30550        0.73490        3.93290
H          5.67230        1.07480        4.50230
H          8.62000       -1.69930        2.64780
H          8.77860       -0.96310        1.05460
H         10.75210       -2.32020        1.60420
H          9.76060       -3.76000        1.80660
H          9.91930       -3.00800        0.21450
H          7.11590       -3.67110        2.96800
H          7.62680       -4.57670        1.54330
H          5.32140       -4.38660        0.59940
H          4.80450       -3.52670        2.04940
H          5.33420       -5.20640        2.16170
H          8.41420       -4.37710       -1.05830
H          8.33830       -4.91740       -3.37050
H          4.73740       -2.05490       -7.65420
H          7.46390       -6.19650       -8.68780
H          6.30770       -4.78300      -11.58370
H          4.81690       -6.91670      -11.01600
H          4.01470       -5.92730      -13.31410
H          2.58270       -3.74470      -12.82030
H          2.50290       -3.39060      -10.21820
H          3.66480       -5.50680       -9.03960
H          2.44930       -6.03690      -10.22460
H          4.90560       -2.64320      -11.09510
