216

C          3.74930       -3.71100        4.98040
C          3.39730       -4.93720        5.48880
C          2.32610       -5.82100        5.00420
O          1.33840       -5.51790        4.36130
C          2.68570       -7.17810        5.45870
C          2.03590       -8.36940        5.14770
C          2.61890       -9.48440        5.70130
C          3.76610       -9.42190        6.50320
C          4.41040       -8.25120        6.82830
C          3.82970       -7.10620        6.27900
C          4.19900       -5.70060        6.41930
C          5.04750       -5.18480        7.36670
C          5.10800       -3.81880        7.69410
N          5.12160       -2.73800        8.08440
C          5.84060       -5.96360        8.23190
N          6.52190       -6.54530        8.95040
C          3.80050      -10.91560        6.70960
C          3.30930      -11.46640        8.07080
C          2.32760      -10.45620        8.61090
C          1.23630      -10.51080        7.85920
C          1.45970      -11.55970        6.79800
C          2.33820      -12.55100        7.57770
C          2.51700      -10.98410        5.82320
C          3.11650       -2.94680        3.98910
C          3.74100       -1.92790        3.23410
N          5.04890       -1.51540        3.34150
C          5.72760       -1.14210        2.17100
C          5.58470       -1.89860        1.01060
C          6.23540       -1.53900       -0.15320
C          7.05340       -0.41780       -0.17230
S          7.93210        0.14870       -1.59260
C          7.50220       -1.05030       -2.88510
C          7.21480        0.33040        0.99380
C          6.56050       -0.02300        2.15100
C          5.64230       -1.23600        4.58410
C          4.89970       -0.65970        5.61030
C          5.49840       -0.33120        6.80730
C          6.85150       -0.58530        7.00180
S          7.70610       -0.19520        8.48820
C          6.36580       -0.09530        9.70870
C          7.59650       -1.16350        5.97600
C          7.00030       -1.48730        4.77840
C          2.85590       -1.39870        2.27590
S          3.00580       -0.18330        1.04940
C          1.29820       -0.33580        0.68550
C          0.68480       -1.33410        1.40940
N         -0.63810       -1.71800        1.18080
C         -1.55480       -1.73480        2.22970
C         -2.72700       -2.48980        2.16570
C         -3.64580       -2.43130        3.18880
C         -3.41590       -1.63780        4.31090
S         -4.69160       -1.61280        5.53470
C         -4.09390       -0.42790        6.77070
C         -2.22730       -0.93120        4.40720
C         -1.31190       -0.98170        3.37550
C         -0.96520       -2.06540       -0.13700
C         -2.18030       -1.71050       -0.71950
C         -2.47030       -2.07450       -2.01990
C         -1.55080       -2.80270       -2.76160
S         -1.88710       -3.35460       -4.40850
C         -3.63470       -3.84110       -4.26540
C         -0.32130       -3.12800       -2.20170
C         -0.03260       -2.76610       -0.90500
C          1.57410       -1.92760        2.33800
S          1.43610       -3.19010        3.49750
C          0.59580        0.57860       -0.18820
C         -0.12590        1.66260        0.26650
N         -0.16200        2.06550        1.60340
C          1.06300        2.24190        2.25860
C          2.12950        2.81470        1.56800
C          3.37420        2.94290        2.15220
C          3.57700        2.50760        3.45380
S          5.12670        2.57890        4.29740
C          6.17770        3.55610        3.18510
C          2.50700        1.96620        4.16260
C          1.26810        1.83280        3.57710
C         -1.39220        2.14890        2.25660
C         -2.48800        1.42840        1.78790
C         -3.70100        1.46530        2.44630
C         -3.84110        2.22590        3.59710
S         -5.32430        2.32290        4.55320
C         -6.44640        1.14630        3.75020
C         -2.75980        2.97930        4.05060
C         -1.55450        2.95170        3.38690
C         -0.80290        2.31300       -0.79030
S         -1.77010        3.74250       -0.90290
C         -1.89650        3.52100       -2.63610
C         -1.18230        2.41960       -3.09620
N         -1.00560        2.12430       -4.45270
C         -1.72310        1.07300       -5.03340
C         -1.23750        0.41920       -6.16170
C         -1.99670       -0.53840       -6.80230
C         -3.25150       -0.87250       -6.31390
S         -4.33790       -2.01630       -7.11100
C         -3.22640       -2.95610       -8.19470
C         -3.71380       -0.26660       -5.14970
C         -2.95520        0.68640       -4.50860
C         -0.33450        3.08670       -5.21430
C         -0.67020        3.35500       -6.54420
C          0.00110        4.33140       -7.24400
C          1.01550        5.07440       -6.64240
S          1.79090        6.30670       -7.64340
C          3.09390        6.98390       -6.57510
C          1.34860        4.81870       -5.32030
C          0.68200        3.83260       -4.61940
C         -0.57520        1.72850       -2.03090
S          0.49680        0.37540       -1.92730
C         -2.73130        4.36110       -3.41020
C         -3.23620        5.59760       -3.01130
O         -2.88550        6.14450       -1.80230
C         -2.02090        7.27470       -1.89490
C         -0.63020        6.90720       -2.39780
C         -4.07970        6.16330       -3.97590
O         -4.67990        7.37190       -3.93640
C         -5.41280        7.71170       -2.75810
C         -6.78620        7.05380       -2.77070
C         -4.24480        5.33760       -5.11160
S         -3.28350        3.89460       -4.97790
C         -5.16370        5.63820       -6.11610
C         -5.51350        4.90080       -7.22550
C         -4.83240        3.69130       -7.68520
O         -3.89180        3.11910       -7.15890
C         -5.48740        3.30640       -8.94720
C         -5.22720        2.23670       -9.78630
Cl        -3.99970        1.10170       -9.40480
C         -5.98830        2.09470      -10.94480
C         -6.97980        3.01360      -11.23800
C         -7.25650        4.08740      -10.39750
C         -6.50720        4.23080       -9.24340
C         -6.57210        5.21200       -8.15640
C         -7.53190        6.18440       -8.02540
C         -8.53550        6.44230       -8.98140
N         -9.37170        6.70980       -9.72150
C         -7.69170        7.02340       -6.90380
N         -7.92110        7.71510       -6.01510
H          4.70030       -3.31030        5.31800
H          1.15620       -8.37540        4.52320
H          5.29330       -8.21450        7.44510
H          4.69340      -11.42520        6.35270
H          4.10300      -11.77360        8.74650
H          2.54430       -9.78590        9.42190
H          0.35810       -9.89470        7.91670
H          0.56820      -11.95240        6.31590
H          1.80300      -13.03860        8.39110
H          2.81080      -13.30200        6.94580
H          2.56950      -11.54460        4.89150
H          4.96020       -2.78010        1.02100
H          6.09880       -2.14650       -1.03290
H          8.03290       -0.72320       -3.77390
H          7.84070       -2.04180       -2.59890
H          6.43160       -1.03270       -3.06740
H          7.86170        1.19460        0.97260
H          6.68240        0.56260        3.04880
H          3.84950       -0.46310        5.45650
H          4.90640        0.13050        7.57890
H          5.70960       -0.94820        9.56810
H          6.84450       -0.14240       10.68180
H          5.83160        0.84520        9.60660
H          8.64520       -1.36210        6.13500
H          7.57800       -1.94050        3.98610
H         -2.91330       -3.12700        1.31500
H         -4.55680       -3.00830        3.13320
H         -4.88140       -0.36360        7.51520
H         -3.94460        0.54430        6.31000
H         -3.18170       -0.79860        7.22910
H         -2.00500       -0.32520        5.27060
H         -0.39420       -0.42160        3.45370
H         -2.90420       -1.14520       -0.15130
H         -3.41260       -1.78160       -2.45570
H         -3.77250       -4.38810       -3.33810
H         -4.27720       -2.96790       -4.30710
H         -3.84280       -4.48320       -5.11490
H          0.39480       -3.68370       -2.78690
H          0.91500       -3.04380       -0.46830
H          1.98420        3.14990        0.55160
H          4.17570        3.37630        1.57680
H          7.12550        3.66650        3.70310
H          6.32720        3.02600        2.24880
H          5.73030        4.53190        3.02100
H          2.66230        1.64730        5.18200
H          0.45390        1.40880        4.14430
H         -2.38560        0.82010        0.90260
H         -4.52070        0.88200        2.05920
H         -6.67150        1.47750        2.74050
H         -6.00800        0.15260        3.75850
H         -7.35080        1.15290        4.35060
H         -2.88110        3.59240        4.93100
H         -0.73190        3.55390        3.74140
H         -0.26490        0.67850       -6.55170
H         -1.60270       -1.00810       -7.68890
H         -2.37160       -3.29750       -7.61810
H         -3.80390       -3.80440       -8.54890
H         -2.91870       -2.34530       -9.03870
H         -4.69110       -0.52830       -4.77030
H         -3.33110        1.16340       -3.61530
H         -1.47700        2.81650       -7.01360
H         -0.26430        4.54220       -8.26870
H          3.77840        6.19420       -6.27940
H          2.65320        7.47040       -5.70960
H          3.61650        7.71650       -7.18200
H          2.12630        5.37390       -4.82070
H          0.95950        3.63860       -3.59360
H         -2.46550        8.03560       -2.54840
H         -1.97140        7.66190       -0.87470
H         -0.17550        6.17180       -1.73870
H         -0.00750        7.79720       -2.41980
H         -0.68240        6.49030       -3.40270
H         -5.50830        8.79890       -2.79870
H         -4.85940        7.42600       -1.85870
H         -7.32390        7.33030       -3.67490
H         -7.35440        7.38060       -1.90470
H         -6.68600        5.97020       -2.73800
H         -5.67380        6.58040       -5.95380
H         -5.79650        1.26500      -11.60640
H         -7.55780        2.89300      -12.14140
H         -8.03780        4.78290      -10.65500
