
  xtb     02052203293D
 energy: -274.975464071289 gnorm: 0.000576313030 xtb: 6.4.1 (unknown)
146164  0     0  0            999 V2000
    1.7491   -5.6097    4.0687 C   0  0  0  0  0  0  0  0  0  0  0  0
    1.7181   -6.8181    3.4234 C   0  0  0  0  0  0  0  0  0  0  0  0
    1.7924   -6.9706    1.9562 C   0  0  0  0  0  0  0  0  0  0  0  0
    1.9993   -6.1007    1.1286 O   0  0  0  0  0  0  0  0  0  0  0  0
    1.7558   -8.4202    1.6956 C   0  0  0  0  0  0  0  0  0  0  0  0
    1.7396   -9.0500    0.4527 C   0  0  0  0  0  0  0  0  0  0  0  0
    1.7176  -10.4223    0.5226 C   0  0  0  0  0  0  0  0  0  0  0  0
    1.7269  -11.1188    1.7380 C   0  0  0  0  0  0  0  0  0  0  0  0
    1.7523  -10.5098    2.9706 C   0  0  0  0  0  0  0  0  0  0  0  0
    1.7632   -9.1128    2.9232 C   0  0  0  0  0  0  0  0  0  0  0  0
    1.7651   -8.1352    4.0115 C   0  0  0  0  0  0  0  0  0  0  0  0
    1.7440   -8.4301    5.3520 C   0  0  0  0  0  0  0  0  0  0  0  0
    1.6768   -7.4773    6.3894 C   0  0  0  0  0  0  0  0  0  0  0  0
    1.6084   -6.7762    7.2969 N   0  0  0  0  0  0  0  0  0  0  0  0
    1.7820   -9.7336    5.8856 C   0  0  0  0  0  0  0  0  0  0  0  0
    1.8184  -10.7639    6.3925 N   0  0  0  0  0  0  0  0  0  0  0  0
    1.6876  -12.4655    1.0590 C   0  0  0  0  0  0  0  0  0  0  0  0
    0.3259  -13.1918    1.0499 C   0  0  0  0  0  0  0  0  0  0  0  0
    0.4641  -14.2060   -0.0624 C   0  0  0  0  0  0  0  0  0  0  0  0
    0.4528  -13.5462   -1.2137 C   0  0  0  0  0  0  0  0  0  0  0  0
    0.3070  -12.0749   -0.8987 C   0  0  0  0  0  0  0  0  0  0  0  0
   -0.5723  -12.1598    0.3555 C   0  0  0  0  0  0  0  0  0  0  0  0
    1.6745  -11.6885   -0.2966 C   0  0  0  0  0  0  0  0  0  0  0  0
    1.4020   -4.3797    3.4678 C   0  0  0  0  0  0  0  0  0  0  0  0
    1.9249   -3.1523    3.9332 C   0  0  0  0  0  0  0  0  0  0  0  0
    1.6479   -1.8975    3.2763 C   0  0  0  0  0  0  0  0  0  0  0  0
    2.2888   -0.8849    3.8567 N   0  0  0  0  0  0  0  0  0  0  0  0
    3.1368   -1.4431    5.1102 S   0  0  0  0  0  4  0  0  0  0  0  0
    2.7595   -2.9965    4.9597 N   0  0  0  0  0  0  0  0  0  0  0  0
    0.8264   -1.7842    2.1248 C   0  0  0  0  0  0  0  0  0  0  0  0
    0.1526   -2.9824    1.7880 C   0  0  0  0  0  0  0  0  0  0  0  0
   -0.8537   -3.0941    0.9200 N   0  0  0  0  0  0  0  0  0  0  0  0
   -1.3771   -4.6149    0.9152 S   0  0  0  0  0  0  0  0  0  0  0  0
   -0.3698   -5.2097    2.0126 N   0  0  0  0  0  0  0  0  0  0  0  0
    0.4413   -4.2446    2.4365 C   0  0  0  0  0  0  0  0  0  0  0  0
    0.6957   -0.5380    1.4744 C   0  0  0  0  0  0  0  0  0  0  0  0
    0.1734   -0.1853    0.2120 C   0  0  0  0  0  0  0  0  0  0  0  0
   -0.1713   -1.0047   -0.8327 N   0  0  0  0  0  0  0  0  0  0  0  0
   -1.1555   -0.4966   -1.7116 C   0  0  0  0  0  0  0  0  0  0  0  0
   -0.8928   -0.3491   -3.0727 C   0  0  0  0  0  0  0  0  0  0  0  0
   -1.8186    0.2623   -3.8867 C   0  0  0  0  0  0  0  0  0  0  0  0
   -3.0235    0.7304   -3.3617 C   0  0  0  0  0  0  0  0  0  0  0  0
   -4.0921    1.5670   -4.4821 S   0  0  0  0  0  0  0  0  0  0  0  0
   -5.3961    2.2422   -3.4140 C   0  0  0  0  0  0  0  0  0  0  0  0
   -3.3132    0.5239   -2.0190 C   0  0  0  0  0  0  0  0  0  0  0  0
   -2.3809   -0.0826   -1.2008 C   0  0  0  0  0  0  0  0  0  0  0  0
    0.4382   -2.2158   -1.1372 C   0  0  0  0  0  0  0  0  0  0  0  0
    1.7397   -2.5133   -0.7296 C   0  0  0  0  0  0  0  0  0  0  0  0
    2.3169   -3.7289   -1.0304 C   0  0  0  0  0  0  0  0  0  0  0  0
    1.6103   -4.6767   -1.7625 C   0  0  0  0  0  0  0  0  0  0  0  0
    2.2348   -6.2515   -2.2071 S   0  0  0  0  0  0  0  0  0  0  0  0
    3.8439   -6.3448   -1.3793 C   0  0  0  0  0  0  0  0  0  0  0  0
    0.3217   -4.3699   -2.2065 C   0  0  0  0  0  0  0  0  0  0  0  0
   -0.2534   -3.1599   -1.9063 C   0  0  0  0  0  0  0  0  0  0  0  0
    0.1000    1.2240    0.0844 C   0  0  0  0  0  0  0  0  0  0  0  0
   -0.5211    2.2858   -1.1384 S   0  0  0  0  0  0  0  0  0  0  0  0
   -0.0033    3.6918   -0.2202 C   0  0  0  0  0  0  0  0  0  0  0  0
    0.5157    3.3368    1.0411 C   0  0  0  0  0  0  0  0  0  0  0  0
    0.8010    4.1682    2.0946 N   0  0  0  0  0  0  0  0  0  0  0  0
    1.7578    3.7121    3.0235 C   0  0  0  0  0  0  0  0  0  0  0  0
    2.9921    3.2556    2.5722 C   0  0  0  0  0  0  0  0  0  0  0  0
    3.8990    2.7001    3.4523 C   0  0  0  0  0  0  0  0  0  0  0  0
    3.5758    2.5878    4.7984 C   0  0  0  0  0  0  0  0  0  0  0  0
    4.6140    1.8206    5.9955 S   0  0  0  0  0  0  0  0  0  0  0  0
    5.8794    0.9898    4.9930 C   0  0  0  0  0  0  0  0  0  0  0  0
    2.3645    3.1018    5.2613 C   0  0  0  0  0  0  0  0  0  0  0  0
    1.4634    3.6623    4.3852 C   0  0  0  0  0  0  0  0  0  0  0  0
    0.1387    5.3702    2.3240 C   0  0  0  0  0  0  0  0  0  0  0  0
   -1.1750    5.5739    1.8920 C   0  0  0  0  0  0  0  0  0  0  0  0
   -1.7734    6.8021    2.0435 C   0  0  0  0  0  0  0  0  0  0  0  0
   -1.0873    7.8588    2.6452 C   0  0  0  0  0  0  0  0  0  0  0  0
   -1.9246    9.4022    2.7140 S   0  0  0  0  0  0  0  0  0  0  0  0
   -0.6269   10.5752    3.1979 C   0  0  0  0  0  0  0  0  0  0  0  0
    0.1879    7.6353    3.1537 C   0  0  0  0  0  0  0  0  0  0  0  0
    0.7882    6.4034    3.0003 C   0  0  0  0  0  0  0  0  0  0  0  0
    0.6008    1.9308    1.1639 C   0  0  0  0  0  0  0  0  0  0  0  0
    1.2128    0.8725    2.3932 S   0  0  0  0  0  0  0  0  0  0  0  0
   -0.1417    4.9477   -0.8528 C   0  0  0  0  0  0  0  0  0  0  0  0
    0.5942    6.1167   -0.5515 C   0  0  0  0  0  0  0  0  0  0  0  0
    0.3410    7.3781   -1.2142 C   0  0  0  0  0  0  0  0  0  0  0  0
    1.1659    8.3320   -0.7890 N   0  0  0  0  0  0  0  0  0  0  0  0
    2.1809    7.7097    0.2906 S   0  0  0  0  0  4  0  0  0  0  0  0
    1.6145    6.2056    0.3024 N   0  0  0  0  0  0  0  0  0  0  0  0
   -0.6011    7.5414   -2.2596 C   0  0  0  0  0  0  0  0  0  0  0  0
   -1.2923    6.3573   -2.6029 C   0  0  0  0  0  0  0  0  0  0  0  0
   -2.2516    6.2366   -3.5228 N   0  0  0  0  0  0  0  0  0  0  0  0
   -2.7599    4.7116   -3.5717 S   0  0  0  0  0  0  0  0  0  0  0  0
   -1.8230    4.1275   -2.4036 N   0  0  0  0  0  0  0  0  0  0  0  0
   -1.0498    5.1026   -1.9296 C   0  0  0  0  0  0  0  0  0  0  0  0
   -0.7973    8.8185   -2.8276 C   0  0  0  0  0  0  0  0  0  0  0  0
   -1.3418    9.1809   -4.0302 C   0  0  0  0  0  0  0  0  0  0  0  0
   -1.8442   10.5748   -4.1960 C   0  0  0  0  0  0  0  0  0  0  0  0
   -1.6821   11.5019   -3.4366 O   0  0  0  0  0  0  0  0  0  0  0  0
   -2.6095   10.5422   -5.4530 C   0  0  0  0  0  0  0  0  0  0  0  0
   -2.4823    9.2472   -6.0552 C   0  0  0  0  0  0  0  0  0  0  0  0
   -3.1640    9.1277   -7.2231 C   0  0  0  0  0  0  0  0  0  0  0  0
   -3.9887   10.5959   -7.6175 S   0  0  0  0  0  0  0  0  0  0  0  0
   -3.3891   11.3893   -6.1776 C   0  0  0  0  0  0  0  0  0  0  0  0
   -3.7868   13.0014   -5.8347 Cl  0  0  0  0  0  0  0  0  0  0  0  0
   -1.6019    8.4350   -5.2341 C   0  0  0  0  0  0  0  0  0  0  0  0
   -0.9960    7.2781   -5.6625 C   0  0  0  0  0  0  0  0  0  0  0  0
   -1.3606    6.6628   -6.8742 C   0  0  0  0  0  0  0  0  0  0  0  0
   -1.6651    6.1297   -7.8447 N   0  0  0  0  0  0  0  0  0  0  0  0
    0.0698    6.6427   -5.0038 C   0  0  0  0  0  0  0  0  0  0  0  0
    0.9594    6.1019   -4.5172 N   0  0  0  0  0  0  0  0  0  0  0  0
    2.0784   -5.5496    5.0981 H   0  0  0  0  0  0  0  0  0  0  0  0
    1.7311   -8.4786   -0.4627 H   0  0  0  0  0  0  0  0  0  0  0  0
    1.7660  -11.0599    3.8966 H   0  0  0  0  0  0  0  0  0  0  0  0
    2.5231  -13.1300    1.2712 H   0  0  0  0  0  0  0  0  0  0  0  0
    0.0039  -13.5669    2.0175 H   0  0  0  0  0  0  0  0  0  0  0  0
    0.6075  -15.2582    0.0994 H   0  0  0  0  0  0  0  0  0  0  0  0
    0.5852  -13.9373   -2.2055 H   0  0  0  0  0  0  0  0  0  0  0  0
   -0.0324  -11.4323   -1.7068 H   0  0  0  0  0  0  0  0  0  0  0  0
   -0.6673  -11.2195    0.8952 H   0  0  0  0  0  0  0  0  0  0  0  0
   -1.5627  -12.5566    0.1379 H   0  0  0  0  0  0  0  0  0  0  0  0
    2.5010  -11.8360   -0.9896 H   0  0  0  0  0  0  0  0  0  0  0  0
    0.0502   -0.6871   -3.4748 H   0  0  0  0  0  0  0  0  0  0  0  0
   -1.6119    0.4094   -4.9353 H   0  0  0  0  0  0  0  0  0  0  0  0
   -5.9996    2.8771   -4.0551 H   0  0  0  0  0  0  0  0  0  0  0  0
   -6.0084    1.4390   -3.0145 H   0  0  0  0  0  0  0  0  0  0  0  0
   -4.9482    2.8337   -2.6211 H   0  0  0  0  0  0  0  0  0  0  0  0
   -4.2532    0.8376   -1.5962 H   0  0  0  0  0  0  0  0  0  0  0  0
   -2.5913   -0.2312   -0.1522 H   0  0  0  0  0  0  0  0  0  0  0  0
    2.3095   -1.7824   -0.1761 H   0  0  0  0  0  0  0  0  0  0  0  0
    3.3175   -3.9285   -0.6852 H   0  0  0  0  0  0  0  0  0  0  0  0
    4.2271   -7.3404   -1.5814 H   0  0  0  0  0  0  0  0  0  0  0  0
    3.6892   -6.2098   -0.3125 H   0  0  0  0  0  0  0  0  0  0  0  0
    4.5186   -5.5991   -1.7898 H   0  0  0  0  0  0  0  0  0  0  0  0
   -0.2215   -5.1031   -2.7830 H   0  0  0  0  0  0  0  0  0  0  0  0
   -1.2602   -2.9468   -2.2298 H   0  0  0  0  0  0  0  0  0  0  0  0
    3.2303    3.3334    1.5220 H   0  0  0  0  0  0  0  0  0  0  0  0
    4.8469    2.3535    3.0753 H   0  0  0  0  0  0  0  0  0  0  0  0
    6.4345    0.3610    5.6821 H   0  0  0  0  0  0  0  0  0  0  0  0
    5.3976    0.3780    4.2365 H   0  0  0  0  0  0  0  0  0  0  0  0
    6.5471    1.7214    4.5471 H   0  0  0  0  0  0  0  0  0  0  0  0
    2.1329    3.0309    6.3127 H   0  0  0  0  0  0  0  0  0  0  0  0
    0.5144    4.0345    4.7408 H   0  0  0  0  0  0  0  0  0  0  0  0
   -1.7210    4.7669    1.4280 H   0  0  0  0  0  0  0  0  0  0  0  0
   -2.7800    6.9659    1.6907 H   0  0  0  0  0  0  0  0  0  0  0  0
    0.2135   10.4900    2.5153 H   0  0  0  0  0  0  0  0  0  0  0  0
   -1.0766   11.5593    3.1093 H   0  0  0  0  0  0  0  0  0  0  0  0
   -0.3244   10.4019    4.2265 H   0  0  0  0  0  0  0  0  0  0  0  0
    0.7283    8.4188    3.6594 H   0  0  0  0  0  0  0  0  0  0  0  0
    1.7924    6.2492    3.3639 H   0  0  0  0  0  0  0  0  0  0  0  0
   -0.5110    9.6473   -2.1871 H   0  0  0  0  0  0  0  0  0  0  0  0
   -3.2517    8.2842   -7.8783 H   0  0  0  0  0  0  0  0  0  0  0  0
  1  2  2  0  0  0  0
  2  3  1  0  0  0  0
  3  4  2  0  0  0  0
  3  5  1  0  0  0  0
  5  6  2  0  0  0  0
  6  7  1  0  0  0  0
  7  8  2  0  0  0  0
  8  9  1  0  0  0  0
  9 10  2  0  0  0  0
 10 11  1  0  0  0  0
 11 12  2  0  0  0  0
 12 13  1  0  0  0  0
 13 14  3  0  0  0  0
 12 15  1  0  0  0  0
 15 16  3  0  0  0  0
  8 17  1  0  0  0  0
 17 18  1  0  0  0  0
 18 19  1  0  0  0  0
 19 20  2  0  0  0  0
 20 21  1  0  0  0  0
 21 22  1  0  0  0  0
 21 23  1  0  0  0  0
  1 24  1  0  0  0  0
 24 25  2  0  0  0  0
 25 26  1  0  0  0  0
 26 27  1  0  0  0  0
 27 28  2  0  0  0  0
 28 29  2  0  0  0  0
 26 30  2  0  0  0  0
 30 31  1  0  0  0  0
 31 32  2  0  0  0  0
 32 33  1  0  0  0  0
 33 34  1  0  0  0  0
 34 35  2  0  0  0  0
 30 36  1  0  0  0  0
 36 37  2  0  0  0  0
 37 38  1  0  0  0  0
 38 39  1  0  0  0  0
 39 40  2  0  0  0  0
 40 41  1  0  0  0  0
 41 42  2  0  0  0  0
 42 43  1  0  0  0  0
 43 44  1  0  0  0  0
 42 45  1  0  0  0  0
 45 46  2  0  0  0  0
 38 47  1  0  0  0  0
 47 48  2  0  0  0  0
 48 49  1  0  0  0  0
 49 50  2  0  0  0  0
 50 51  1  0  0  0  0
 51 52  1  0  0  0  0
 50 53  1  0  0  0  0
 53 54  2  0  0  0  0
 37 55  1  0  0  0  0
 55 56  1  0  0  0  0
 56 57  1  0  0  0  0
 57 58  2  0  0  0  0
 58 59  1  0  0  0  0
 59 60  1  0  0  0  0
 60 61  2  0  0  0  0
 61 62  1  0  0  0  0
 62 63  2  0  0  0  0
 63 64  1  0  0  0  0
 64 65  1  0  0  0  0
 63 66  1  0  0  0  0
 66 67  2  0  0  0  0
 59 68  1  0  0  0  0
 68 69  2  0  0  0  0
 69 70  1  0  0  0  0
 70 71  2  0  0  0  0
 71 72  1  0  0  0  0
 72 73  1  0  0  0  0
 71 74  1  0  0  0  0
 74 75  2  0  0  0  0
 58 76  1  0  0  0  0
 76 77  1  0  0  0  0
 57 78  1  0  0  0  0
 78 79  2  0  0  0  0
 79 80  1  0  0  0  0
 80 81  1  0  0  0  0
 81 82  2  0  0  0  0
 82 83  2  0  0  0  0
 80 84  2  0  0  0  0
 84 85  1  0  0  0  0
 85 86  2  0  0  0  0
 86 87  1  0  0  0  0
 87 88  1  0  0  0  0
 88 89  2  0  0  0  0
 84 90  1  0  0  0  0
 90 91  2  0  0  0  0
 91 92  1  0  0  0  0
 92 93  2  0  0  0  0
 92 94  1  0  0  0  0
 94 95  1  0  0  0  0
 95 96  2  0  0  0  0
 96 97  1  0  0  0  0
 97 98  1  0  0  0  0
 98 99  1  0  0  0  0
 95100  1  0  0  0  0
100101  2  0  0  0  0
101102  1  0  0  0  0
102103  3  0  0  0  0
101104  1  0  0  0  0
104105  3  0  0  0  0
 11  2  1  0  0  0  0
 23 17  1  0  0  0  0
 35 24  1  0  0  0  0
 77 36  1  0  0  0  0
 89 78  1  0  0  0  0
100 91  1  0  0  0  0
 10  5  1  0  0  0  0
 22 18  1  0  0  0  0
 29 25  1  0  0  0  0
 35 31  1  0  0  0  0
 46 39  1  0  0  0  0
 54 47  1  0  0  0  0
 76 55  2  0  0  0  0
 83 79  1  0  0  0  0
 89 85  1  0  0  0  0
 98 94  2  0  0  0  0
 23  7  1  0  0  0  0
 67 60  1  0  0  0  0
 75 68  1  0  0  0  0
  1106  1  0  0  0  0
  6107  1  0  0  0  0
  9108  1  0  0  0  0
 17109  1  0  0  0  0
 18110  1  0  0  0  0
 19111  1  0  0  0  0
 20112  1  0  0  0  0
 21113  1  0  0  0  0
 22114  1  0  0  0  0
 22115  1  0  0  0  0
 23116  1  0  0  0  0
 40117  1  0  0  0  0
 41118  1  0  0  0  0
 44119  1  0  0  0  0
 44120  1  0  0  0  0
 44121  1  0  0  0  0
 45122  1  0  0  0  0
 46123  1  0  0  0  0
 48124  1  0  0  0  0
 49125  1  0  0  0  0
 52126  1  0  0  0  0
 52127  1  0  0  0  0
 52128  1  0  0  0  0
 53129  1  0  0  0  0
 54130  1  0  0  0  0
 61131  1  0  0  0  0
 62132  1  0  0  0  0
 65133  1  0  0  0  0
 65134  1  0  0  0  0
 65135  1  0  0  0  0
 66136  1  0  0  0  0
 67137  1  0  0  0  0
 69138  1  0  0  0  0
 70139  1  0  0  0  0
 73140  1  0  0  0  0
 73141  1  0  0  0  0
 73142  1  0  0  0  0
 74143  1  0  0  0  0
 75144  1  0  0  0  0
 90145  1  0  0  0  0
 96146  1  0  0  0  0
M  END
