153

C         -1.25590       -2.72840       -6.25000
C         -1.44410       -1.49920       -6.81650
C         -0.87640       -0.21910       -6.33560
O         -0.06410       -0.02780       -5.44950
C         -1.58470        0.83910       -7.07780
C         -1.39210        2.21370       -6.95280
C         -2.22260        2.97090       -7.74340
C         -3.19040        2.40220       -8.58270
C         -3.38820        1.04930       -8.71880
C         -2.53660        0.26090       -7.93870
C         -2.42810       -1.19120       -7.83730
C         -3.07940       -2.09820       -8.63060
C         -4.01010       -1.75590       -9.63360
N         -4.77550       -1.54740      -10.46370
C         -2.88400       -3.49610       -8.59620
N         -2.77350       -4.63730       -8.65900
C         -3.66860        3.74550       -9.07570
C         -3.20240        4.16300      -10.48630
C         -3.39820        5.66170      -10.50450
C         -2.47410        6.19900       -9.71840
C         -1.63870        5.07180       -9.15500
C         -1.67660        4.09790      -10.33960
C         -2.58300        4.38030       -8.14840
C         -0.29520       -3.04010       -5.25630
C         -0.62420       -3.93030       -4.20710
C          0.07620       -3.90650       -2.93450
N         -0.49070       -4.71830       -2.04230
S         -1.74720       -5.45380       -2.72930
N         -1.66670       -4.75530       -4.17280
C          1.11270       -2.98060       -2.69060
C          1.65940       -2.39740       -3.84790
N          2.82200       -1.75510       -3.92990
S          3.04110       -1.27490       -5.44250
N          1.68550       -1.84730       -6.07940
C          0.97350       -2.43870       -5.12380
C          1.33240       -2.46130       -1.37450
C          1.27140       -1.11170       -1.04180
N          1.18510       -0.04600       -1.95950
C          2.36270        0.56880       -2.38480
C          3.49920        0.53690       -1.57350
C          4.66970        1.13070       -1.98680
C          4.74430        1.77280       -3.22060
S          6.29730        2.50270       -3.63610
C          6.00530        3.26420       -5.25810
C          3.62560        1.79040       -4.04200
C          2.45170        1.19020       -3.63190
C         -0.07190        0.31380       -2.44360
C         -0.34040        1.62850       -2.83240
C         -1.53800        1.96800       -3.42430
C         -2.51300        1.00040       -3.63130
S         -4.02760        1.27910       -4.49430
C         -4.11860        3.08640       -4.63990
C         -2.29700       -0.28670       -3.14960
C         -1.10500       -0.62200       -2.54830
C          1.16090       -0.94420        0.35200
S          1.10200        0.43840        1.38650
C          0.97830       -0.60780        2.79330
C          1.08180       -1.96650        2.47340
N          1.20760       -3.01370        3.35410
C          0.77520       -4.28950        2.94740
C         -0.42260       -4.43600        2.25400
C         -0.81350       -5.67380        1.78610
C         -0.01000       -6.78420        2.01010
S         -0.39150       -8.39480        1.40580
C         -1.60070       -8.05990        0.09220
C          1.15990       -6.64900        2.75640
C          1.55190       -5.41380        3.22100
C          1.71610       -2.83950        4.64910
C          2.77950       -1.96690        4.89280
C          3.16140       -1.68670        6.18410
C          2.50730       -2.28490        7.26450
S          2.96670       -1.73730        8.87100
C          1.80240       -2.58320        9.97180
C          1.52870       -3.24070        7.01840
C          1.13510       -3.51040        5.72320
C          1.16020       -2.13490        1.06830
S          1.26600       -3.50400        0.01670
C          0.84280       -0.00810        4.08230
C          0.08810       -0.57960        5.11640
C         -0.83310       -1.60420        4.81640
N         -1.63390       -2.37590        4.53330
C          0.15520       -0.09600        6.44530
C         -0.53690       -0.80290        7.45310
N         -1.04370       -1.39370        8.29520
C          0.88220        1.03810        6.79830
C          1.58000        1.68830        5.75150
C          1.54550        1.17900        4.40840
N          2.30930        1.89120        3.58490
S          2.99970        3.08170        4.41610
N          2.38630        2.74060        5.86160
C          0.95950        1.49900        8.16350
C          0.84540        2.79830        8.51810
C          0.38190        3.88080        7.59730
O         -0.09640        3.74720        6.49280
C          0.51420        5.12730        8.36490
C          0.27820        6.42830        7.95940
C          0.46050        7.44760        8.87760
C          0.86570        7.18140       10.18650
C          1.04900        8.31010       11.15000
C          1.09420        5.86850       10.58950
C          0.91760        4.83700        9.68060
C          1.07240        3.39280        9.82770
C          1.37120        2.73570       10.98850
C          1.58540        3.37380       12.23030
N          1.77020        3.82740       13.26810
C          1.48270        1.33710       11.13690
N          1.57930        0.21500       11.35780
H         -1.96550       -3.51920       -6.46120
H         -0.64420        2.60690       -6.28080
H         -4.14020        0.62830       -9.36450
H         -4.71490        3.97700       -8.88610
H         -3.65250        3.59970      -11.29880
H         -4.19590        6.15640      -11.02660
H         -2.34600        7.23190       -9.45230
H         -0.66330        5.33860       -8.75620
H         -1.29480        3.10450      -10.11120
H         -1.16200        4.49360      -11.21350
H         -2.90590        5.04590       -7.34870
H          3.46470        0.04690       -0.61370
H          5.54350        1.10760       -1.35400
H          6.93930        3.74870       -5.52520
H          5.76430        2.50030       -5.99160
H          5.21460        4.00490       -5.18340
H          3.65530        2.25290       -5.01580
H          1.60490        1.16970       -4.30020
H          0.40560        2.39230       -2.67290
H         -1.69740        2.99040       -3.72830
H         -5.08980        3.29560       -5.07700
H         -3.33370        3.44490       -5.29910
H         -4.04980        3.53710       -3.65440
H         -3.07120       -1.03010       -3.26820
H         -0.97560       -1.62420       -2.17550
H         -1.05580       -3.57620        2.09790
H         -1.74670       -5.75880        1.25480
H         -2.56470       -7.80260        0.52140
H         -1.68690       -8.98270       -0.47290
H         -1.22530       -7.26330       -0.54370
H          1.76470       -7.52180        2.94800
H          2.46950       -5.30660        3.77990
H          3.28490       -1.49230        4.06440
H          3.96310       -0.99050        6.37860
H          2.00850       -3.64950        9.98030
H          0.78340       -2.37140        9.65880
H          1.97890       -2.15500       10.95310
H          1.03930       -3.75670        7.82700
H          0.34170       -4.21890        5.54090
H          1.12180        0.73530        8.91470
H         -0.03720        6.62960        6.94720
H          0.28640        8.47220        8.58310
H          1.34940        7.94500       12.12800
H          0.12100        8.87040       11.25520
H          1.80990        8.99830       10.78410
H          1.40500        5.67320       11.60310
