
  xtb     02122207183D
 energy: -372.258681349029 gnorm: 0.000838029044 xtb: 6.4.1 (unknown)
225248  0     0  0            999 V2000
    5.5146   -4.2240   -5.2123 C   0  0  0  0  0  0  0  0  0  0  0  0
    6.6022   -4.4618   -4.4480 C   0  0  0  0  0  0  0  0  0  0  0  0
    6.9634   -3.6459   -3.2483 C   0  0  0  0  0  0  0  0  0  0  0  0
    6.2863   -2.8153   -2.6858 O   0  0  0  0  0  0  0  0  0  0  0  0
    8.3680   -3.9789   -2.9576 C   0  0  0  0  0  0  0  0  0  0  0  0
    9.1670   -3.4115   -1.9666 C   0  0  0  0  0  0  0  0  0  0  0  0
   10.4526   -3.8937   -1.9387 C   0  0  0  0  0  0  0  0  0  0  0  0
   10.9192   -4.8606   -2.8412 C   0  0  0  0  0  0  0  0  0  0  0  0
   10.1448   -5.4262   -3.8250 C   0  0  0  0  0  0  0  0  0  0  0  0
    8.8266   -4.9594   -3.8621 C   0  0  0  0  0  0  0  0  0  0  0  0
    7.7307   -5.3300   -4.7475 C   0  0  0  0  0  0  0  0  0  0  0  0
    7.7228   -6.3695   -5.6358 C   0  0  0  0  0  0  0  0  0  0  0  0
    6.5960   -6.7676   -6.3861 C   0  0  0  0  0  0  0  0  0  0  0  0
    5.7163   -7.1821   -6.9957 N   0  0  0  0  0  0  0  0  0  0  0  0
    8.8207   -7.2223   -5.8776 C   0  0  0  0  0  0  0  0  0  0  0  0
    9.6774   -7.9455   -6.1238 N   0  0  0  0  0  0  0  0  0  0  0  0
   12.3017   -4.8695   -2.2389 C   0  0  0  0  0  0  0  0  0  0  0  0
   12.6780   -6.0560   -1.3177 C   0  0  0  0  0  0  0  0  0  0  0  0
   11.3855   -6.5699   -0.7330 C   0  0  0  0  0  0  0  0  0  0  0  0
   10.9396   -5.6614    0.1242 C   0  0  0  0  0  0  0  0  0  0  0  0
   11.9226   -4.5168    0.1352 C   0  0  0  0  0  0  0  0  0  0  0  0
   13.2325   -5.2823   -0.1108 C   0  0  0  0  0  0  0  0  0  0  0  0
   11.7798   -3.7984   -1.2299 C   0  0  0  0  0  0  0  0  0  0  0  0
    4.4328   -3.3589   -4.7836 C   0  0  0  0  0  0  0  0  0  0  0  0
    4.0335   -2.2593   -5.5839 C   0  0  0  0  0  0  0  0  0  0  0  0
    4.6645   -2.0356   -6.7596 N   0  0  0  0  0  0  0  0  0  0  0  0
    4.3444   -0.9761   -7.4359 C   0  0  0  0  0  0  0  0  0  0  0  0
    3.3752   -0.0449   -6.9569 C   0  0  0  0  0  0  0  0  0  0  0  0
    3.1586    1.0546   -7.6634 O   0  0  0  0  0  0  0  0  0  0  0  0
    2.2286    1.9926   -7.1218 C   0  0  0  0  0  0  0  0  0  0  0  0
    2.2104    3.2126   -8.0229 C   0  0  0  0  0  0  0  0  0  0  0  0
    2.7193   -0.2667   -5.8419 N   0  0  0  0  0  0  0  0  0  0  0  0
    3.0245   -1.3723   -5.1374 C   0  0  0  0  0  0  0  0  0  0  0  0
    2.3148   -1.6312   -3.9338 C   0  0  0  0  0  0  0  0  0  0  0  0
    2.7652   -2.6856   -3.1517 C   0  0  0  0  0  0  0  0  0  0  0  0
    3.7946   -3.5291   -3.5684 C   0  0  0  0  0  0  0  0  0  0  0  0
    4.1168   -4.5716   -2.7862 F   0  0  0  0  0  0  0  0  0  0  0  0
    2.2463   -2.8771   -1.9257 F   0  0  0  0  0  0  0  0  0  0  0  0
    1.1843   -0.8257   -3.5614 C   0  0  0  0  0  0  0  0  0  0  0  0
    0.0057   -1.2471   -2.9617 C   0  0  0  0  0  0  0  0  0  0  0  0
   -0.3700   -2.5483   -2.6781 N   0  0  0  0  0  0  0  0  0  0  0  0
    0.0401   -3.5882   -3.5187 C   0  0  0  0  0  0  0  0  0  0  0  0
    0.4423   -4.8177   -3.0040 C   0  0  0  0  0  0  0  0  0  0  0  0
    1.0116   -5.7695   -3.8275 C   0  0  0  0  0  0  0  0  0  0  0  0
    1.1927   -5.5058   -5.1792 C   0  0  0  0  0  0  0  0  0  0  0  0
    2.0321   -6.5900   -6.2881 S   0  0  0  0  0  0  0  0  0  0  0  0
    3.0195   -7.6283   -5.1754 C   0  0  0  0  0  0  0  0  0  0  0  0
    0.7017   -4.3152   -5.7133 C   0  0  0  0  0  0  0  0  0  0  0  0
    0.1245   -3.3719   -4.8964 C   0  0  0  0  0  0  0  0  0  0  0  0
   -1.0308   -2.7702   -1.4584 C   0  0  0  0  0  0  0  0  0  0  0  0
   -2.0864   -3.6695   -1.3499 C   0  0  0  0  0  0  0  0  0  0  0  0
   -2.7934   -3.7844   -0.1651 C   0  0  0  0  0  0  0  0  0  0  0  0
   -2.4660   -2.9879    0.9252 C   0  0  0  0  0  0  0  0  0  0  0  0
   -3.3358   -2.9576    2.4634 S   0  0  0  0  0  0  0  0  0  0  0  0
   -4.8244   -3.9508    2.1748 C   0  0  0  0  0  0  0  0  0  0  0  0
   -1.3720   -2.1282    0.8357 C   0  0  0  0  0  0  0  0  0  0  0  0
   -0.6567   -2.0305   -0.3337 C   0  0  0  0  0  0  0  0  0  0  0  0
   -0.8156   -0.1369   -2.6597 C   0  0  0  0  0  0  0  0  0  0  0  0
   -2.3478    0.0067   -1.8935 S   0  0  0  0  0  0  0  0  0  0  0  0
   -2.1698    1.7685   -1.8485 C   0  0  0  0  0  0  0  0  0  0  0  0
   -1.0491    2.2079   -2.5318 C   0  0  0  0  0  0  0  0  0  0  0  0
   -0.6797    3.5173   -2.7674 N   0  0  0  0  0  0  0  0  0  0  0  0
   -1.5859    4.5617   -2.9572 C   0  0  0  0  0  0  0  0  0  0  0  0
   -1.1303    5.8821   -2.9177 C   0  0  0  0  0  0  0  0  0  0  0  0
   -2.0001    6.9306   -3.1004 C   0  0  0  0  0  0  0  0  0  0  0  0
   -3.3572    6.6998   -3.3088 C   0  0  0  0  0  0  0  0  0  0  0  0
   -4.3828    8.1299   -3.4616 S   0  0  0  0  0  0  0  0  0  0  0  0
   -6.0414    7.4506   -3.7491 C   0  0  0  0  0  0  0  0  0  0  0  0
   -3.8150    5.3932   -3.3730 C   0  0  0  0  0  0  0  0  0  0  0  0
   -2.9364    4.3385   -3.2125 C   0  0  0  0  0  0  0  0  0  0  0  0
    0.7028    3.7340   -2.9573 C   0  0  0  0  0  0  0  0  0  0  0  0
    1.1868    4.3215   -4.1244 C   0  0  0  0  0  0  0  0  0  0  0  0
    2.5438    4.4360   -4.3270 C   0  0  0  0  0  0  0  0  0  0  0  0
    3.4429    3.9596   -3.3741 C   0  0  0  0  0  0  0  0  0  0  0  0
    5.1572    4.0986   -3.7701 S   0  0  0  0  0  0  0  0  0  0  0  0
    5.9614    3.0034   -2.5664 C   0  0  0  0  0  0  0  0  0  0  0  0
    2.9635    3.4084   -2.1937 C   0  0  0  0  0  0  0  0  0  0  0  0
    1.6017    3.2968   -1.9900 C   0  0  0  0  0  0  0  0  0  0  0  0
   -0.2821    1.0964   -2.9932 C   0  0  0  0  0  0  0  0  0  0  0  0
    1.2133    0.9003   -3.8542 S   0  0  0  0  0  0  0  0  0  0  0  0
   -3.0058    2.3225   -0.8231 C   0  0  0  0  0  0  0  0  0  0  0  0
   -2.5809    2.9023    0.3593 C   0  0  0  0  0  0  0  0  0  0  0  0
   -1.3617    3.5824    0.5140 N   0  0  0  0  0  0  0  0  0  0  0  0
   -0.4221    2.9491    1.3489 C   0  0  0  0  0  0  0  0  0  0  0  0
    0.2131    3.6147    2.3937 C   0  0  0  0  0  0  0  0  0  0  0  0
    1.1274    2.9496    3.1852 C   0  0  0  0  0  0  0  0  0  0  0  0
    1.4302    1.6103    2.9696 C   0  0  0  0  0  0  0  0  0  0  0  0
    2.4042    0.8901    3.8517 C   0  0  0  0  0  0  0  0  0  0  0  0
    0.7795    0.9479    1.9369 C   0  0  0  0  0  0  0  0  0  0  0  0
   -0.1370    1.6018    1.1367 C   0  0  0  0  0  0  0  0  0  0  0  0
   -1.3500    4.9642    0.3038 C   0  0  0  0  0  0  0  0  0  0  0  0
   -0.1425    5.6492    0.1801 C   0  0  0  0  0  0  0  0  0  0  0  0
   -0.1328    7.0165   -0.0096 C   0  0  0  0  0  0  0  0  0  0  0  0
   -1.3140    7.7410   -0.1046 C   0  0  0  0  0  0  0  0  0  0  0  0
   -1.3027    9.2282   -0.2864 C   0  0  0  0  0  0  0  0  0  0  0  0
   -2.5137    7.0471   -0.0170 C   0  0  0  0  0  0  0  0  0  0  0  0
   -2.5383    5.6826    0.1849 C   0  0  0  0  0  0  0  0  0  0  0  0
   -3.4476    2.5826    1.4303 C   0  0  0  0  0  0  0  0  0  0  0  0
   -3.2920    2.7269    3.1447 S   0  0  0  0  0  0  0  0  0  0  0  0
   -4.6589    1.6290    3.3580 C   0  0  0  0  0  0  0  0  0  0  0  0
   -5.2987    1.3210    2.1263 C   0  0  0  0  0  0  0  0  0  0  0  0
   -6.4289    0.5606    1.9982 N   0  0  0  0  0  0  0  0  0  0  0  0
   -6.5835   -0.2567    0.8619 C   0  0  0  0  0  0  0  0  0  0  0  0
   -7.8113   -0.3420    0.2112 C   0  0  0  0  0  0  0  0  0  0  0  0
   -7.9459   -1.1394   -0.9069 C   0  0  0  0  0  0  0  0  0  0  0  0
   -6.8667   -1.8566   -1.4142 C   0  0  0  0  0  0  0  0  0  0  0  0
   -7.0288   -2.7164   -2.6296 C   0  0  0  0  0  0  0  0  0  0  0  0
   -5.6471   -1.7665   -0.7573 C   0  0  0  0  0  0  0  0  0  0  0  0
   -5.5037   -0.9862    0.3742 C   0  0  0  0  0  0  0  0  0  0  0  0
   -7.4667    0.6083    2.9476 C   0  0  0  0  0  0  0  0  0  0  0  0
   -7.8007    1.8074    3.5713 C   0  0  0  0  0  0  0  0  0  0  0  0
   -8.8119    1.8397    4.5110 C   0  0  0  0  0  0  0  0  0  0  0  0
   -9.5205    0.6915    4.8427 C   0  0  0  0  0  0  0  0  0  0  0  0
  -10.6104    0.7175    5.8696 C   0  0  0  0  0  0  0  0  0  0  0  0
   -9.1944   -0.4959    4.1962 C   0  0  0  0  0  0  0  0  0  0  0  0
   -8.1822   -0.5455    3.2597 C   0  0  0  0  0  0  0  0  0  0  0  0
   -4.5586    1.8333    1.0523 C   0  0  0  0  0  0  0  0  0  0  0  0
   -4.6000    1.5979   -0.6670 S   0  0  0  0  0  0  0  0  0  0  0  0
   -4.9266    0.9195    4.5239 C   0  0  0  0  0  0  0  0  0  0  0  0
   -4.3289    0.9929    5.7622 C   0  0  0  0  0  0  0  0  0  0  0  0
   -3.4215    2.0451    6.2170 C   0  0  0  0  0  0  0  0  0  0  0  0
   -2.9866    2.9838    5.5695 O   0  0  0  0  0  0  0  0  0  0  0  0
   -3.1570    1.7702    7.6425 C   0  0  0  0  0  0  0  0  0  0  0  0
   -2.3432    2.5012    8.5039 C   0  0  0  0  0  0  0  0  0  0  0  0
   -2.2782    1.9915    9.7792 C   0  0  0  0  0  0  0  0  0  0  0  0
   -2.9726    0.8399   10.1689 C   0  0  0  0  0  0  0  0  0  0  0  0
   -3.7782    0.1082    9.3280 C   0  0  0  0  0  0  0  0  0  0  0  0
   -3.8583    0.6092    8.0262 C   0  0  0  0  0  0  0  0  0  0  0  0
   -4.5716    0.0908    6.8578 C   0  0  0  0  0  0  0  0  0  0  0  0
   -5.2813   -1.0873    6.8145 C   0  0  0  0  0  0  0  0  0  0  0  0
   -5.5384   -1.9040    7.9328 C   0  0  0  0  0  0  0  0  0  0  0  0
   -5.8057   -2.6089    8.8001 N   0  0  0  0  0  0  0  0  0  0  0  0
   -5.8228   -1.6770    5.6575 C   0  0  0  0  0  0  0  0  0  0  0  0
   -6.2655   -2.2581    4.7684 N   0  0  0  0  0  0  0  0  0  0  0  0
   -2.4473    0.9028   11.5819 C   0  0  0  0  0  0  0  0  0  0  0  0
   -3.4168    1.4352   12.6577 C   0  0  0  0  0  0  0  0  0  0  0  0
   -2.5084    1.8307   13.7992 C   0  0  0  0  0  0  0  0  0  0  0  0
   -1.8495    2.9219   13.4308 C   0  0  0  0  0  0  0  0  0  0  0  0
   -2.3020    3.2825   12.0342 C   0  0  0  0  0  0  0  0  0  0  0  0
   -3.7640    2.8229   12.1032 C   0  0  0  0  0  0  0  0  0  0  0  0
   -1.6720    2.1878   11.1474 C   0  0  0  0  0  0  0  0  0  0  0  0
    5.4372   -4.6182   -6.2170 H   0  0  0  0  0  0  0  0  0  0  0  0
    8.7703   -2.6633   -1.2983 H   0  0  0  0  0  0  0  0  0  0  0  0
   10.5188   -6.1607   -4.5189 H   0  0  0  0  0  0  0  0  0  0  0  0
   13.1134   -4.5879   -2.9067 H   0  0  0  0  0  0  0  0  0  0  0  0
   13.3249   -6.7973   -1.7785 H   0  0  0  0  0  0  0  0  0  0  0  0
   10.9143   -7.4863   -1.0362 H   0  0  0  0  0  0  0  0  0  0  0  0
   10.0205   -5.6667    0.6802 H   0  0  0  0  0  0  0  0  0  0  0  0
   11.8823   -3.8574    0.9982 H   0  0  0  0  0  0  0  0  0  0  0  0
   14.0732   -4.6357   -0.3585 H   0  0  0  0  0  0  0  0  0  0  0  0
   13.5015   -5.9336    0.7192 H   0  0  0  0  0  0  0  0  0  0  0  0
   12.2538   -2.8187   -1.2340 H   0  0  0  0  0  0  0  0  0  0  0  0
    4.8443   -0.8070   -8.3782 H   0  0  0  0  0  0  0  0  0  0  0  0
    2.5355    2.2547   -6.1033 H   0  0  0  0  0  0  0  0  0  0  0  0
    1.2411    1.5212   -7.0638 H   0  0  0  0  0  0  0  0  0  0  0  0
    1.5020    3.9387   -7.6359 H   0  0  0  0  0  0  0  0  0  0  0  0
    1.9189    2.9317   -9.0312 H   0  0  0  0  0  0  0  0  0  0  0  0
    3.1984    3.6631   -8.0604 H   0  0  0  0  0  0  0  0  0  0  0  0
    0.3523   -5.0065   -1.9448 H   0  0  0  0  0  0  0  0  0  0  0  0
    1.3369   -6.7033   -3.3981 H   0  0  0  0  0  0  0  0  0  0  0  0
    3.4937   -7.0030   -4.4245 H   0  0  0  0  0  0  0  0  0  0  0  0
    3.7760   -8.0869   -5.8050 H   0  0  0  0  0  0  0  0  0  0  0  0
    2.3984   -8.3928   -4.7171 H   0  0  0  0  0  0  0  0  0  0  0  0
    0.7974   -4.1372   -6.7733 H   0  0  0  0  0  0  0  0  0  0  0  0
   -0.2343   -2.4433   -5.3146 H   0  0  0  0  0  0  0  0  0  0  0  0
   -2.3646   -4.2710   -2.2033 H   0  0  0  0  0  0  0  0  0  0  0  0
   -3.6092   -4.4881   -0.1080 H   0  0  0  0  0  0  0  0  0  0  0  0
   -5.3389   -3.5901    1.2889 H   0  0  0  0  0  0  0  0  0  0  0  0
   -4.5629   -5.0015    2.0872 H   0  0  0  0  0  0  0  0  0  0  0  0
   -5.4425   -3.7883    3.0537 H   0  0  0  0  0  0  0  0  0  0  0  0
   -1.1015   -1.5359    1.6967 H   0  0  0  0  0  0  0  0  0  0  0  0
    0.1973   -1.3730   -0.3946 H   0  0  0  0  0  0  0  0  0  0  0  0
   -0.0890    6.0869   -2.7292 H   0  0  0  0  0  0  0  0  0  0  0  0
   -1.6368    7.9455   -3.0725 H   0  0  0  0  0  0  0  0  0  0  0  0
   -6.0509    6.8706   -4.6674 H   0  0  0  0  0  0  0  0  0  0  0  0
   -6.3488    6.8490   -2.8987 H   0  0  0  0  0  0  0  0  0  0  0  0
   -6.6969    8.3100   -3.8494 H   0  0  0  0  0  0  0  0  0  0  0  0
   -4.8545    5.1717   -3.5548 H   0  0  0  0  0  0  0  0  0  0  0  0
   -3.3179    3.3338   -3.3023 H   0  0  0  0  0  0  0  0  0  0  0  0
    0.4921    4.6677   -4.8749 H   0  0  0  0  0  0  0  0  0  0  0  0
    2.9269    4.8787   -5.2336 H   0  0  0  0  0  0  0  0  0  0  0  0
    5.9194    3.4390   -1.5722 H   0  0  0  0  0  0  0  0  0  0  0  0
    6.9954    2.9233   -2.8873 H   0  0  0  0  0  0  0  0  0  0  0  0
    5.4889    2.0258   -2.5908 H   0  0  0  0  0  0  0  0  0  0  0  0
    3.6357    3.0571   -1.4278 H   0  0  0  0  0  0  0  0  0  0  0  0
    1.2288    2.8502   -1.0795 H   0  0  0  0  0  0  0  0  0  0  0  0
   -0.0258    4.6481    2.5929 H   0  0  0  0  0  0  0  0  0  0  0  0
    1.6058    3.4790    3.9967 H   0  0  0  0  0  0  0  0  0  0  0  0
    1.8879    0.4896    4.7252 H   0  0  0  0  0  0  0  0  0  0  0  0
    3.1826    1.5640    4.2029 H   0  0  0  0  0  0  0  0  0  0  0  0
    2.8662    0.0589    3.3239 H   0  0  0  0  0  0  0  0  0  0  0  0
    0.9968   -0.0951    1.7544 H   0  0  0  0  0  0  0  0  0  0  0  0
   -0.6402    1.0674    0.3440 H   0  0  0  0  0  0  0  0  0  0  0  0
    0.7891    5.1058    0.2344 H   0  0  0  0  0  0  0  0  0  0  0  0
    0.8155    7.5290   -0.0936 H   0  0  0  0  0  0  0  0  0  0  0  0
   -1.4020    9.7253    0.6794 H   0  0  0  0  0  0  0  0  0  0  0  0
   -0.3706    9.5575   -0.7401 H   0  0  0  0  0  0  0  0  0  0  0  0
   -2.1342    9.5452   -0.9124 H   0  0  0  0  0  0  0  0  0  0  0  0
   -3.4460    7.5867   -0.1004 H   0  0  0  0  0  0  0  0  0  0  0  0
   -3.4861    5.1704    0.2594 H   0  0  0  0  0  0  0  0  0  0  0  0
   -8.6531    0.2228    0.5836 H   0  0  0  0  0  0  0  0  0  0  0  0
   -8.9030   -1.1973   -1.4048 H   0  0  0  0  0  0  0  0  0  0  0  0
   -6.0610   -3.0020   -3.0337 H   0  0  0  0  0  0  0  0  0  0  0  0
   -7.5913   -2.1914   -3.3991 H   0  0  0  0  0  0  0  0  0  0  0  0
   -7.5781   -3.6242   -2.3781 H   0  0  0  0  0  0  0  0  0  0  0  0
   -4.7905   -2.3075   -1.1330 H   0  0  0  0  0  0  0  0  0  0  0  0
   -4.5535   -0.9423    0.8849 H   0  0  0  0  0  0  0  0  0  0  0  0
   -7.2617    2.7095    3.3216 H   0  0  0  0  0  0  0  0  0  0  0  0
   -9.0572    2.7768    4.9897 H   0  0  0  0  0  0  0  0  0  0  0  0
  -10.3617    0.0573    6.6999 H   0  0  0  0  0  0  0  0  0  0  0  0
  -11.5478    0.3681    5.4389 H   0  0  0  0  0  0  0  0  0  0  0  0
  -10.7581    1.7222    6.2574 H   0  0  0  0  0  0  0  0  0  0  0  0
   -9.7328   -1.3994    4.4404 H   0  0  0  0  0  0  0  0  0  0  0  0
   -7.9284   -1.4777    2.7807 H   0  0  0  0  0  0  0  0  0  0  0  0
   -5.6924    0.1623    4.4148 H   0  0  0  0  0  0  0  0  0  0  0  0
   -1.8195    3.3792    8.1593 H   0  0  0  0  0  0  0  0  0  0  0  0
   -4.3016   -0.7792    9.6425 H   0  0  0  0  0  0  0  0  0  0  0  0
   -1.8763    0.0377   11.9143 H   0  0  0  0  0  0  0  0  0  0  0  0
   -4.2419    0.7696   12.8963 H   0  0  0  0  0  0  0  0  0  0  0  0
   -2.3998    1.2624   14.7044 H   0  0  0  0  0  0  0  0  0  0  0  0
   -1.0808    3.4471   13.9670 H   0  0  0  0  0  0  0  0  0  0  0  0
   -2.1117    4.3009   11.7059 H   0  0  0  0  0  0  0  0  0  0  0  0
   -4.2676    2.8012   11.1386 H   0  0  0  0  0  0  0  0  0  0  0  0
   -4.3486    3.4132   12.8070 H   0  0  0  0  0  0  0  0  0  0  0  0
   -0.5843    2.1783   11.1911 H   0  0  0  0  0  0  0  0  0  0  0  0
  1  2  2  0  0  0  0
  2  3  1  0  0  0  0
  3  4  2  0  0  0  0
  3  5  1  0  0  0  0
  5  6  2  0  0  0  0
  6  7  1  0  0  0  0
  7  8  2  0  0  0  0
  8  9  1  0  0  0  0
  9 10  2  0  0  0  0
 10 11  1  0  0  0  0
 11 12  2  0  0  0  0
 12 13  1  0  0  0  0
 13 14  3  0  0  0  0
 12 15  1  0  0  0  0
 15 16  3  0  0  0  0
  8 17  1  0  0  0  0
 17 18  1  0  0  0  0
 18 19  1  0  0  0  0
 19 20  2  0  0  0  0
 20 21  1  0  0  0  0
 21 22  1  0  0  0  0
 21 23  1  0  0  0  0
  1 24  1  0  0  0  0
 24 25  1  0  0  0  0
 25 26  2  0  0  0  0
 26 27  1  0  0  0  0
 27 28  2  0  0  0  0
 28 29  1  0  0  0  0
 29 30  1  0  0  0  0
 30 31  1  0  0  0  0
 28 32  1  0  0  0  0
 32 33  2  0  0  0  0
 33 34  1  0  0  0  0
 34 35  2  0  0  0  0
 35 36  1  0  0  0  0
 36 37  1  0  0  0  0
 35 38  1  0  0  0  0
 34 39  1  0  0  0  0
 39 40  2  0  0  0  0
 40 41  1  0  0  0  0
 41 42  1  0  0  0  0
 42 43  2  0  0  0  0
 43 44  1  0  0  0  0
 44 45  2  0  0  0  0
 45 46  1  0  0  0  0
 46 47  1  0  0  0  0
 45 48  1  0  0  0  0
 48 49  2  0  0  0  0
 41 50  1  0  0  0  0
 50 51  2  0  0  0  0
 51 52  1  0  0  0  0
 52 53  2  0  0  0  0
 53 54  1  0  0  0  0
 54 55  1  0  0  0  0
 53 56  1  0  0  0  0
 56 57  2  0  0  0  0
 40 58  1  0  0  0  0
 58 59  1  0  0  0  0
 59 60  1  0  0  0  0
 60 61  2  0  0  0  0
 61 62  1  0  0  0  0
 62 63  1  0  0  0  0
 63 64  2  0  0  0  0
 64 65  1  0  0  0  0
 65 66  2  0  0  0  0
 66 67  1  0  0  0  0
 67 68  1  0  0  0  0
 66 69  1  0  0  0  0
 69 70  2  0  0  0  0
 62 71  1  0  0  0  0
 71 72  2  0  0  0  0
 72 73  1  0  0  0  0
 73 74  2  0  0  0  0
 74 75  1  0  0  0  0
 75 76  1  0  0  0  0
 74 77  1  0  0  0  0
 77 78  2  0  0  0  0
 61 79  1  0  0  0  0
 79 80  1  0  0  0  0
 60 81  1  0  0  0  0
 81 82  2  0  0  0  0
 82 83  1  0  0  0  0
 83 84  1  0  0  0  0
 84 85  2  0  0  0  0
 85 86  1  0  0  0  0
 86 87  2  0  0  0  0
 87 88  1  0  0  0  0
 87 89  1  0  0  0  0
 89 90  2  0  0  0  0
 83 91  1  0  0  0  0
 91 92  2  0  0  0  0
 92 93  1  0  0  0  0
 93 94  2  0  0  0  0
 94 95  1  0  0  0  0
 94 96  1  0  0  0  0
 96 97  2  0  0  0  0
 82 98  1  0  0  0  0
 98 99  1  0  0  0  0
 99100  1  0  0  0  0
100101  2  0  0  0  0
101102  1  0  0  0  0
102103  1  0  0  0  0
103104  2  0  0  0  0
104105  1  0  0  0  0
105106  2  0  0  0  0
106107  1  0  0  0  0
106108  1  0  0  0  0
108109  2  0  0  0  0
102110  1  0  0  0  0
110111  2  0  0  0  0
111112  1  0  0  0  0
112113  2  0  0  0  0
113114  1  0  0  0  0
113115  1  0  0  0  0
115116  2  0  0  0  0
101117  1  0  0  0  0
117118  1  0  0  0  0
100119  1  0  0  0  0
119120  2  0  0  0  0
120121  1  0  0  0  0
121122  2  0  0  0  0
121123  1  0  0  0  0
123124  2  0  0  0  0
124125  1  0  0  0  0
125126  2  0  0  0  0
126127  1  0  0  0  0
127128  2  0  0  0  0
128129  1  0  0  0  0
129130  2  0  0  0  0
130131  1  0  0  0  0
131132  3  0  0  0  0
130133  1  0  0  0  0
133134  3  0  0  0  0
126135  1  0  0  0  0
135136  1  0  0  0  0
136137  1  0  0  0  0
137138  2  0  0  0  0
138139  1  0  0  0  0
139140  1  0  0  0  0
139141  1  0  0  0  0
 11  2  1  0  0  0  0
 23 17  1  0  0  0  0
 36 24  2  0  0  0  0
 80 39  1  0  0  0  0
118 81  1  0  0  0  0
129120  1  0  0  0  0
141135  1  0  0  0  0
 10  5  1  0  0  0  0
 22 18  1  0  0  0  0
 33 25  1  0  0  0  0
 49 42  1  0  0  0  0
 57 50  1  0  0  0  0
 79 58  2  0  0  0  0
 90 84  1  0  0  0  0
 97 91  1  0  0  0  0
117 98  2  0  0  0  0
128123  1  0  0  0  0
140136  1  0  0  0  0
 23  7  1  0  0  0  0
 70 63  1  0  0  0  0
 78 71  1  0  0  0  0
109103  1  0  0  0  0
116110  1  0  0  0  0
141125  1  0  0  0  0
  1142  1  0  0  0  0
  6143  1  0  0  0  0
  9144  1  0  0  0  0
 17145  1  0  0  0  0
 18146  1  0  0  0  0
 19147  1  0  0  0  0
 20148  1  0  0  0  0
 21149  1  0  0  0  0
 22150  1  0  0  0  0
 22151  1  0  0  0  0
 23152  1  0  0  0  0
 27153  1  0  0  0  0
 30154  1  0  0  0  0
 30155  1  0  0  0  0
 31156  1  0  0  0  0
 31157  1  0  0  0  0
 31158  1  0  0  0  0
 43159  1  0  0  0  0
 44160  1  0  0  0  0
 47161  1  0  0  0  0
 47162  1  0  0  0  0
 47163  1  0  0  0  0
 48164  1  0  0  0  0
 49165  1  0  0  0  0
 51166  1  0  0  0  0
 52167  1  0  0  0  0
 55168  1  0  0  0  0
 55169  1  0  0  0  0
 55170  1  0  0  0  0
 56171  1  0  0  0  0
 57172  1  0  0  0  0
 64173  1  0  0  0  0
 65174  1  0  0  0  0
 68175  1  0  0  0  0
 68176  1  0  0  0  0
 68177  1  0  0  0  0
 69178  1  0  0  0  0
 70179  1  0  0  0  0
 72180  1  0  0  0  0
 73181  1  0  0  0  0
 76182  1  0  0  0  0
 76183  1  0  0  0  0
 76184  1  0  0  0  0
 77185  1  0  0  0  0
 78186  1  0  0  0  0
 85187  1  0  0  0  0
 86188  1  0  0  0  0
 88189  1  0  0  0  0
 88190  1  0  0  0  0
 88191  1  0  0  0  0
 89192  1  0  0  0  0
 90193  1  0  0  0  0
 92194  1  0  0  0  0
 93195  1  0  0  0  0
 95196  1  0  0  0  0
 95197  1  0  0  0  0
 95198  1  0  0  0  0
 96199  1  0  0  0  0
 97200  1  0  0  0  0
104201  1  0  0  0  0
105202  1  0  0  0  0
107203  1  0  0  0  0
107204  1  0  0  0  0
107205  1  0  0  0  0
108206  1  0  0  0  0
109207  1  0  0  0  0
111208  1  0  0  0  0
112209  1  0  0  0  0
114210  1  0  0  0  0
114211  1  0  0  0  0
114212  1  0  0  0  0
115213  1  0  0  0  0
116214  1  0  0  0  0
119215  1  0  0  0  0
124216  1  0  0  0  0
127217  1  0  0  0  0
135218  1  0  0  0  0
136219  1  0  0  0  0
137220  1  0  0  0  0
138221  1  0  0  0  0
139222  1  0  0  0  0
140223  1  0  0  0  0
140224  1  0  0  0  0
141225  1  0  0  0  0
M  END
