
  xtb     02142201123D
 energy: -412.437821154084 gnorm: 0.000368138229 xtb: 6.4.1 (unknown)
252277  0     0  0            999 V2000
    1.1369   -1.9303    7.5819 C   0  0  0  0  0  0  0  0  0  0  0  0
    2.1636   -2.8342    7.7216 C   0  0  0  0  0  0  0  0  0  0  0  0
    3.1967   -3.1377    6.7276 C   0  0  0  0  0  0  0  0  0  0  0  0
    3.4618   -2.5167    5.7128 O   0  0  0  0  0  0  0  0  0  0  0  0
    3.8665   -4.3656    7.1934 C   0  0  0  0  0  0  0  0  0  0  0  0
    4.8883   -5.0590    6.5495 C   0  0  0  0  0  0  0  0  0  0  0  0
    5.3047   -6.1862    7.2168 C   0  0  0  0  0  0  0  0  0  0  0  0
    4.7478   -6.5917    8.4361 C   0  0  0  0  0  0  0  0  0  0  0  0
    3.7413   -5.9138    9.0835 C   0  0  0  0  0  0  0  0  0  0  0  0
    3.2997   -4.7655    8.4199 C   0  0  0  0  0  0  0  0  0  0  0  0
    2.2704   -3.7948    8.7940 C   0  0  0  0  0  0  0  0  0  0  0  0
    1.5363   -3.8203    9.9565 C   0  0  0  0  0  0  0  0  0  0  0  0
    0.6709   -2.7995   10.3939 C   0  0  0  0  0  0  0  0  0  0  0  0
   -0.0194   -1.9962   10.8416 N   0  0  0  0  0  0  0  0  0  0  0  0
    1.5613   -4.8756   10.8884 C   0  0  0  0  0  0  0  0  0  0  0  0
    1.4977   -5.7233   11.6617 N   0  0  0  0  0  0  0  0  0  0  0  0
    5.6442   -7.8015    8.5351 C   0  0  0  0  0  0  0  0  0  0  0  0
    6.8381   -7.6999    9.5074 C   0  0  0  0  0  0  0  0  0  0  0  0
    7.7757   -8.7915    9.0439 C   0  0  0  0  0  0  0  0  0  0  0  0
    8.3037   -8.4065    7.8891 C   0  0  0  0  0  0  0  0  0  0  0  0
    7.7317   -7.0483    7.5525 C   0  0  0  0  0  0  0  0  0  0  0  0
    7.5768   -6.4697    8.9648 C   0  0  0  0  0  0  0  0  0  0  0  0
    6.2657   -7.3485    7.1750 C   0  0  0  0  0  0  0  0  0  0  0  0
    0.8031   -1.0955    6.5146 C   0  0  0  0  0  0  0  0  0  0  0  0
   -0.4422   -0.4252    6.4133 C   0  0  0  0  0  0  0  0  0  0  0  0
   -1.5159   -0.5700    7.2550 N   0  0  0  0  0  0  0  0  0  0  0  0
   -1.8479   -1.7752    7.8946 C   0  0  0  0  0  0  0  0  0  0  0  0
   -1.6142   -3.0051    7.2806 C   0  0  0  0  0  0  0  0  0  0  0  0
   -1.8796   -4.1828    7.9484 C   0  0  0  0  0  0  0  0  0  0  0  0
   -2.4123   -4.1524    9.2324 C   0  0  0  0  0  0  0  0  0  0  0  0
   -2.7553   -5.6033   10.1769 S   0  0  0  0  0  0  0  0  0  0  0  0
   -1.6334   -6.8380    9.4581 C   0  0  0  0  0  0  0  0  0  0  0  0
   -2.7147   -2.9267    9.8182 C   0  0  0  0  0  0  0  0  0  0  0  0
   -2.4267   -1.7495    9.1634 C   0  0  0  0  0  0  0  0  0  0  0  0
   -2.3873    0.5289    7.3960 C   0  0  0  0  0  0  0  0  0  0  0  0
   -1.8692    1.8054    7.6145 C   0  0  0  0  0  0  0  0  0  0  0  0
   -2.7155    2.8841    7.7295 C   0  0  0  0  0  0  0  0  0  0  0  0
   -4.0960    2.7127    7.6329 C   0  0  0  0  0  0  0  0  0  0  0  0
   -5.0769    4.1674    7.7880 S   0  0  0  0  0  0  0  0  0  0  0  0
   -6.7632    3.5996    7.4287 C   0  0  0  0  0  0  0  0  0  0  0  0
   -4.6144    1.4391    7.4353 C   0  0  0  0  0  0  0  0  0  0  0  0
   -3.7647    0.3572    7.3165 C   0  0  0  0  0  0  0  0  0  0  0  0
   -0.4672    0.4123    5.2841 C   0  0  0  0  0  0  0  0  0  0  0  0
   -1.6538    1.4222    4.5331 S   0  0  0  0  0  0  0  0  0  0  0  0
   -0.5604    1.7937    3.2075 C   0  0  0  0  0  0  0  0  0  0  0  0
    0.6687    1.1686    3.3687 C   0  0  0  0  0  0  0  0  0  0  0  0
    1.8318    1.2770    2.5742 N   0  0  0  0  0  0  0  0  0  0  0  0
    2.8709    2.0506    3.0910 C   0  0  0  0  0  0  0  0  0  0  0  0
    4.0705    2.2206    2.4003 C   0  0  0  0  0  0  0  0  0  0  0  0
    5.0754    3.0345    2.8809 C   0  0  0  0  0  0  0  0  0  0  0  0
    4.9066    3.7264    4.0692 C   0  0  0  0  0  0  0  0  0  0  0  0
    6.1109    4.8240    4.7586 S   0  0  0  0  0  0  0  0  0  0  0  0
    7.3596    4.9592    3.4478 C   0  0  0  0  0  0  0  0  0  0  0  0
    3.7139    3.5752    4.7672 C   0  0  0  0  0  0  0  0  0  0  0  0
    2.7146    2.7564    4.2889 C   0  0  0  0  0  0  0  0  0  0  0  0
    2.0443    0.3282    1.5546 C   0  0  0  0  0  0  0  0  0  0  0  0
    1.0883    0.1243    0.5638 C   0  0  0  0  0  0  0  0  0  0  0  0
    1.3601   -0.6637   -0.5400 C   0  0  0  0  0  0  0  0  0  0  0  0
    2.5885   -1.2951   -0.6565 C   0  0  0  0  0  0  0  0  0  0  0  0
    3.0962   -2.2352   -2.0617 S   0  0  0  0  0  0  0  0  0  0  0  0
    1.7559   -2.0190   -3.2605 C   0  0  0  0  0  0  0  0  0  0  0  0
    3.4948   -1.2089    0.3992 C   0  0  0  0  0  0  0  0  0  0  0  0
    3.2238   -0.4194    1.4930 C   0  0  0  0  0  0  0  0  0  0  0  0
    0.6994    0.3729    4.5334 C   0  0  0  0  0  0  0  0  0  0  0  0
    1.8758   -0.7209    5.1617 S   0  0  0  0  0  0  0  0  0  0  0  0
   -1.0674    2.4697    2.0388 C   0  0  0  0  0  0  0  0  0  0  0  0
   -2.4208    2.4674    1.7127 C   0  0  0  0  0  0  0  0  0  0  0  0
   -3.3477    2.1333    2.6319 F   0  0  0  0  0  0  0  0  0  0  0  0
   -2.8892    2.6969    0.4144 C   0  0  0  0  0  0  0  0  0  0  0  0
   -4.2174    2.6174    0.2015 F   0  0  0  0  0  0  0  0  0  0  0  0
   -2.0347    2.8868   -0.6551 C   0  0  0  0  0  0  0  0  0  0  0  0
   -0.6612    2.9919   -0.3400 C   0  0  0  0  0  0  0  0  0  0  0  0
    0.2702    2.8795   -1.2832 N   0  0  0  0  0  0  0  0  0  0  0  0
    1.5429    3.0013   -1.0051 C   0  0  0  0  0  0  0  0  0  0  0  0
    2.4718    2.3609   -1.9246 C   0  0  0  0  0  0  0  0  0  0  0  0
    2.0589    2.0350   -3.2192 C   0  0  0  0  0  0  0  0  0  0  0  0
    2.8856    1.2853   -4.0290 C   0  0  0  0  0  0  0  0  0  0  0  0
    4.1087    0.8188   -3.5695 C   0  0  0  0  0  0  0  0  0  0  0  0
    4.5257    1.1319   -2.2783 C   0  0  0  0  0  0  0  0  0  0  0  0
    5.6859    0.7206   -1.7086 O   0  0  0  0  0  0  0  0  0  0  0  0
    6.4642   -0.2567   -2.3752 C   0  0  0  0  0  0  0  0  0  0  0  0
    7.5892   -0.6647   -1.4375 C   0  0  0  0  0  0  0  0  0  0  0  0
    3.7099    1.9223   -1.4733 C   0  0  0  0  0  0  0  0  0  0  0  0
    1.8607    3.6394    0.2550 C   0  0  0  0  0  0  0  0  0  0  0  0
    1.0084    3.4537    1.2336 N   0  0  0  0  0  0  0  0  0  0  0  0
   -0.2069    2.9709    1.0158 C   0  0  0  0  0  0  0  0  0  0  0  0
    2.9511    4.5826    0.4711 C   0  0  0  0  0  0  0  0  0  0  0  0
    3.0895    5.1849    1.7259 C   0  0  0  0  0  0  0  0  0  0  0  0
    4.0641    6.1354    1.9319 C   0  0  0  0  0  0  0  0  0  0  0  0
    4.9218    6.5125    0.9081 C   0  0  0  0  0  0  0  0  0  0  0  0
    4.7872    5.9306   -0.3492 C   0  0  0  0  0  0  0  0  0  0  0  0
    5.5528    6.2279   -1.4319 O   0  0  0  0  0  0  0  0  0  0  0  0
    6.5821    7.1888   -1.3048 C   0  0  0  0  0  0  0  0  0  0  0  0
    7.2661    7.3133   -2.6570 C   0  0  0  0  0  0  0  0  0  0  0  0
    3.7957    4.9738   -0.5619 C   0  0  0  0  0  0  0  0  0  0  0  0
   -2.4361    2.6733   -2.0356 C   0  0  0  0  0  0  0  0  0  0  0  0
   -2.2947    3.4562   -3.1657 C   0  0  0  0  0  0  0  0  0  0  0  0
   -1.9957    4.7953   -3.2023 N   0  0  0  0  0  0  0  0  0  0  0  0
   -2.5573    5.6357   -4.1780 C   0  0  0  0  0  0  0  0  0  0  0  0
   -1.8737    6.7774   -4.5872 C   0  0  0  0  0  0  0  0  0  0  0  0
   -2.4210    7.6115   -5.5414 C   0  0  0  0  0  0  0  0  0  0  0  0
   -3.6572    7.3389   -6.1140 C   0  0  0  0  0  0  0  0  0  0  0  0
   -4.2299    8.2261   -7.1762 C   0  0  0  0  0  0  0  0  0  0  0  0
   -4.3455    6.2127   -5.6815 C   0  0  0  0  0  0  0  0  0  0  0  0
   -3.8140    5.3757   -4.7209 C   0  0  0  0  0  0  0  0  0  0  0  0
   -1.4217    5.4233   -2.0597 C   0  0  0  0  0  0  0  0  0  0  0  0
   -2.2280    5.7951   -0.9915 C   0  0  0  0  0  0  0  0  0  0  0  0
   -1.6647    6.3912    0.1196 C   0  0  0  0  0  0  0  0  0  0  0  0
   -0.2997    6.6537    0.1744 C   0  0  0  0  0  0  0  0  0  0  0  0
    0.2988    7.2807    1.3941 C   0  0  0  0  0  0  0  0  0  0  0  0
    0.4880    6.3114   -0.9161 C   0  0  0  0  0  0  0  0  0  0  0  0
   -0.0612    5.6859   -2.0215 C   0  0  0  0  0  0  0  0  0  0  0  0
   -2.5132    2.6772   -4.3350 C   0  0  0  0  0  0  0  0  0  0  0  0
   -2.4027    3.0141   -6.0205 S   0  0  0  0  0  0  0  0  0  0  0  0
   -2.6841    1.3134   -6.4088 C   0  0  0  0  0  0  0  0  0  0  0  0
   -2.9711    0.5560   -5.2566 C   0  0  0  0  0  0  0  0  0  0  0  0
   -3.4296   -0.7382   -5.2545 N   0  0  0  0  0  0  0  0  0  0  0  0
   -4.2450   -1.2144   -6.2988 C   0  0  0  0  0  0  0  0  0  0  0  0
   -5.1509   -0.3784   -6.9454 C   0  0  0  0  0  0  0  0  0  0  0  0
   -5.9080   -0.8535   -7.9957 C   0  0  0  0  0  0  0  0  0  0  0  0
   -5.7992   -2.1730   -8.4198 C   0  0  0  0  0  0  0  0  0  0  0  0
   -6.5826   -2.6712   -9.5923 C   0  0  0  0  0  0  0  0  0  0  0  0
   -4.9333   -3.0162   -7.7350 C   0  0  0  0  0  0  0  0  0  0  0  0
   -4.1614   -2.5495   -6.6888 C   0  0  0  0  0  0  0  0  0  0  0  0
   -3.3438   -1.5292   -4.0861 C   0  0  0  0  0  0  0  0  0  0  0  0
   -4.4607   -2.2318   -3.6436 C   0  0  0  0  0  0  0  0  0  0  0  0
   -4.3815   -3.0251   -2.5168 C   0  0  0  0  0  0  0  0  0  0  0  0
   -3.1974   -3.1328   -1.7985 C   0  0  0  0  0  0  0  0  0  0  0  0
   -3.1032   -4.0036   -0.5848 C   0  0  0  0  0  0  0  0  0  0  0  0
   -2.0891   -2.4249   -2.2464 C   0  0  0  0  0  0  0  0  0  0  0  0
   -2.1503   -1.6347   -3.3773 C   0  0  0  0  0  0  0  0  0  0  0  0
   -2.8234    1.3463   -4.0945 C   0  0  0  0  0  0  0  0  0  0  0  0
   -2.8953    1.0165   -2.4020 S   0  0  0  0  0  0  0  0  0  0  0  0
   -2.6027    0.9583   -7.7636 C   0  0  0  0  0  0  0  0  0  0  0  0
   -2.3717   -0.2633   -8.3469 C   0  0  0  0  0  0  0  0  0  0  0  0
   -2.8163   -0.5166   -9.7363 C   0  0  0  0  0  0  0  0  0  0  0  0
   -3.2835    0.2894  -10.5125 O   0  0  0  0  0  0  0  0  0  0  0  0
   -2.6190   -1.9655   -9.9587 C   0  0  0  0  0  0  0  0  0  0  0  0
   -2.9219   -2.6954  -11.1048 C   0  0  0  0  0  0  0  0  0  0  0  0
   -2.5698   -4.0233  -11.0374 C   0  0  0  0  0  0  0  0  0  0  0  0
   -1.9481   -4.5848   -9.9154 C   0  0  0  0  0  0  0  0  0  0  0  0
   -1.6495   -3.8779   -8.7746 C   0  0  0  0  0  0  0  0  0  0  0  0
   -2.0146   -2.5313   -8.8193 C   0  0  0  0  0  0  0  0  0  0  0  0
   -1.8015   -1.4734   -7.8325 C   0  0  0  0  0  0  0  0  0  0  0  0
   -0.9917   -1.5758   -6.7209 C   0  0  0  0  0  0  0  0  0  0  0  0
   -0.4617   -0.4698   -6.0386 C   0  0  0  0  0  0  0  0  0  0  0  0
    0.0642    0.3838   -5.4749 N   0  0  0  0  0  0  0  0  0  0  0  0
   -0.5151   -2.7820   -6.1816 C   0  0  0  0  0  0  0  0  0  0  0  0
   -0.1323   -3.7249   -5.6460 N   0  0  0  0  0  0  0  0  0  0  0  0
   -1.8116   -5.9391  -10.5671 C   0  0  0  0  0  0  0  0  0  0  0  0
   -2.7796   -7.0695  -10.1439 C   0  0  0  0  0  0  0  0  0  0  0  0
   -4.0375   -6.3968   -9.6558 C   0  0  0  0  0  0  0  0  0  0  0  0
   -4.6438   -5.8621  -10.7071 C   0  0  0  0  0  0  0  0  0  0  0  0
   -3.8094   -6.1669  -11.9257 C   0  0  0  0  0  0  0  0  0  0  0  0
   -3.2474   -7.5423  -11.5299 C   0  0  0  0  0  0  0  0  0  0  0  0
   -2.5196   -5.3178  -11.8122 C   0  0  0  0  0  0  0  0  0  0  0  0
    0.4307   -1.8948    8.4010 H   0  0  0  0  0  0  0  0  0  0  0  0
    5.2864   -4.7110    5.6093 H   0  0  0  0  0  0  0  0  0  0  0  0
    3.3239   -6.2409   10.0211 H   0  0  0  0  0  0  0  0  0  0  0  0
    5.1382   -8.7642    8.5815 H   0  0  0  0  0  0  0  0  0  0  0  0
    6.5691   -7.6998   10.5601 H   0  0  0  0  0  0  0  0  0  0  0  0
    7.9109   -9.7248    9.5584 H   0  0  0  0  0  0  0  0  0  0  0  0
    8.9680   -8.9539    7.2463 H   0  0  0  0  0  0  0  0  0  0  0  0
    8.2773   -6.4541    6.8243 H   0  0  0  0  0  0  0  0  0  0  0  0
    6.9963   -5.5499    9.0059 H   0  0  0  0  0  0  0  0  0  0  0  0
    8.5370   -6.3167    9.4548 H   0  0  0  0  0  0  0  0  0  0  0  0
    6.1745   -8.0098    6.3150 H   0  0  0  0  0  0  0  0  0  0  0  0
   -1.2045   -3.0373    6.2817 H   0  0  0  0  0  0  0  0  0  0  0  0
   -1.6771   -5.1207    7.4556 H   0  0  0  0  0  0  0  0  0  0  0  0
   -0.6336   -6.4200    9.3867 H   0  0  0  0  0  0  0  0  0  0  0  0
   -1.9953   -7.1672    8.4882 H   0  0  0  0  0  0  0  0  0  0  0  0
   -1.6328   -7.6722   10.1524 H   0  0  0  0  0  0  0  0  0  0  0  0
   -3.1420   -2.9074   10.8078 H   0  0  0  0  0  0  0  0  0  0  0  0
   -2.6204   -0.8036    9.6439 H   0  0  0  0  0  0  0  0  0  0  0  0
   -0.8011    1.9410    7.6973 H   0  0  0  0  0  0  0  0  0  0  0  0
   -2.3200    3.8736    7.8984 H   0  0  0  0  0  0  0  0  0  0  0  0
   -7.0988    2.9099    8.1977 H   0  0  0  0  0  0  0  0  0  0  0  0
   -7.3806    4.4924    7.4425 H   0  0  0  0  0  0  0  0  0  0  0  0
   -6.7943    3.1435    6.4437 H   0  0  0  0  0  0  0  0  0  0  0  0
   -5.6769    1.2742    7.3639 H   0  0  0  0  0  0  0  0  0  0  0  0
   -4.1709   -0.6298    7.1533 H   0  0  0  0  0  0  0  0  0  0  0  0
    4.2316    1.7152    1.4633 H   0  0  0  0  0  0  0  0  0  0  0  0
    5.9812    3.1222    2.3030 H   0  0  0  0  0  0  0  0  0  0  0  0
    8.0538    5.7248    3.7802 H   0  0  0  0  0  0  0  0  0  0  0  0
    6.8810    5.2624    2.5209 H   0  0  0  0  0  0  0  0  0  0  0  0
    7.8831    4.0145    3.3307 H   0  0  0  0  0  0  0  0  0  0  0  0
    3.5734    4.1138    5.6923 H   0  0  0  0  0  0  0  0  0  0  0  0
    1.7976    2.6840    4.8520 H   0  0  0  0  0  0  0  0  0  0  0  0
    0.1205    0.5942    0.6366 H   0  0  0  0  0  0  0  0  0  0  0  0
    0.6079   -0.7515   -1.3075 H   0  0  0  0  0  0  0  0  0  0  0  0
    1.5867   -0.9603   -3.4380 H   0  0  0  0  0  0  0  0  0  0  0  0
    2.0957   -2.4985   -4.1734 H   0  0  0  0  0  0  0  0  0  0  0  0
    0.8575   -2.5190   -2.9120 H   0  0  0  0  0  0  0  0  0  0  0  0
    4.4177   -1.7655    0.3449 H   0  0  0  0  0  0  0  0  0  0  0  0
    3.9248   -0.3777    2.3124 H   0  0  0  0  0  0  0  0  0  0  0  0
    1.0919    2.3592   -3.5673 H   0  0  0  0  0  0  0  0  0  0  0  0
    2.5632    1.0358   -5.0288 H   0  0  0  0  0  0  0  0  0  0  0  0
    4.7189    0.2085   -4.2162 H   0  0  0  0  0  0  0  0  0  0  0  0
    6.8784    0.1588   -3.3048 H   0  0  0  0  0  0  0  0  0  0  0  0
    5.8393   -1.1258   -2.6197 H   0  0  0  0  0  0  0  0  0  0  0  0
    8.2109   -1.4184   -1.9121 H   0  0  0  0  0  0  0  0  0  0  0  0
    8.2001    0.1993   -1.1899 H   0  0  0  0  0  0  0  0  0  0  0  0
    7.1748   -1.0702   -0.5188 H   0  0  0  0  0  0  0  0  0  0  0  0
    4.0460    2.1567   -0.4776 H   0  0  0  0  0  0  0  0  0  0  0  0
    2.4256    4.8904    2.5206 H   0  0  0  0  0  0  0  0  0  0  0  0
    4.1682    6.5962    2.9029 H   0  0  0  0  0  0  0  0  0  0  0  0
    5.6740    7.2626    1.0977 H   0  0  0  0  0  0  0  0  0  0  0  0
    6.1601    8.1578   -1.0029 H   0  0  0  0  0  0  0  0  0  0  0  0
    7.3066    6.8687   -0.5425 H   0  0  0  0  0  0  0  0  0  0  0  0
    7.6744    6.3515   -2.9548 H   0  0  0  0  0  0  0  0  0  0  0  0
    6.5479    7.6309   -3.4077 H   0  0  0  0  0  0  0  0  0  0  0  0
    8.0698    8.0417   -2.5995 H   0  0  0  0  0  0  0  0  0  0  0  0
    3.7017    4.5608   -1.5531 H   0  0  0  0  0  0  0  0  0  0  0  0
   -0.9137    7.0101   -4.1528 H   0  0  0  0  0  0  0  0  0  0  0  0
   -1.8737    8.4905   -5.8500 H   0  0  0  0  0  0  0  0  0  0  0  0
   -3.9766    7.8359   -8.1626 H   0  0  0  0  0  0  0  0  0  0  0  0
   -3.8296    9.2341   -7.0989 H   0  0  0  0  0  0  0  0  0  0  0  0
   -5.3144    8.2695   -7.1022 H   0  0  0  0  0  0  0  0  0  0  0  0
   -5.3199    5.9929   -6.0933 H   0  0  0  0  0  0  0  0  0  0  0  0
   -4.3857    4.5276   -4.3734 H   0  0  0  0  0  0  0  0  0  0  0  0
   -3.2913    5.6090   -1.0356 H   0  0  0  0  0  0  0  0  0  0  0  0
   -2.2919    6.6634    0.9561 H   0  0  0  0  0  0  0  0  0  0  0  0
   -0.2813    8.1470    1.7062 H   0  0  0  0  0  0  0  0  0  0  0  0
    1.3259    7.5852    1.2121 H   0  0  0  0  0  0  0  0  0  0  0  0
    0.2974    6.5627    2.2134 H   0  0  0  0  0  0  0  0  0  0  0  0
    1.5459    6.5287   -0.8986 H   0  0  0  0  0  0  0  0  0  0  0  0
    0.5628    5.3959   -2.8537 H   0  0  0  0  0  0  0  0  0  0  0  0
   -5.2606    0.6462   -6.6236 H   0  0  0  0  0  0  0  0  0  0  0  0
   -6.5964   -0.1873   -8.4936 H   0  0  0  0  0  0  0  0  0  0  0  0
   -6.9672   -3.6713   -9.4024 H   0  0  0  0  0  0  0  0  0  0  0  0
   -7.4139   -2.0078   -9.8163 H   0  0  0  0  0  0  0  0  0  0  0  0
   -5.9355   -2.7149  -10.4691 H   0  0  0  0  0  0  0  0  0  0  0  0
   -4.8451   -4.0477   -8.0409 H   0  0  0  0  0  0  0  0  0  0  0  0
   -3.4903   -3.2174   -6.1678 H   0  0  0  0  0  0  0  0  0  0  0  0
   -5.3925   -2.1475   -4.1834 H   0  0  0  0  0  0  0  0  0  0  0  0
   -5.2589   -3.5613   -2.1857 H   0  0  0  0  0  0  0  0  0  0  0  0
   -2.4835   -3.5361    0.1774 H   0  0  0  0  0  0  0  0  0  0  0  0
   -2.6464   -4.9584   -0.8473 H   0  0  0  0  0  0  0  0  0  0  0  0
   -4.0882   -4.2006   -0.1694 H   0  0  0  0  0  0  0  0  0  0  0  0
   -1.1633   -2.4977   -1.6947 H   0  0  0  0  0  0  0  0  0  0  0  0
   -1.2753   -1.0998   -3.7136 H   0  0  0  0  0  0  0  0  0  0  0  0
   -2.7854    1.7662   -8.4663 H   0  0  0  0  0  0  0  0  0  0  0  0
   -3.3717   -2.2189  -11.9624 H   0  0  0  0  0  0  0  0  0  0  0  0
   -1.1676   -4.3193   -7.9175 H   0  0  0  0  0  0  0  0  0  0  0  0
   -0.7907   -6.2954  -10.6927 H   0  0  0  0  0  0  0  0  0  0  0  0
   -2.3450   -7.8131   -9.4810 H   0  0  0  0  0  0  0  0  0  0  0  0
   -4.3197   -6.3437   -8.6202 H   0  0  0  0  0  0  0  0  0  0  0  0
   -5.5368   -5.2662  -10.7307 H   0  0  0  0  0  0  0  0  0  0  0  0
   -4.3170   -6.0911  -12.8839 H   0  0  0  0  0  0  0  0  0  0  0  0
   -2.4339   -7.8796  -12.1706 H   0  0  0  0  0  0  0  0  0  0  0  0
   -4.0158   -8.3122  -11.4756 H   0  0  0  0  0  0  0  0  0  0  0  0
   -1.9658   -5.2871  -12.7489 H   0  0  0  0  0  0  0  0  0  0  0  0
  1  2  2  0  0  0  0
  2  3  1  0  0  0  0
  3  4  2  0  0  0  0
  3  5  1  0  0  0  0
  5  6  2  0  0  0  0
  6  7  1  0  0  0  0
  7  8  2  0  0  0  0
  8  9  1  0  0  0  0
  9 10  2  0  0  0  0
 10 11  1  0  0  0  0
 11 12  2  0  0  0  0
 12 13  1  0  0  0  0
 13 14  3  0  0  0  0
 12 15  1  0  0  0  0
 15 16  3  0  0  0  0
  8 17  1  0  0  0  0
 17 18  1  0  0  0  0
 18 19  1  0  0  0  0
 19 20  2  0  0  0  0
 20 21  1  0  0  0  0
 21 22  1  0  0  0  0
 21 23  1  0  0  0  0
  1 24  1  0  0  0  0
 24 25  2  0  0  0  0
 25 26  1  0  0  0  0
 26 27  1  0  0  0  0
 27 28  2  0  0  0  0
 28 29  1  0  0  0  0
 29 30  2  0  0  0  0
 30 31  1  0  0  0  0
 31 32  1  0  0  0  0
 30 33  1  0  0  0  0
 33 34  2  0  0  0  0
 26 35  1  0  0  0  0
 35 36  2  0  0  0  0
 36 37  1  0  0  0  0
 37 38  2  0  0  0  0
 38 39  1  0  0  0  0
 39 40  1  0  0  0  0
 38 41  1  0  0  0  0
 41 42  2  0  0  0  0
 25 43  1  0  0  0  0
 43 44  1  0  0  0  0
 44 45  1  0  0  0  0
 45 46  2  0  0  0  0
 46 47  1  0  0  0  0
 47 48  1  0  0  0  0
 48 49  2  0  0  0  0
 49 50  1  0  0  0  0
 50 51  2  0  0  0  0
 51 52  1  0  0  0  0
 52 53  1  0  0  0  0
 51 54  1  0  0  0  0
 54 55  2  0  0  0  0
 47 56  1  0  0  0  0
 56 57  2  0  0  0  0
 57 58  1  0  0  0  0
 58 59  2  0  0  0  0
 59 60  1  0  0  0  0
 60 61  1  0  0  0  0
 59 62  1  0  0  0  0
 62 63  2  0  0  0  0
 46 64  1  0  0  0  0
 64 65  1  0  0  0  0
 45 66  1  0  0  0  0
 66 67  2  0  0  0  0
 67 68  1  0  0  0  0
 67 69  1  0  0  0  0
 69 70  1  0  0  0  0
 69 71  2  0  0  0  0
 71 72  1  0  0  0  0
 72 73  2  0  0  0  0
 73 74  1  0  0  0  0
 74 75  1  0  0  0  0
 75 76  2  0  0  0  0
 76 77  1  0  0  0  0
 77 78  2  0  0  0  0
 78 79  1  0  0  0  0
 79 80  1  0  0  0  0
 80 81  1  0  0  0  0
 81 82  1  0  0  0  0
 79 83  2  0  0  0  0
 74 84  2  0  0  0  0
 84 85  1  0  0  0  0
 85 86  2  0  0  0  0
 84 87  1  0  0  0  0
 87 88  2  0  0  0  0
 88 89  1  0  0  0  0
 89 90  2  0  0  0  0
 90 91  1  0  0  0  0
 91 92  1  0  0  0  0
 92 93  1  0  0  0  0
 93 94  1  0  0  0  0
 91 95  2  0  0  0  0
 71 96  1  0  0  0  0
 96 97  2  0  0  0  0
 97 98  1  0  0  0  0
 98 99  1  0  0  0  0
 99100  2  0  0  0  0
100101  1  0  0  0  0
101102  2  0  0  0  0
102103  1  0  0  0  0
102104  1  0  0  0  0
104105  2  0  0  0  0
 98106  1  0  0  0  0
106107  2  0  0  0  0
107108  1  0  0  0  0
108109  2  0  0  0  0
109110  1  0  0  0  0
109111  1  0  0  0  0
111112  2  0  0  0  0
 97113  1  0  0  0  0
113114  1  0  0  0  0
114115  1  0  0  0  0
115116  2  0  0  0  0
116117  1  0  0  0  0
117118  1  0  0  0  0
118119  2  0  0  0  0
119120  1  0  0  0  0
120121  2  0  0  0  0
121122  1  0  0  0  0
121123  1  0  0  0  0
123124  2  0  0  0  0
117125  1  0  0  0  0
125126  2  0  0  0  0
126127  1  0  0  0  0
127128  2  0  0  0  0
128129  1  0  0  0  0
128130  1  0  0  0  0
130131  2  0  0  0  0
116132  1  0  0  0  0
132133  1  0  0  0  0
115134  1  0  0  0  0
134135  2  0  0  0  0
135136  1  0  0  0  0
136137  2  0  0  0  0
136138  1  0  0  0  0
138139  2  0  0  0  0
139140  1  0  0  0  0
140141  2  0  0  0  0
141142  1  0  0  0  0
142143  2  0  0  0  0
143144  1  0  0  0  0
144145  2  0  0  0  0
145146  1  0  0  0  0
146147  3  0  0  0  0
145148  1  0  0  0  0
148149  3  0  0  0  0
141150  1  0  0  0  0
150151  1  0  0  0  0
151152  1  0  0  0  0
152153  2  0  0  0  0
153154  1  0  0  0  0
154155  1  0  0  0  0
154156  1  0  0  0  0
 11  2  1  0  0  0  0
 23 17  1  0  0  0  0
 65 24  1  0  0  0  0
 86 66  1  0  0  0  0
 95 87  1  0  0  0  0
133 96  1  0  0  0  0
144135  1  0  0  0  0
156150  1  0  0  0  0
 10  5  1  0  0  0  0
 22 18  1  0  0  0  0
 34 27  1  0  0  0  0
 42 35  1  0  0  0  0
 64 43  2  0  0  0  0
 86 72  1  0  0  0  0
105 99  1  0  0  0  0
112106  1  0  0  0  0
132113  2  0  0  0  0
143138  1  0  0  0  0
155151  1  0  0  0  0
 23  7  1  0  0  0  0
 55 48  1  0  0  0  0
 63 56  1  0  0  0  0
 83 75  1  0  0  0  0
124118  1  0  0  0  0
131125  1  0  0  0  0
156140  1  0  0  0  0
  1157  1  0  0  0  0
  6158  1  0  0  0  0
  9159  1  0  0  0  0
 17160  1  0  0  0  0
 18161  1  0  0  0  0
 19162  1  0  0  0  0
 20163  1  0  0  0  0
 21164  1  0  0  0  0
 22165  1  0  0  0  0
 22166  1  0  0  0  0
 23167  1  0  0  0  0
 28168  1  0  0  0  0
 29169  1  0  0  0  0
 32170  1  0  0  0  0
 32171  1  0  0  0  0
 32172  1  0  0  0  0
 33173  1  0  0  0  0
 34174  1  0  0  0  0
 36175  1  0  0  0  0
 37176  1  0  0  0  0
 40177  1  0  0  0  0
 40178  1  0  0  0  0
 40179  1  0  0  0  0
 41180  1  0  0  0  0
 42181  1  0  0  0  0
 49182  1  0  0  0  0
 50183  1  0  0  0  0
 53184  1  0  0  0  0
 53185  1  0  0  0  0
 53186  1  0  0  0  0
 54187  1  0  0  0  0
 55188  1  0  0  0  0
 57189  1  0  0  0  0
 58190  1  0  0  0  0
 61191  1  0  0  0  0
 61192  1  0  0  0  0
 61193  1  0  0  0  0
 62194  1  0  0  0  0
 63195  1  0  0  0  0
 76196  1  0  0  0  0
 77197  1  0  0  0  0
 78198  1  0  0  0  0
 81199  1  0  0  0  0
 81200  1  0  0  0  0
 82201  1  0  0  0  0
 82202  1  0  0  0  0
 82203  1  0  0  0  0
 83204  1  0  0  0  0
 88205  1  0  0  0  0
 89206  1  0  0  0  0
 90207  1  0  0  0  0
 93208  1  0  0  0  0
 93209  1  0  0  0  0
 94210  1  0  0  0  0
 94211  1  0  0  0  0
 94212  1  0  0  0  0
 95213  1  0  0  0  0
100214  1  0  0  0  0
101215  1  0  0  0  0
103216  1  0  0  0  0
103217  1  0  0  0  0
103218  1  0  0  0  0
104219  1  0  0  0  0
105220  1  0  0  0  0
107221  1  0  0  0  0
108222  1  0  0  0  0
110223  1  0  0  0  0
110224  1  0  0  0  0
110225  1  0  0  0  0
111226  1  0  0  0  0
112227  1  0  0  0  0
119228  1  0  0  0  0
120229  1  0  0  0  0
122230  1  0  0  0  0
122231  1  0  0  0  0
122232  1  0  0  0  0
123233  1  0  0  0  0
124234  1  0  0  0  0
126235  1  0  0  0  0
127236  1  0  0  0  0
129237  1  0  0  0  0
129238  1  0  0  0  0
129239  1  0  0  0  0
130240  1  0  0  0  0
131241  1  0  0  0  0
134242  1  0  0  0  0
139243  1  0  0  0  0
142244  1  0  0  0  0
150245  1  0  0  0  0
151246  1  0  0  0  0
152247  1  0  0  0  0
153248  1  0  0  0  0
154249  1  0  0  0  0
155250  1  0  0  0  0
155251  1  0  0  0  0
156252  1  0  0  0  0
M  END
