
  xtb     02092210393D
 energy: -310.240445260786 gnorm: 0.000645135201 xtb: 6.4.1 (unknown)
181200  0     0  0            999 V2000
    3.1565   -4.9142    2.9120 C   0  0  0  0  0  0  0  0  0  0  0  0
    4.1389   -4.6454    3.8194 C   0  0  0  0  0  0  0  0  0  0  0  0
    5.3612   -5.4842    3.8745 C   0  0  0  0  0  0  0  0  0  0  0  0
    5.5261   -6.5587    3.3377 O   0  0  0  0  0  0  0  0  0  0  0  0
    6.3292   -4.7118    4.6801 C   0  0  0  0  0  0  0  0  0  0  0  0
    7.6727   -5.0013    4.9037 C   0  0  0  0  0  0  0  0  0  0  0  0
    8.3295   -4.0631    5.6645 C   0  0  0  0  0  0  0  0  0  0  0  0
    7.7043   -2.9098    6.1567 C   0  0  0  0  0  0  0  0  0  0  0  0
    6.3782   -2.6124    5.9492 C   0  0  0  0  0  0  0  0  0  0  0  0
    5.6905   -3.5639    5.1946 C   0  0  0  0  0  0  0  0  0  0  0  0
    4.2845   -3.5999    4.8005 C   0  0  0  0  0  0  0  0  0  0  0  0
    3.2697   -2.9587    5.4688 C   0  0  0  0  0  0  0  0  0  0  0  0
    1.8989   -3.1843    5.2418 C   0  0  0  0  0  0  0  0  0  0  0  0
    0.7671   -3.3607    5.1443 N   0  0  0  0  0  0  0  0  0  0  0  0
    3.4678   -2.1065    6.5679 C   0  0  0  0  0  0  0  0  0  0  0  0
    3.5424   -1.4227    7.4890 N   0  0  0  0  0  0  0  0  0  0  0  0
    8.9640   -2.4128    6.8199 C   0  0  0  0  0  0  0  0  0  0  0  0
    9.0807   -2.5779    8.3551 C   0  0  0  0  0  0  0  0  0  0  0  0
    8.2142   -3.7561    8.7255 C   0  0  0  0  0  0  0  0  0  0  0  0
    8.8037   -4.8519    8.2665 C   0  0  0  0  0  0  0  0  0  0  0  0
   10.0790   -4.4344    7.5770 C   0  0  0  0  0  0  0  0  0  0  0  0
   10.4716   -3.2261    8.4421 C   0  0  0  0  0  0  0  0  0  0  0  0
    9.6591   -3.7017    6.2784 C   0  0  0  0  0  0  0  0  0  0  0  0
    2.1644   -4.0369    2.4377 C   0  0  0  0  0  0  0  0  0  0  0  0
    0.9757   -4.3812    1.7831 C   0  0  0  0  0  0  0  0  0  0  0  0
    0.5275   -5.6613    1.5936 N   0  0  0  0  0  0  0  0  0  0  0  0
   -0.2775   -5.9556    0.4821 C   0  0  0  0  0  0  0  0  0  0  0  0
   -1.3473   -6.8372    0.5992 C   0  0  0  0  0  0  0  0  0  0  0  0
   -2.1406   -7.1300   -0.4929 C   0  0  0  0  0  0  0  0  0  0  0  0
   -1.8786   -6.5395   -1.7226 C   0  0  0  0  0  0  0  0  0  0  0  0
   -2.8238   -6.8225   -3.1835 S   0  0  0  0  0  0  0  0  0  0  0  0
   -4.0794   -8.0293   -2.6708 C   0  0  0  0  0  0  0  0  0  0  0  0
   -0.8004   -5.6643   -1.8459 C   0  0  0  0  0  0  0  0  0  0  0  0
   -0.0041   -5.3808   -0.7606 C   0  0  0  0  0  0  0  0  0  0  0  0
    0.8272   -6.6864    2.5139 C   0  0  0  0  0  0  0  0  0  0  0  0
    0.7214   -6.4572    3.8853 C   0  0  0  0  0  0  0  0  0  0  0  0
    1.0554   -7.4531    4.7744 C   0  0  0  0  0  0  0  0  0  0  0  0
    1.4869   -8.6977    4.3167 C   0  0  0  0  0  0  0  0  0  0  0  0
    1.9001   -9.8926    5.5460 S   0  0  0  0  0  0  0  0  0  0  0  0
    2.7782  -11.1788    4.6117 C   0  0  0  0  0  0  0  0  0  0  0  0
    1.5517   -8.9389    2.9510 C   0  0  0  0  0  0  0  0  0  0  0  0
    1.2246   -7.9376    2.0569 C   0  0  0  0  0  0  0  0  0  0  0  0
    0.2718   -3.2243    1.3756 C   0  0  0  0  0  0  0  0  0  0  0  0
   -1.2426   -2.9486    0.5875 S   0  0  0  0  0  0  0  0  0  0  0  0
   -1.0051   -1.2224    0.6976 C   0  0  0  0  0  0  0  0  0  0  0  0
    0.2118   -0.8770    1.2543 C   0  0  0  0  0  0  0  0  0  0  0  0
    0.7032    0.4175    1.3388 N   0  0  0  0  0  0  0  0  0  0  0  0
    1.5338    0.7840    2.4058 C   0  0  0  0  0  0  0  0  0  0  0  0
    2.6176    1.6373    2.1904 C   0  0  0  0  0  0  0  0  0  0  0  0
    3.4290    2.0100    3.2367 C   0  0  0  0  0  0  0  0  0  0  0  0
    3.1879    1.5379    4.5259 C   0  0  0  0  0  0  0  0  0  0  0  0
    4.2959    2.0793    5.7883 S   0  0  0  0  0  0  0  0  0  0  0  0
    3.3876    1.7553    7.3265 C   0  0  0  0  0  0  0  0  0  0  0  0
    2.1230    0.6756    4.7447 C   0  0  0  0  0  0  0  0  0  0  0  0
    1.3028    0.3071    3.6946 C   0  0  0  0  0  0  0  0  0  0  0  0
    0.5187    1.2924    0.2533 C   0  0  0  0  0  0  0  0  0  0  0  0
    0.6225    0.8346   -1.0572 C   0  0  0  0  0  0  0  0  0  0  0  0
    0.3667    1.6767   -2.1221 C   0  0  0  0  0  0  0  0  0  0  0  0
    0.0044    2.9968   -1.8934 C   0  0  0  0  0  0  0  0  0  0  0  0
   -0.3989    4.1317   -3.1865 S   0  0  0  0  0  0  0  0  0  0  0  0
   -0.9060    3.0595   -4.5581 C   0  0  0  0  0  0  0  0  0  0  0  0
   -0.0238    3.4761   -0.5865 C   0  0  0  0  0  0  0  0  0  0  0  0
    0.2274    2.6371    0.4756 C   0  0  0  0  0  0  0  0  0  0  0  0
    0.9152   -2.0333    1.6738 C   0  0  0  0  0  0  0  0  0  0  0  0
    2.4060   -2.2881    2.5004 S   0  0  0  0  0  0  0  0  0  0  0  0
   -1.9438   -0.3180    0.0370 C   0  0  0  0  0  0  0  0  0  0  0  0
   -2.6874    0.6794    0.6437 C   0  0  0  0  0  0  0  0  0  0  0  0
   -2.8242    0.8081    1.9880 O   0  0  0  0  0  0  0  0  0  0  0  0
   -2.6591   -0.3053    2.8511 C   0  0  0  0  0  0  0  0  0  0  0  0
   -3.4366   -0.0166    4.1268 C   0  0  0  0  0  0  0  0  0  0  0  0
   -3.3827    1.6682   -0.1419 C   0  0  0  0  0  0  0  0  0  0  0  0
   -4.2071    2.6158    0.3465 O   0  0  0  0  0  0  0  0  0  0  0  0
   -4.1761    3.1351    1.6667 C   0  0  0  0  0  0  0  0  0  0  0  0
   -2.8467    3.7848    2.0261 C   0  0  0  0  0  0  0  0  0  0  0  0
   -3.3262    1.6422   -1.5301 C   0  0  0  0  0  0  0  0  0  0  0  0
   -2.6565    0.5732   -2.1581 C   0  0  0  0  0  0  0  0  0  0  0  0
   -1.9940   -0.4216   -1.3716 C   0  0  0  0  0  0  0  0  0  0  0  0
   -1.3785   -1.3354   -2.1176 N   0  0  0  0  0  0  0  0  0  0  0  0
   -1.6089   -0.9702   -3.6695 S   0  0  0  0  0  0  0  0  0  0  0  0
   -2.4814    0.3686   -3.4627 N   0  0  0  0  0  0  0  0  0  0  0  0
   -3.8909    2.7137   -2.3530 C   0  0  0  0  0  0  0  0  0  0  0  0
   -3.5782    4.0674   -2.1149 C   0  0  0  0  0  0  0  0  0  0  0  0
   -2.8906    4.6690   -1.1327 N   0  0  0  0  0  0  0  0  0  0  0  0
   -2.9078    5.9313   -1.4517 N   0  0  0  0  0  0  0  0  0  0  0  0
   -2.3255    6.9369   -0.6107 C   0  0  0  0  0  0  0  0  0  0  0  0
   -3.3746    7.5016    0.3426 C   0  0  0  0  0  0  0  0  0  0  0  0
   -3.5283    6.2560   -2.5499 N   0  0  0  0  0  0  0  0  0  0  0  0
   -3.9874    5.0899   -3.0207 C   0  0  0  0  0  0  0  0  0  0  0  0
   -4.6879    4.8056   -4.2097 C   0  0  0  0  0  0  0  0  0  0  0  0
   -5.0515    3.4788   -4.3818 C   0  0  0  0  0  0  0  0  0  0  0  0
   -4.6806    2.4710   -3.4661 C   0  0  0  0  0  0  0  0  0  0  0  0
   -5.2956    0.8893   -3.7339 Cl  0  0  0  0  0  0  0  0  0  0  0  0
   -6.0521    3.0385   -5.7050 Cl  0  0  0  0  0  0  0  0  0  0  0  0
   -5.0274    5.8832   -5.1095 C   0  0  0  0  0  0  0  0  0  0  0  0
   -4.8308    5.8603   -6.4459 C   0  0  0  0  0  0  0  0  0  0  0  0
   -3.9627    4.8689   -7.1440 C   0  0  0  0  0  0  0  0  0  0  0  0
   -3.3208    3.9719   -6.6428 O   0  0  0  0  0  0  0  0  0  0  0  0
   -3.9394    5.2842   -8.5553 C   0  0  0  0  0  0  0  0  0  0  0  0
   -3.2667    4.6477   -9.5966 C   0  0  0  0  0  0  0  0  0  0  0  0
   -3.4116    5.2631  -10.8156 C   0  0  0  0  0  0  0  0  0  0  0  0
   -4.1650    6.4335  -10.9876 C   0  0  0  0  0  0  0  0  0  0  0  0
   -4.8313    7.0725   -9.9703 C   0  0  0  0  0  0  0  0  0  0  0  0
   -4.7013    6.4600   -8.7190 C   0  0  0  0  0  0  0  0  0  0  0  0
   -5.2660    6.8411   -7.4296 C   0  0  0  0  0  0  0  0  0  0  0  0
   -6.1106    7.8924   -7.1995 C   0  0  0  0  0  0  0  0  0  0  0  0
   -6.5314    8.8126   -8.1835 C   0  0  0  0  0  0  0  0  0  0  0  0
   -6.9100    9.5993   -8.9287 N   0  0  0  0  0  0  0  0  0  0  0  0
   -6.6944    8.2074   -5.9530 C   0  0  0  0  0  0  0  0  0  0  0  0
   -7.2208    8.5290   -4.9848 N   0  0  0  0  0  0  0  0  0  0  0  0
   -3.8636    6.5049  -12.4633 C   0  0  0  0  0  0  0  0  0  0  0  0
   -2.7995    7.5278  -12.9329 C   0  0  0  0  0  0  0  0  0  0  0  0
   -1.8668    7.7436  -11.7668 C   0  0  0  0  0  0  0  0  0  0  0  0
   -1.1569    6.6349  -11.6054 C   0  0  0  0  0  0  0  0  0  0  0  0
   -1.5968    5.6491  -12.6596 C   0  0  0  0  0  0  0  0  0  0  0  0
   -1.9294    6.6129  -13.8097 C   0  0  0  0  0  0  0  0  0  0  0  0
   -3.0277    5.2001  -12.2724 C   0  0  0  0  0  0  0  0  0  0  0  0
    3.2130   -5.8895    2.4405 H   0  0  0  0  0  0  0  0  0  0  0  0
    8.1242   -5.8931    4.4977 H   0  0  0  0  0  0  0  0  0  0  0  0
    5.9080   -1.7140    6.3155 H   0  0  0  0  0  0  0  0  0  0  0  0
    9.3360   -1.4499    6.4756 H   0  0  0  0  0  0  0  0  0  0  0  0
    8.9166   -1.6648    8.9209 H   0  0  0  0  0  0  0  0  0  0  0  0
    7.2622   -3.6682    9.2154 H   0  0  0  0  0  0  0  0  0  0  0  0
    8.4428   -5.8634    8.2971 H   0  0  0  0  0  0  0  0  0  0  0  0
   10.8252   -5.2120    7.4353 H   0  0  0  0  0  0  0  0  0  0  0  0
   11.2619   -2.6176    8.0046 H   0  0  0  0  0  0  0  0  0  0  0  0
   10.7431   -3.5065    9.4588 H   0  0  0  0  0  0  0  0  0  0  0  0
   10.4887   -3.5807    5.5843 H   0  0  0  0  0  0  0  0  0  0  0  0
   -1.5619   -7.2902    1.5556 H   0  0  0  0  0  0  0  0  0  0  0  0
   -2.9649   -7.8128   -0.3661 H   0  0  0  0  0  0  0  0  0  0  0  0
   -4.7191   -7.5995   -1.9055 H   0  0  0  0  0  0  0  0  0  0  0  0
   -3.5998   -8.9393   -2.3224 H   0  0  0  0  0  0  0  0  0  0  0  0
   -4.6625   -8.2389   -3.5622 H   0  0  0  0  0  0  0  0  0  0  0  0
   -0.5943   -5.2154   -2.8050 H   0  0  0  0  0  0  0  0  0  0  0  0
    0.8405   -4.7177   -0.8714 H   0  0  0  0  0  0  0  0  0  0  0  0
    0.3929   -5.4945    4.2468 H   0  0  0  0  0  0  0  0  0  0  0  0
    0.9832   -7.2794    5.8369 H   0  0  0  0  0  0  0  0  0  0  0  0
    2.0881  -11.7178    3.9689 H   0  0  0  0  0  0  0  0  0  0  0  0
    3.5825  -10.7254    4.0402 H   0  0  0  0  0  0  0  0  0  0  0  0
    3.1870  -11.8542    5.3567 H   0  0  0  0  0  0  0  0  0  0  0  0
    1.8635   -9.8969    2.5681 H   0  0  0  0  0  0  0  0  0  0  0  0
    1.2903   -8.1218    0.9945 H   0  0  0  0  0  0  0  0  0  0  0  0
    2.8170    2.0039    1.1947 H   0  0  0  0  0  0  0  0  0  0  0  0
    4.2663    2.6696    3.0682 H   0  0  0  0  0  0  0  0  0  0  0  0
    3.9415    2.2692    8.1060 H   0  0  0  0  0  0  0  0  0  0  0  0
    2.3867    2.1686    7.2462 H   0  0  0  0  0  0  0  0  0  0  0  0
    3.3651    0.6878    7.5326 H   0  0  0  0  0  0  0  0  0  0  0  0
    1.9207    0.2815    5.7279 H   0  0  0  0  0  0  0  0  0  0  0  0
    0.4772   -0.3625    3.8882 H   0  0  0  0  0  0  0  0  0  0  0  0
    0.9012   -0.1927   -1.2426 H   0  0  0  0  0  0  0  0  0  0  0  0
    0.4585    1.2972   -3.1281 H   0  0  0  0  0  0  0  0  0  0  0  0
   -1.4828    3.6811   -5.2366 H   0  0  0  0  0  0  0  0  0  0  0  0
   -1.5392    2.2602   -4.1832 H   0  0  0  0  0  0  0  0  0  0  0  0
   -0.0308    2.6671   -5.0688 H   0  0  0  0  0  0  0  0  0  0  0  0
   -0.2590    4.5139   -0.4174 H   0  0  0  0  0  0  0  0  0  0  0  0
    0.1961    3.0141    1.4867 H   0  0  0  0  0  0  0  0  0  0  0  0
   -3.0345   -1.2145    2.3685 H   0  0  0  0  0  0  0  0  0  0  0  0
   -1.5987   -0.4437    3.0879 H   0  0  0  0  0  0  0  0  0  0  0  0
   -3.0842    0.9095    4.5734 H   0  0  0  0  0  0  0  0  0  0  0  0
   -4.4981    0.0786    3.9128 H   0  0  0  0  0  0  0  0  0  0  0  0
   -3.2886   -0.8293    4.8316 H   0  0  0  0  0  0  0  0  0  0  0  0
   -4.4484    2.3699    2.3988 H   0  0  0  0  0  0  0  0  0  0  0  0
   -4.9679    3.8907    1.6392 H   0  0  0  0  0  0  0  0  0  0  0  0
   -2.5002    4.3696    1.1786 H   0  0  0  0  0  0  0  0  0  0  0  0
   -2.9766    4.4279    2.8926 H   0  0  0  0  0  0  0  0  0  0  0  0
   -2.1039    3.0287    2.2579 H   0  0  0  0  0  0  0  0  0  0  0  0
   -1.9378    7.7229   -1.2611 H   0  0  0  0  0  0  0  0  0  0  0  0
   -1.5072    6.4765   -0.0548 H   0  0  0  0  0  0  0  0  0  0  0  0
   -3.7760    6.7118    0.9728 H   0  0  0  0  0  0  0  0  0  0  0  0
   -2.9265    8.2623    0.9754 H   0  0  0  0  0  0  0  0  0  0  0  0
   -4.1880    7.9495   -0.2224 H   0  0  0  0  0  0  0  0  0  0  0  0
   -5.4228    6.7680   -4.6277 H   0  0  0  0  0  0  0  0  0  0  0  0
   -2.6983    3.7482   -9.4184 H   0  0  0  0  0  0  0  0  0  0  0  0
   -5.4044    7.9723  -10.1195 H   0  0  0  0  0  0  0  0  0  0  0  0
   -4.7244    6.4675  -13.1278 H   0  0  0  0  0  0  0  0  0  0  0  0
   -3.2074    8.4235  -13.3933 H   0  0  0  0  0  0  0  0  0  0  0  0
   -1.8597    8.6315  -11.1623 H   0  0  0  0  0  0  0  0  0  0  0  0
   -0.4384    6.4114  -10.8386 H   0  0  0  0  0  0  0  0  0  0  0  0
   -0.9096    4.8342  -12.8719 H   0  0  0  0  0  0  0  0  0  0  0  0
   -2.4781    6.1431  -14.6248 H   0  0  0  0  0  0  0  0  0  0  0  0
   -1.0490    7.1192  -14.2025 H   0  0  0  0  0  0  0  0  0  0  0  0
   -3.3437    4.3089  -12.8112 H   0  0  0  0  0  0  0  0  0  0  0  0
  1  2  2  0  0  0  0
  2  3  1  0  0  0  0
  3  4  2  0  0  0  0
  3  5  1  0  0  0  0
  5  6  2  0  0  0  0
  6  7  1  0  0  0  0
  7  8  2  0  0  0  0
  8  9  1  0  0  0  0
  9 10  2  0  0  0  0
 10 11  1  0  0  0  0
 11 12  2  0  0  0  0
 12 13  1  0  0  0  0
 13 14  3  0  0  0  0
 12 15  1  0  0  0  0
 15 16  3  0  0  0  0
  8 17  1  0  0  0  0
 17 18  1  0  0  0  0
 18 19  1  0  0  0  0
 19 20  2  0  0  0  0
 20 21  1  0  0  0  0
 21 22  1  0  0  0  0
 21 23  1  0  0  0  0
  1 24  1  0  0  0  0
 24 25  2  0  0  0  0
 25 26  1  0  0  0  0
 26 27  1  0  0  0  0
 27 28  2  0  0  0  0
 28 29  1  0  0  0  0
 29 30  2  0  0  0  0
 30 31  1  0  0  0  0
 31 32  1  0  0  0  0
 30 33  1  0  0  0  0
 33 34  2  0  0  0  0
 26 35  1  0  0  0  0
 35 36  2  0  0  0  0
 36 37  1  0  0  0  0
 37 38  2  0  0  0  0
 38 39  1  0  0  0  0
 39 40  1  0  0  0  0
 38 41  1  0  0  0  0
 41 42  2  0  0  0  0
 25 43  1  0  0  0  0
 43 44  1  0  0  0  0
 44 45  1  0  0  0  0
 45 46  2  0  0  0  0
 46 47  1  0  0  0  0
 47 48  1  0  0  0  0
 48 49  2  0  0  0  0
 49 50  1  0  0  0  0
 50 51  2  0  0  0  0
 51 52  1  0  0  0  0
 52 53  1  0  0  0  0
 51 54  1  0  0  0  0
 54 55  2  0  0  0  0
 47 56  1  0  0  0  0
 56 57  2  0  0  0  0
 57 58  1  0  0  0  0
 58 59  2  0  0  0  0
 59 60  1  0  0  0  0
 60 61  1  0  0  0  0
 59 62  1  0  0  0  0
 62 63  2  0  0  0  0
 46 64  1  0  0  0  0
 64 65  1  0  0  0  0
 45 66  1  0  0  0  0
 66 67  2  0  0  0  0
 67 68  1  0  0  0  0
 68 69  1  0  0  0  0
 69 70  1  0  0  0  0
 67 71  1  0  0  0  0
 71 72  1  0  0  0  0
 72 73  1  0  0  0  0
 73 74  1  0  0  0  0
 71 75  2  0  0  0  0
 75 76  1  0  0  0  0
 76 77  1  0  0  0  0
 77 78  2  0  0  0  0
 78 79  1  0  0  0  0
 79 80  1  0  0  0  0
 75 81  1  0  0  0  0
 81 82  1  0  0  0  0
 82 83  2  0  0  0  0
 83 84  1  0  0  0  0
 84 85  1  0  0  0  0
 85 86  1  0  0  0  0
 84 87  1  0  0  0  0
 87 88  2  0  0  0  0
 88 89  1  0  0  0  0
 89 90  2  0  0  0  0
 90 91  1  0  0  0  0
 91 92  1  0  0  0  0
 90 93  1  0  0  0  0
 89 94  1  0  0  0  0
 94 95  2  0  0  0  0
 95 96  1  0  0  0  0
 96 97  2  0  0  0  0
 96 98  1  0  0  0  0
 98 99  2  0  0  0  0
 99100  1  0  0  0  0
100101  2  0  0  0  0
101102  1  0  0  0  0
102103  2  0  0  0  0
103104  1  0  0  0  0
104105  2  0  0  0  0
105106  1  0  0  0  0
106107  3  0  0  0  0
105108  1  0  0  0  0
108109  3  0  0  0  0
101110  1  0  0  0  0
110111  1  0  0  0  0
111112  1  0  0  0  0
112113  2  0  0  0  0
113114  1  0  0  0  0
114115  1  0  0  0  0
114116  1  0  0  0  0
 11  2  1  0  0  0  0
 23 17  1  0  0  0  0
 65 24  1  0  0  0  0
 77 66  1  0  0  0  0
 91 81  2  0  0  0  0
104 95  1  0  0  0  0
116110  1  0  0  0  0
 10  5  1  0  0  0  0
 22 18  1  0  0  0  0
 34 27  1  0  0  0  0
 42 35  1  0  0  0  0
 64 43  2  0  0  0  0
 80 76  2  0  0  0  0
 88 82  1  0  0  0  0
103 98  1  0  0  0  0
115111  1  0  0  0  0
 23  7  1  0  0  0  0
 55 48  1  0  0  0  0
 63 56  1  0  0  0  0
116100  1  0  0  0  0
  1117  1  0  0  0  0
  6118  1  0  0  0  0
  9119  1  0  0  0  0
 17120  1  0  0  0  0
 18121  1  0  0  0  0
 19122  1  0  0  0  0
 20123  1  0  0  0  0
 21124  1  0  0  0  0
 22125  1  0  0  0  0
 22126  1  0  0  0  0
 23127  1  0  0  0  0
 28128  1  0  0  0  0
 29129  1  0  0  0  0
 32130  1  0  0  0  0
 32131  1  0  0  0  0
 32132  1  0  0  0  0
 33133  1  0  0  0  0
 34134  1  0  0  0  0
 36135  1  0  0  0  0
 37136  1  0  0  0  0
 40137  1  0  0  0  0
 40138  1  0  0  0  0
 40139  1  0  0  0  0
 41140  1  0  0  0  0
 42141  1  0  0  0  0
 49142  1  0  0  0  0
 50143  1  0  0  0  0
 53144  1  0  0  0  0
 53145  1  0  0  0  0
 53146  1  0  0  0  0
 54147  1  0  0  0  0
 55148  1  0  0  0  0
 57149  1  0  0  0  0
 58150  1  0  0  0  0
 61151  1  0  0  0  0
 61152  1  0  0  0  0
 61153  1  0  0  0  0
 62154  1  0  0  0  0
 63155  1  0  0  0  0
 69156  1  0  0  0  0
 69157  1  0  0  0  0
 70158  1  0  0  0  0
 70159  1  0  0  0  0
 70160  1  0  0  0  0
 73161  1  0  0  0  0
 73162  1  0  0  0  0
 74163  1  0  0  0  0
 74164  1  0  0  0  0
 74165  1  0  0  0  0
 85166  1  0  0  0  0
 85167  1  0  0  0  0
 86168  1  0  0  0  0
 86169  1  0  0  0  0
 86170  1  0  0  0  0
 94171  1  0  0  0  0
 99172  1  0  0  0  0
102173  1  0  0  0  0
110174  1  0  0  0  0
111175  1  0  0  0  0
112176  1  0  0  0  0
113177  1  0  0  0  0
114178  1  0  0  0  0
115179  1  0  0  0  0
115180  1  0  0  0  0
116181  1  0  0  0  0
M  END
