192

C          5.10950        3.22650        8.66650
C          5.81220        2.55250        9.62570
C          6.17380        1.12480        9.59900
O          5.93520        0.31130        8.72630
C          6.88990        0.85780       10.85660
C          7.41370       -0.36420       11.27390
C          8.03950       -0.31490       12.49560
C          8.13530        0.86340       13.24860
C          7.61690        2.07290       12.85140
C          6.97710        2.04710       11.60740
C          6.32230        3.12020       10.86150
C          6.23720        4.42710       11.26840
C          6.75910        4.92260       12.48200
N          7.15360        5.40150       13.44820
C          5.63490        5.48240       10.55140
N          5.17780        6.40380       10.03870
C          8.90260        0.18690       14.35730
C         10.42470        0.44140       14.39530
C         10.95900       -0.68940       15.24440
C         10.86560       -1.80630       14.53420
C         10.26710       -1.44920       13.19280
C         10.85730       -0.04540       13.00610
C          8.79320       -1.12710       13.51900
C          4.60180        2.78980        7.42620
C          3.93570        3.65200        6.57090
C          3.52030        3.06790        5.36650
C          2.85880        3.67360        4.26070
C          2.73950        5.10290        4.14970
C          3.59580        6.04430        4.66940
C          3.28530        7.38620        4.39840
C          2.16770        7.57830        3.63600
S          1.53020        9.14520        3.20760
C          0.88140        8.78130        1.53480
C          1.99740        8.47060        0.56050
Se         1.35050        5.93840        3.18310
C          2.37870        2.79360        3.29580
C          2.65590        1.40400        3.29460
C          3.47020        0.84430        4.29650
C          3.97200       -0.51020        4.20790
C          4.08350       -1.44560        5.19670
C          4.76840       -2.62470        4.84020
C          5.24280       -2.64980        3.56330
S          6.17400       -3.95400        2.85510
C          7.67910       -3.01050        2.40020
C          8.38900       -2.46840        3.62190
Se         4.77260       -1.09560        2.60750
C          3.83430        1.68310        5.34420
S          4.71660        1.17830        6.75420
C          2.00050        0.71770        2.24470
C          1.24840        1.53320        1.44550
S          1.37920        3.21820        1.93430
C          0.35700        1.20870        0.38740
C          0.08630       -0.01510       -0.21390
N          0.68430       -1.24730        0.03740
C          2.04790       -1.48090       -0.12610
C          2.60430       -2.68130        0.31950
C          3.93150       -2.97950        0.08440
C          4.74210       -2.06520       -0.57790
S          6.44050       -2.37160       -0.96270
C          6.54680       -4.18460       -0.91190
C          4.21220       -0.83490       -0.95810
C          2.88280       -0.54520       -0.74000
C         -0.22500       -2.32600        0.10240
C         -1.30590       -2.23470        0.97310
C         -2.24540       -3.24510        1.04360
C         -2.11320       -4.36960        0.24060
S         -3.23960       -5.72630        0.23700
C         -4.45040       -5.29880        1.52030
C         -1.03380       -4.46110       -0.63800
C         -0.10200       -3.45120       -0.71220
C         -0.96690        0.10970       -1.15090
S         -1.75840       -1.01100       -2.20090
C         -2.77540        0.27730       -2.84680
C         -2.54800        1.49550       -2.21060
N         -3.28460        2.65130       -2.38970
C         -4.68260        2.60980       -2.46800
C         -5.37150        3.57080       -3.21230
C         -6.74270        3.52600       -3.30520
C         -7.46530        2.51810       -2.66730
S         -9.21620        2.56100       -2.87420
C         -9.80180        1.08690       -1.99170
C         -6.78610        1.56420       -1.92190
C         -5.40940        1.61530       -1.82010
C         -2.62020        3.88400       -2.30950
C         -3.18490        4.95720       -1.62680
C         -2.53610        6.17420       -1.56780
C         -1.30390        6.33470       -2.18660
S         -0.39720        7.84830       -2.19730
C         -1.54240        9.05320       -1.46710
C         -0.72310        5.25660       -2.85080
C         -1.37400        4.04530       -2.91580
C         -1.48720        1.38660       -1.27780
S         -0.66760        2.49780       -0.23870
C         -3.60490       -0.04650       -3.94950
S         -4.25800        1.18400       -5.02200
C         -4.91230       -0.04230       -6.05630
C         -5.63090       -0.04210       -7.23490
C         -5.90010       -1.33540       -7.69070
S         -5.25130       -2.56110       -6.60420
C         -4.62480       -1.33080       -5.57150
C         -3.88810       -1.32590       -4.38970
C         -6.59330       -1.56040       -8.89000
C         -6.90920       -2.73000       -9.53120
C         -6.56400       -4.08180       -9.07420
O         -6.00250       -4.39530       -8.03900
C         -7.03270       -5.00560      -10.12040
C         -6.90090       -6.39250      -10.13290
C         -7.42830       -6.99320      -11.25050
C         -8.04550       -6.26780      -12.27810
C         -8.18620       -4.90010      -12.27510
C         -7.65240       -4.26690      -11.14820
C         -7.60590       -2.84760      -10.79740
C         -8.14380       -1.83140      -11.54600
C         -8.12560       -0.46050      -11.21540
N         -8.16120        0.67300      -11.02950
C         -8.81410       -2.01040      -12.77420
N         -9.37240       -2.07280      -13.77580
C         -8.33260       -7.50680      -13.08940
C         -7.40800       -7.76930      -14.29690
C         -7.60400       -9.23930      -14.59000
C         -7.01880       -9.92620      -13.61710
C         -6.41760       -8.93190      -12.65010
C         -6.02810       -7.81570      -13.62780
C         -7.64380       -8.31560      -11.94360
H          4.90250        4.27280        8.85630
H          7.31410       -1.24650       10.66130
H          7.69390        2.96610       13.44800
H          8.44150        0.21800       15.34250
H         10.71030        1.44890       14.68510
H         11.28700       -0.57330       16.26070
H         11.09990       -2.80950       14.83860
H         10.40940       -2.16430       12.38710
H         11.94030       -0.06580       12.89620
H         10.41860        0.51470       12.18230
H          8.25610       -1.97290       13.94410
H          3.72630        4.66840        6.85280
H          4.50170        5.77420        5.18380
H          3.89230        8.20590        4.74180
H          0.18440        7.94330        1.63360
H          0.33510        9.67880        1.24800
H          2.53650        7.57610        0.87220
H          2.69930        9.29970        0.51110
H          1.58690        8.29520       -0.43120
H          3.67360       -1.29800        6.18100
H          4.93240       -3.43660        5.52780
H          8.30360       -3.71760        1.85590
H          7.36370       -2.20960        1.72660
H          7.74620       -1.77460        4.16260
H          8.66560       -3.27830        4.29370
H          9.29040       -1.94000        3.31870
H          2.03360       -0.35140        2.13560
H          1.98930       -3.39570        0.84590
H          4.32130       -3.92370        0.42950
H          7.52220       -4.43370       -1.31800
H          5.76450       -4.60630       -1.53550
H          6.46930       -4.54260        0.11070
H          4.84960       -0.11700       -1.45120
H          2.48080        0.39880       -1.07410
H         -1.40890       -1.35980        1.59890
H         -3.07040       -3.14160        1.72960
H         -3.95260       -5.19030        2.47940
H         -5.14210       -6.13450        1.55710
H         -4.98260       -4.39330        1.24450
H         -0.94620       -5.33130       -1.27000
H          0.71910       -3.52100       -1.40910
H         -4.81860        4.34010       -3.72870
H         -7.27410        4.26390       -3.88580
H         -9.36020        0.19470       -2.42590
H        -10.87790        1.07170       -2.13430
H         -9.57260        1.16890       -0.93310
H         -7.31420        0.77750       -1.40790
H         -4.89490        0.87170       -1.22910
H         -4.13940        4.83650       -1.13690
H         -3.00090        6.98410       -1.02970
H         -2.46400        9.07740       -2.04090
H         -1.73030        8.81010       -0.42550
H         -1.03970       10.01280       -1.53660
H          0.23690        5.38700       -3.32570
H         -0.92970        3.21900       -3.45060
H         -5.94960        0.83810       -7.76360
H         -3.56760       -2.20740       -3.86440
H         -6.89960       -0.64100       -9.37430
H         -6.42070       -6.91030       -9.31740
H         -8.66640       -4.36030      -13.07360
H         -9.38140       -7.69990      -13.30640
H         -7.53950       -7.08230      -15.12840
H         -8.17690       -9.61490      -15.41740
H         -7.00530      -10.99010      -13.46950
H         -5.64600       -9.30450      -11.98150
H         -5.24640       -8.12780      -14.31830
H         -5.73700       -6.88450      -13.14540
H         -8.23330       -9.04910      -11.39660
