271

C         -3.57280        0.53830       -8.78870
C         -4.18750       -0.45310       -9.50890
C         -3.93030       -0.60060      -10.95860
O         -3.43820        0.22040      -11.70370
C         -4.32730       -1.98980      -11.28260
C         -4.14860       -2.66300      -12.48820
C         -4.59130       -3.96520      -12.47490
C         -5.17320       -4.55860      -11.34720
C         -5.36660       -3.90530      -10.15310
C         -4.91680       -2.58410      -10.14680
C         -4.96440       -1.58850       -9.08020
C         -5.80690       -1.62290       -7.99380
C         -6.56760       -2.73970       -7.60770
N         -7.18720       -3.62800       -7.22370
C         -6.03430       -0.49320       -7.18530
N         -6.27930        0.43150       -6.54810
C         -5.37610       -5.87930      -12.04570
C         -6.80610       -6.22460      -12.52790
C         -7.50770       -4.90950      -12.76050
C         -6.96520       -4.34510      -13.83110
C         -5.88650       -5.26820      -14.34140
C         -6.50160       -6.62940      -13.97900
C         -4.73520       -5.21660      -13.30640
C         -3.21570        0.48890       -7.43350
C         -2.59720        1.49220       -6.66510
N         -2.50220        2.80600       -7.01650
C         -3.45400        3.43920       -7.84250
C         -4.80990        3.15050       -7.73100
C         -5.72740        3.78530       -8.54390
C         -5.30440        4.72920       -9.47180
S         -6.38280        5.60390      -10.55700
C         -8.01330        4.87230      -10.23830
C         -3.94770        5.03490       -9.56710
C         -3.03060        4.39750       -8.76190
C         -1.50640        3.60970       -6.42660
C         -1.83850        4.84290       -5.86880
C         -0.86020        5.62910       -5.30390
C          0.46820        5.20390       -5.28490
S          1.63930        6.27920       -4.51990
C          3.21620        5.76390       -5.25300
C          0.80030        3.97440       -5.83770
C         -0.18040        3.18690       -6.40830
C         -2.10870        0.96680       -5.44510
S         -1.27680        1.63250       -4.07960
C         -1.29660        0.06230       -3.26970
C         -1.98050       -0.90250       -4.00670
N         -2.25510       -2.21110       -3.64420
C         -2.72020       -2.56240       -2.37470
C         -3.36460       -1.64810       -1.53900
C         -3.77500       -2.03020       -0.28090
C         -3.56530       -3.33180        0.16890
S         -4.14490       -3.71400        1.78880
C         -3.71180       -5.46560        1.99850
C         -2.93710       -4.24820       -0.66390
C         -2.51950       -3.86480       -1.92100
C         -2.39670       -3.12720       -4.70820
C         -3.56830       -3.86440       -4.87780
C         -3.74160       -4.63430       -6.00660
C         -2.74760       -4.68880       -6.98130
S         -3.08500       -5.63060       -8.43710
C         -1.99780       -4.85870       -9.67170
C         -1.54970       -4.01680       -6.77990
C         -1.37910       -3.23940       -5.65150
C         -2.39100       -0.37420       -5.25180
S         -3.25110       -1.05570       -6.57990
C         -0.58270       -0.02820       -2.04940
C          0.05860        1.03800       -1.43900
N         -0.02580        2.37450       -1.86960
C         -1.10770        3.13550       -1.39860
C         -1.37860        4.37970       -1.96900
C         -2.44550        5.12880       -1.52530
C         -3.27170        4.65340       -0.50890
S         -4.59260        5.70560        0.01930
C         -5.68440        4.58540        0.94500
C         -3.01770        3.41070        0.05020
C         -1.94870        2.65830       -0.39720
C          1.23710        2.95550       -2.09910
C          2.12320        2.27350       -2.92750
C          3.41410        2.72570       -3.11250
C          3.84160        3.87250       -2.45690
S          5.48210        4.52080       -2.58550
C          6.41750        3.17140       -3.36210
C          2.94650        4.57980       -1.65790
C          1.65820        4.12730       -1.47550
C          0.74410        0.64770       -0.27630
S          1.54560        1.53430        0.96240
C          1.61310        0.09180        1.96500
C          1.04290       -1.00750        1.35600
N          0.74920       -2.20600        2.03680
C         -0.34370       -2.22040        2.90280
C         -0.84130       -3.42060        3.41570
C         -1.89910       -3.43710        4.30250
C         -2.52320       -2.25510        4.67200
S         -3.84090       -2.16910        5.85170
C         -4.71790       -3.73670        5.58180
C         -2.08220       -1.06340        4.11340
C         -1.01420       -1.04240        3.24450
C          1.56750       -3.32930        1.83100
C          2.04460       -4.05720        2.91770
C          2.90420       -5.12270        2.74280
C          3.30450       -5.48780        1.46440
S          4.44500       -6.79290        1.12910
C          5.07000       -7.25310        2.76920
C          2.79920       -4.78930        0.36920
C          1.94800       -3.71960        0.54760
C          0.59270       -0.69100        0.05310
S         -0.31650       -1.52660       -1.16540
C          2.03960        0.27320        3.32820
C          3.04670       -0.33060        4.05390
N          3.97450       -1.20680        3.50660
C          4.46840       -2.28310        4.24410
C          5.72300       -2.82390        3.95410
C          6.18880       -3.91680        4.64820
C          5.42760       -4.48940        5.66560
S          6.09800       -5.92940        6.44410
C          5.08050       -6.12300        7.93460
C          4.19860       -3.93300        5.98650
C          3.72610       -2.84250        5.28230
C          4.34280       -1.00250        2.16620
C          4.50680       -2.07770        1.29650
C          4.72550       -1.86080       -0.04730
C          4.78190       -0.56680       -0.54330
S          4.92740       -0.26710       -2.28690
C          3.54510       -1.28430       -2.89080
C          4.71770        0.51090        0.32810
C          4.50900        0.29290        1.67400
C          3.07110        0.16720        5.38440
S          4.03340       -0.15610        6.78510
C          3.15700        1.06220        7.70150
C          2.20610        1.71590        6.93770
N          1.48300        2.81860        7.34790
C          0.32920        3.20430        6.64410
C         -0.66930        2.28040        6.33460
C         -1.74470        2.65970        5.56000
C         -1.84490        3.96150        5.07640
S         -3.19530        4.31480        3.99590
C         -2.78820        5.94970        3.31940
C         -0.89220        4.90180        5.44790
C          0.18260        4.52420        6.22700
C          2.01440        3.69030        8.31730
C          1.19980        4.15920        9.34650
C          1.73960        4.90870       10.36730
C          3.10100        5.20990       10.38070
S          3.70290        6.07000       11.79580
C          5.47650        6.27830       11.47280
C          3.89770        4.81250        9.31560
C          3.35350        4.06390        8.29110
C          2.15220        1.17500        5.62650
S          1.21240        1.53340        4.22920
C          3.38970        1.29640        9.11740
C          2.29170        1.27180        9.96130
C          2.39660        1.61650       11.30270
C          3.60860        2.01820       11.82660
C          3.68400        2.44020       13.23260
O          2.72210        2.42670       13.97300
N          4.92670        2.85700       13.68560
C          5.01840        3.30750       15.07110
C          4.89550        4.82250       15.16650
C          6.08180        2.92050       12.93180
O          7.11830        3.33900       13.41070
C          5.98640        2.46870       11.53160
C          7.11050        2.50470       10.73250
C          7.03040        2.11650        9.39500
C          5.83640        1.70360        8.86010
C          4.66700        1.64570        9.64300
C          4.75320        2.03310       11.00570
H         -3.19100        1.37360       -9.36570
H         -3.69900       -2.17200      -13.33730
H         -5.80630       -4.37190       -9.28770
H         -4.86930       -6.73440      -11.60190
H         -7.33000       -6.94470      -11.90530
H         -8.26190       -4.51010      -12.10800
H         -7.17590       -3.37970      -14.25290
H         -5.57390       -5.11840      -15.37170
H         -5.79970       -7.45850      -14.06010
H         -7.40050       -6.85120      -14.55240
H         -3.81170       -5.64340      -13.69480
H         -5.15640        2.42390       -7.01180
H         -6.76970        3.53720       -8.43060
H         -8.32310        5.07920       -9.21830
H         -7.98350        3.80450      -10.43490
H         -8.69120        5.35720      -10.93390
H         -3.62440        5.77190      -10.28560
H         -1.97960        4.63200       -8.84450
H         -2.86550        5.17460       -5.88170
H         -1.11090        6.58400       -4.86850
H          3.94750        6.49370       -4.92030
H          3.13300        5.77970       -6.33550
H          3.49390        4.78030       -4.88940
H          1.81830        3.62050       -5.82740
H          0.08240        2.23690       -6.85050
H         -3.54300       -0.63870       -1.87910
H         -4.26950       -1.32380        0.36840
H         -4.07870       -5.74860        2.98030
H         -4.20700       -6.06340        1.23900
H         -2.63290       -5.58430        1.95890
H         -2.75680       -5.26220       -0.34730
H         -2.02220       -4.57800       -2.56120
H         -4.35600       -3.79300       -4.14300
H         -4.66470       -5.17060       -6.16220
H         -0.97320       -5.19500       -9.54180
H         -2.07210       -3.77840       -9.58950
H         -2.37010       -5.17880      -10.63970
H         -0.74960       -4.08190       -7.49980
H         -0.45950       -2.69070       -5.50680
H         -0.74870        4.74850       -2.76320
H         -2.65210        6.09250       -1.96470
H         -6.58450        5.15720        1.14850
H         -5.22150        4.28380        1.88090
H         -5.92310        3.72440        0.32830
H         -3.62930        3.02040        0.84740
H         -1.76740        1.69550        0.05690
H          1.79130        1.37600       -3.42860
H          4.07790        2.17060       -3.75540
H          7.46230        3.45170       -3.27270
H          6.15240        3.08350       -4.41200
H          6.23420        2.24110       -2.83230
H          3.28130        5.47970       -1.16570
H          0.98400        4.66730       -0.82910
H         -0.39850       -4.35810        3.11420
H         -2.23530       -4.38370        4.69660
H         -5.66750       -3.64070        6.09840
H         -4.15580       -4.56640        6.00110
H         -4.88220       -3.86410        4.51640
H         -2.58700       -0.14430        4.36450
H         -0.71760       -0.09540        2.82380
H          1.74980       -3.77590        3.91560
H          3.26600       -5.64500        3.61320
H          5.86280       -7.97190        2.58780
H          5.47230       -6.37890        3.27310
H          4.28230       -7.71830        3.35470
H          3.09140       -5.09410       -0.62420
H          1.57480       -3.18480       -0.31130
H          6.33280       -2.38020        3.18210
H          7.15580       -4.33680        4.41560
H          4.07570       -6.43900        7.66900
H          5.06750       -5.18990        8.48990
H          5.56440       -6.89760        8.52120
H          3.58800       -4.34620        6.77320
H          2.75690       -2.43770        5.53190
H          4.44380       -3.08500        1.67290
H          4.83210       -2.70690       -0.70810
H          2.65170       -1.03330       -2.32640
H          3.41290       -1.03300       -3.93820
H          3.77970       -2.33950       -2.79150
H          4.80760        1.51640       -0.05360
H          4.44230        1.13570        2.34580
H         -0.59320        1.26330        6.68950
H         -2.51530        1.94630        5.31360
H         -2.87400        6.70730        4.09290
H         -3.51390        6.14520        2.53580
H         -1.78960        5.92580        2.89320
H         -0.96530        5.92770        5.12550
H          0.93260        5.25290        6.49790
H          0.14980        3.90840        9.34930
H          1.12050        5.24720       11.18340
H          5.86740        6.80950       12.33510
H          5.62390        6.87480       10.57710
H          5.96120        5.30970       11.38870
H          4.94490        5.06530        9.27540
H          3.98200        3.74730        7.47150
H          1.32940        0.98830        9.56140
H          1.53240        1.59570       11.94890
H          4.20890        2.82330       15.61910
H          5.98540        2.98170       15.46010
H          5.72800        5.29660       14.65260
H          3.96310        5.15450       14.71580
H          4.91060        5.12550       16.20960
H          8.04220        2.84370       11.16030
H          7.91480        2.15230        8.77700
H          5.79060        1.42060        7.82020
