190

C          3.82020       -7.60970       -1.12620
C          2.66680       -7.55380       -1.83700
C          2.09940       -6.28930       -2.39190
O          2.54480       -5.16520       -2.30060
C          0.94110       -6.69790       -3.20160
C          0.09500       -5.85250       -3.91910
C         -0.91060       -6.50890       -4.58500
C         -1.06010       -7.90300       -4.55320
C         -0.22190       -8.74830       -3.86610
C          0.80640       -8.10180       -3.17030
C          1.85670       -8.65500       -2.32250
C          1.99170       -9.96570       -1.94670
C          2.95680      -10.43470       -1.03090
N          3.69930      -10.88230       -0.27760
C          1.16480      -11.01620       -2.39590
N          0.53270      -11.91470       -2.72920
C         -2.28970       -7.86890       -5.42710
C         -3.64550       -8.04350       -4.70960
C         -4.65040       -7.49470       -5.69670
C         -4.50510       -6.17610       -5.72980
C         -3.39920       -5.81120       -4.76640
C         -3.61440       -6.89060       -3.69750
C         -2.11880       -6.31610       -5.46460
C          4.33230       -6.44040       -0.46310
C          5.67180       -6.10190       -0.41600
F          6.57580       -6.91240       -0.99370
C          6.11680       -4.90190        0.15310
F          7.42990       -4.61640        0.11120
C          5.24280       -4.01630        0.74630
C          3.85660       -4.35960        0.75950
N          2.96070       -3.49220        1.25560
C          1.68650       -3.79480        1.26370
C          0.76830       -2.75530        1.83920
C          0.56550       -1.57610        0.88730
C          1.26010       -5.07920        0.82130
N          2.12320       -5.91700        0.30510
C          3.41240       -5.57340        0.19660
C         -0.15270       -5.57370        0.89600
C         -0.99200       -5.01290       -0.25440
C          5.54280       -2.65310        1.14420
C          5.05420       -2.00370        2.27340
N          4.93460       -2.56270        3.52580
C          5.07850       -1.81020        4.69170
C          5.78910       -0.60590        4.69250
C          5.92820        0.12600        5.84900
C          5.38240       -0.32650        7.04790
S          5.61610        0.70820        8.45990
C          4.88750       -0.24070        9.82500
C          4.71460       -1.54210        7.06580
C          4.56790       -2.27390        5.90300
C          4.73400       -3.97110        3.59600
C          5.78460       -4.84560        3.35670
C          5.55020       -6.20320        3.22070
C          4.25520       -6.69630        3.31960
S          3.79920       -8.36530        2.99380
C          5.25850       -9.07270        2.18050
C          3.22060       -5.83160        3.67640
C          3.45710       -4.48160        3.81180
C          4.65920       -0.67750        1.94830
S          3.55980        0.42310        2.70880
C          3.28110        1.25640        1.18600
C          4.05960        0.74190        0.17140
N          3.92940        1.08190       -1.19020
C          4.95220        1.78790       -1.81040
C          5.15220        1.73610       -3.19200
C          6.16910        2.45680       -3.77540
C          7.02160        3.24230       -3.00320
S          8.27960        4.13410       -3.87120
C          9.34980        4.76730       -2.54830
C          6.83800        3.28960       -1.62980
C          5.81590        2.56940       -1.04270
C          2.90760        0.42990       -1.90770
C          2.12870        1.13320       -2.82270
C          1.12390        0.50170       -3.53210
C          0.88170       -0.85200       -3.34270
S         -0.37010       -1.77220       -4.18950
C         -1.03330       -0.59870       -5.40420
C          1.65050       -1.56030       -2.42470
C          2.64140       -0.92500       -1.71000
C          4.85150       -0.33940        0.61950
S          5.71450       -1.56110       -0.24270
C          2.23350        2.25120        1.09370
C          1.17460        2.20130        1.99790
C          0.12990        3.09450        1.84590
N         -1.03310        3.20770        2.56660
C         -1.35780        2.46570        3.75570
C         -0.82260        3.15220        5.01130
C         -1.78380        4.22290        2.02330
C         -1.09560        4.77230        0.90840
C          0.13240        4.05150        0.79910
C          1.21710        4.12020       -0.06930
C          2.25420        3.23020        0.08300
C         -1.66790        5.81290        0.18340
C         -2.91990        6.25960        0.53360
C         -3.61770        5.69990        1.62000
C         -3.02230        4.70350        2.40040
C         -4.93290        6.15420        1.99250
C         -5.94020        6.52300        1.16130
C         -6.01470        6.23250       -0.29790
O         -5.15330        5.78430       -1.02190
C         -7.40980        6.51480       -0.68560
C         -7.96830        6.33540       -1.94940
C         -9.29600        6.67750       -2.02820
C        -10.02150        7.15360       -0.92680
C         -9.48610        7.32640        0.32650
C         -8.13110        6.99250        0.42650
C         -7.23440        7.04550        1.57480
C         -7.53820        7.56450        2.80530
C         -6.63790        7.67220        3.88700
N         -5.96900        7.80830        4.81070
C         -8.79720        8.09190        3.16190
N         -9.79470        8.53170        3.52230
C        -11.29020        7.30500       -1.72800
C        -11.69280        8.73270       -2.17340
C        -10.41560        9.53070       -2.26310
C         -9.72950        9.08110       -3.30540
C        -10.53030        7.97030       -3.93890
C        -11.95620        8.47470       -3.66560
C        -10.48180        6.77560       -2.95440
H          4.37150       -8.53350       -1.01730
H          0.24170       -4.78300       -3.92440
H         -0.33820       -9.81940       -3.86480
H         -2.22740       -8.42500       -6.36030
H         -3.83170       -9.04300       -4.32610
H         -5.30320       -8.10690       -6.29080
H         -5.01290       -5.46750       -6.35760
H         -3.35550       -4.77750       -4.43420
H         -2.80890       -6.95980       -2.96890
H         -4.56510       -6.77310       -3.17990
H         -1.93670       -5.83340       -6.42260
H          1.22800       -2.37430        2.75420
H         -0.19570       -3.19670        2.08920
H         -0.11990       -0.85460        1.32630
H          0.15780       -1.90440       -0.06550
H          1.51230       -1.08060        0.69600
H         -0.12210       -6.66190        0.82130
H         -0.60330       -5.30350        1.85260
H         -1.07070       -3.93080       -0.19120
H         -1.99380       -5.43500       -0.22430
H         -0.53710       -5.26780       -1.20860
H          6.25980       -0.25300        3.78840
H          6.47650        1.05540        5.83980
H          3.82260       -0.37580        9.65940
H          5.39670       -1.19470        9.92680
H          5.04800        0.35940       10.71520
H          4.29960       -1.93790        7.97880
H          4.05680       -3.22300        5.94610
H          6.78710       -4.45980        3.24590
H          6.37960       -6.86180        3.01850
H          4.91310       -9.98910        1.70990
H          6.02870       -9.29430        2.91350
H          5.62170       -8.38540        1.42340
H          2.22620       -6.23160        3.80520
H          2.64600       -3.80930        4.04550
H          4.51790        1.11380       -3.80390
H          6.32230        2.41150       -4.84280
H          9.68370        3.94540       -1.92190
H         10.19960        5.21950       -3.05020
H          8.82450        5.51960       -1.96660
H          7.47830        3.88620       -1.00000
H          5.68470        2.61720        0.02880
H          2.31120        2.18530       -2.98140
H          0.53820        1.08190       -4.22730
H         -1.75420       -1.15830       -5.99220
H         -1.53050        0.22300       -4.89680
H         -0.23210       -0.24140       -6.04460
H          1.48750       -2.61890       -2.28890
H          3.22300       -1.50560       -1.01410
H          1.17620        1.45930        2.78200
H         -2.44490        2.36580        3.81530
H         -0.92970        1.46360        3.66560
H         -1.08260        2.57490        5.89430
H         -1.24810        4.14840        5.10640
H          0.25980        3.24230        4.95780
H          1.24220        4.86300       -0.85190
H          3.10660        3.29100       -0.57260
H         -1.13810        6.25480       -0.64600
H         -3.36830        7.07470       -0.00930
H         -3.55420        4.29990        3.24940
H         -5.13350        6.14480        3.05790
H         -7.37340        5.96140       -2.76800
H        -10.05970        7.68290        1.16570
H        -12.14260        6.72060       -1.38760
H        -12.49600        9.17680       -1.59170
H        -10.12520       10.27770       -1.54780
H         -8.75090        9.37720       -3.63520
H        -10.27580        7.71980       -4.96550
H        -12.72440        7.72420       -3.84740
H        -12.19340        9.38450       -4.21480
H        -10.80570        5.84430       -3.41530
