
  xtb     02052212073D
 energy: -362.272006220118 gnorm: 0.000540948344 xtb: 6.4.1 (unknown)
216239  0     0  0            999 V2000
    4.7684   -5.0802   -9.1136 C   0  0  0  0  0  0  0  0  0  0  0  0
    5.4074   -4.4396  -10.1265 C   0  0  0  0  0  0  0  0  0  0  0  0
    6.7041   -4.9761  -10.6321 C   0  0  0  0  0  0  0  0  0  0  0  0
    7.1432   -6.0899  -10.4639 O   0  0  0  0  0  0  0  0  0  0  0  0
    7.3509   -3.8359  -11.3094 C   0  0  0  0  0  0  0  0  0  0  0  0
    8.6486   -3.7822  -11.8158 C   0  0  0  0  0  0  0  0  0  0  0  0
    8.9865   -2.5675  -12.3619 C   0  0  0  0  0  0  0  0  0  0  0  0
    8.1034   -1.4793  -12.4031 C   0  0  0  0  0  0  0  0  0  0  0  0
    6.8171   -1.5196  -11.9198 C   0  0  0  0  0  0  0  0  0  0  0  0
    6.4533   -2.7478  -11.3619 C   0  0  0  0  0  0  0  0  0  0  0  0
    5.1798   -3.1714  -10.7867 C   0  0  0  0  0  0  0  0  0  0  0  0
    3.9553   -2.6263  -11.0665 C   0  0  0  0  0  0  0  0  0  0  0  0
    2.7412   -3.2609  -10.7269 C   0  0  0  0  0  0  0  0  0  0  0  0
    1.7380   -3.7764  -10.5160 N   0  0  0  0  0  0  0  0  0  0  0  0
    3.7701   -1.4417  -11.8061 C   0  0  0  0  0  0  0  0  0  0  0  0
    3.5709   -0.4756  -12.3933 N   0  0  0  0  0  0  0  0  0  0  0  0
    9.1156   -0.5803  -13.0680 C   0  0  0  0  0  0  0  0  0  0  0  0
    9.8162    0.4573  -12.1651 C   0  0  0  0  0  0  0  0  0  0  0  0
   11.0521    0.8406  -12.9468 C   0  0  0  0  0  0  0  0  0  0  0  0
   11.8871   -0.1900  -12.9124 C   0  0  0  0  0  0  0  0  0  0  0  0
   11.2297   -1.2873  -12.1068 C   0  0  0  0  0  0  0  0  0  0  0  0
   10.4499   -0.4394  -11.0935 C   0  0  0  0  0  0  0  0  0  0  0  0
   10.0984   -1.7941  -13.0266 C   0  0  0  0  0  0  0  0  0  0  0  0
    3.8322   -4.5861   -8.1798 C   0  0  0  0  0  0  0  0  0  0  0  0
    3.5614   -2.8334   -7.8898 S   0  0  0  0  0  0  0  0  0  0  0  0
    2.5327   -3.2665   -6.5954 C   0  0  0  0  0  0  0  0  0  0  0  0
    1.8379   -2.5714   -5.7063 N   0  0  0  0  0  0  0  0  0  0  0  0
    1.2107   -3.3649   -4.8759 C   0  0  0  0  0  0  0  0  0  0  0  0
    1.4625   -5.1081   -5.1633 S   0  0  0  0  0  0  0  0  0  0  0  0
    2.4788   -4.6736   -6.4823 C   0  0  0  0  0  0  0  0  0  0  0  0
    3.2052   -5.3660   -7.3422 N   0  0  0  0  0  0  0  0  0  0  0  0
    0.4949   -2.8633   -3.7755 C   0  0  0  0  0  0  0  0  0  0  0  0
   -0.1800   -3.5331   -2.7521 C   0  0  0  0  0  0  0  0  0  0  0  0
   -0.4565   -4.8897   -2.7170 N   0  0  0  0  0  0  0  0  0  0  0  0
   -1.1183   -5.5009   -3.7859 C   0  0  0  0  0  0  0  0  0  0  0  0
   -1.9818   -4.7577   -4.5938 C   0  0  0  0  0  0  0  0  0  0  0  0
   -2.6149   -5.3483   -5.6627 C   0  0  0  0  0  0  0  0  0  0  0  0
   -2.4128   -6.6976   -5.9510 C   0  0  0  0  0  0  0  0  0  0  0  0
   -3.2845   -7.3445   -7.3384 S   0  0  0  0  0  0  0  0  0  0  0  0
   -2.5724   -8.9985   -7.5679 C   0  0  0  0  0  0  0  0  0  0  0  0
   -1.5659   -7.4444   -5.1419 C   0  0  0  0  0  0  0  0  0  0  0  0
   -0.9211   -6.8499   -4.0763 C   0  0  0  0  0  0  0  0  0  0  0  0
   -0.0874   -5.5996   -1.5669 C   0  0  0  0  0  0  0  0  0  0  0  0
   -0.8974   -6.6030   -1.0380 C   0  0  0  0  0  0  0  0  0  0  0  0
   -0.4670   -7.3376    0.0456 C   0  0  0  0  0  0  0  0  0  0  0  0
    0.7732   -7.0796    0.6214 C   0  0  0  0  0  0  0  0  0  0  0  0
    1.2877   -8.1050    1.9698 S   0  0  0  0  0  0  0  0  0  0  0  0
    3.0965   -8.1120    1.7791 C   0  0  0  0  0  0  0  0  0  0  0  0
    1.5554   -6.0394    0.1390 C   0  0  0  0  0  0  0  0  0  0  0  0
    1.1264   -5.3076   -0.9480 C   0  0  0  0  0  0  0  0  0  0  0  0
   -0.5812   -2.6297   -1.7473 C   0  0  0  0  0  0  0  0  0  0  0  0
   -1.4417   -2.7909   -0.2523 S   0  0  0  0  0  0  0  0  0  0  0  0
   -1.4341   -1.0448   -0.0406 C   0  0  0  0  0  0  0  0  0  0  0  0
   -0.7196   -0.3932   -1.0452 C   0  0  0  0  0  0  0  0  0  0  0  0
   -0.4501    0.9706   -1.1041 N   0  0  0  0  0  0  0  0  0  0  0  0
   -0.6269    1.6133   -2.3398 C   0  0  0  0  0  0  0  0  0  0  0  0
   -1.7281    1.2989   -3.1354 C   0  0  0  0  0  0  0  0  0  0  0  0
   -1.8858    1.8906   -4.3679 C   0  0  0  0  0  0  0  0  0  0  0  0
   -0.9498    2.8128   -4.8306 C   0  0  0  0  0  0  0  0  0  0  0  0
   -1.2484    3.5132   -6.4238 S   0  0  0  0  0  0  0  0  0  0  0  0
    0.3387    4.2833   -6.8574 C   0  0  0  0  0  0  0  0  0  0  0  0
    0.1342    3.1481   -4.0298 C   0  0  0  0  0  0  0  0  0  0  0  0
    0.2964    2.5476   -2.7965 C   0  0  0  0  0  0  0  0  0  0  0  0
   -0.0083    1.6663    0.0214 C   0  0  0  0  0  0  0  0  0  0  0  0
    0.7270    1.0150    1.0095 C   0  0  0  0  0  0  0  0  0  0  0  0
    1.0483    1.6569    2.1892 C   0  0  0  0  0  0  0  0  0  0  0  0
    0.6465    2.9683    2.4001 C   0  0  0  0  0  0  0  0  0  0  0  0
    0.9879    3.8515    3.8989 S   0  0  0  0  0  0  0  0  0  0  0  0
    0.8707    2.5600    5.1751 C   0  0  0  0  0  0  0  0  0  0  0  0
   -0.0229    3.6483    1.3868 C   0  0  0  0  0  0  0  0  0  0  0  0
   -0.3482    3.0087    0.2115 C   0  0  0  0  0  0  0  0  0  0  0  0
   -0.2640   -1.3045   -2.0194 C   0  0  0  0  0  0  0  0  0  0  0  0
    0.5635   -1.1258   -3.5257 S   0  0  0  0  0  0  0  0  0  0  0  0
   -2.1992   -0.3949    0.9653 C   0  0  0  0  0  0  0  0  0  0  0  0
   -2.6018   -0.7975    2.2329 C   0  0  0  0  0  0  0  0  0  0  0  0
   -2.3905   -2.0326    2.8277 N   0  0  0  0  0  0  0  0  0  0  0  0
   -1.1431   -2.6553    2.8432 C   0  0  0  0  0  0  0  0  0  0  0  0
   -1.0565   -4.0448    2.9318 C   0  0  0  0  0  0  0  0  0  0  0  0
    0.1713   -4.6625    3.0313 C   0  0  0  0  0  0  0  0  0  0  0  0
    1.3323   -3.9014    3.0297 C   0  0  0  0  0  0  0  0  0  0  0  0
    2.9314   -4.6484    3.2183 S   0  0  0  0  0  0  0  0  0  0  0  0
    2.6119   -5.7944    4.5975 C   0  0  0  0  0  0  0  0  0  0  0  0
    1.2570   -2.5221    2.8896 C   0  0  0  0  0  0  0  0  0  0  0  0
    0.0284   -1.9018    2.8078 C   0  0  0  0  0  0  0  0  0  0  0  0
   -3.4286   -2.5178    3.6439 C   0  0  0  0  0  0  0  0  0  0  0  0
   -3.1656   -3.0739    4.8956 C   0  0  0  0  0  0  0  0  0  0  0  0
   -4.2012   -3.5057    5.6919 C   0  0  0  0  0  0  0  0  0  0  0  0
   -5.5232   -3.3847    5.2658 C   0  0  0  0  0  0  0  0  0  0  0  0
   -6.7631   -3.9592    6.3806 S   0  0  0  0  0  0  0  0  0  0  0  0
   -8.3168   -3.3862    5.6366 C   0  0  0  0  0  0  0  0  0  0  0  0
   -5.7887   -2.8405    4.0167 C   0  0  0  0  0  0  0  0  0  0  0  0
   -4.7483   -2.4150    3.2143 C   0  0  0  0  0  0  0  0  0  0  0  0
   -3.2968    0.2444    2.8986 C   0  0  0  0  0  0  0  0  0  0  0  0
   -3.7532    0.4922    4.5464 S   0  0  0  0  0  0  0  0  0  0  0  0
   -4.2058    2.1454    4.1866 C   0  0  0  0  0  0  0  0  0  0  0  0
   -3.9816    2.4868    2.8499 C   0  0  0  0  0  0  0  0  0  0  0  0
   -4.0575    3.7834    2.3861 N   0  0  0  0  0  0  0  0  0  0  0  0
   -3.6586    4.8172    3.2712 C   0  0  0  0  0  0  0  0  0  0  0  0
   -2.4888    4.6757    4.0099 C   0  0  0  0  0  0  0  0  0  0  0  0
   -2.1337    5.6106    4.9597 C   0  0  0  0  0  0  0  0  0  0  0  0
   -2.9484    6.7139    5.1764 C   0  0  0  0  0  0  0  0  0  0  0  0
   -2.6419    7.9198    6.4266 S   0  0  0  0  0  0  0  0  0  0  0  0
   -0.9481    7.5538    6.9685 C   0  0  0  0  0  0  0  0  0  0  0  0
   -4.0914    6.8886    4.3965 C   0  0  0  0  0  0  0  0  0  0  0  0
   -4.4426    5.9540    3.4452 C   0  0  0  0  0  0  0  0  0  0  0  0
   -4.1021    4.0189    1.0075 C   0  0  0  0  0  0  0  0  0  0  0  0
   -4.9116    3.2273    0.1897 C   0  0  0  0  0  0  0  0  0  0  0  0
   -4.8902    3.3933   -1.1762 C   0  0  0  0  0  0  0  0  0  0  0  0
   -4.0721    4.3590   -1.7606 C   0  0  0  0  0  0  0  0  0  0  0  0
   -4.0880    4.4397   -3.5209 S   0  0  0  0  0  0  0  0  0  0  0  0
   -2.7859    5.6380   -3.9154 C   0  0  0  0  0  0  0  0  0  0  0  0
   -3.3173    5.1920   -0.9445 C   0  0  0  0  0  0  0  0  0  0  0  0
   -3.3343    5.0237    0.4263 C   0  0  0  0  0  0  0  0  0  0  0  0
   -3.4686    1.3899    2.1346 C   0  0  0  0  0  0  0  0  0  0  0  0
   -2.8106    1.2105    0.5548 S   0  0  0  0  0  0  0  0  0  0  0  0
   -4.6989    3.0755    5.1375 C   0  0  0  0  0  0  0  0  0  0  0  0
   -4.2071    3.3215    6.3830 C   0  0  0  0  0  0  0  0  0  0  0  0
   -2.9027    2.8276    6.8716 C   0  0  0  0  0  0  0  0  0  0  0  0
   -2.2280    1.9233    6.4203 O   0  0  0  0  0  0  0  0  0  0  0  0
   -2.5208    3.7430    7.9628 C   0  0  0  0  0  0  0  0  0  0  0  0
   -1.3175    3.7481    8.6653 C   0  0  0  0  0  0  0  0  0  0  0  0
   -1.2155    4.7536    9.5965 C   0  0  0  0  0  0  0  0  0  0  0  0
   -2.2335    5.6941    9.8100 C   0  0  0  0  0  0  0  0  0  0  0  0
   -3.4248    5.7022    9.1243 C   0  0  0  0  0  0  0  0  0  0  0  0
   -3.5511    4.6811    8.1785 C   0  0  0  0  0  0  0  0  0  0  0  0
   -4.6410    4.3972    7.2520 C   0  0  0  0  0  0  0  0  0  0  0  0
   -5.8536    5.0305    7.2083 C   0  0  0  0  0  0  0  0  0  0  0  0
   -6.2404    6.0769    8.0705 C   0  0  0  0  0  0  0  0  0  0  0  0
   -6.6205    6.9262    8.7430 N   0  0  0  0  0  0  0  0  0  0  0  0
   -6.8933    4.6954    6.3155 C   0  0  0  0  0  0  0  0  0  0  0  0
   -7.7882    4.4687    5.6320 N   0  0  0  0  0  0  0  0  0  0  0  0
   -1.4516    6.4153   10.8792 C   0  0  0  0  0  0  0  0  0  0  0  0
   -1.8513    6.1663   12.3541 C   0  0  0  0  0  0  0  0  0  0  0  0
   -2.4813    4.7962   12.4012 C   0  0  0  0  0  0  0  0  0  0  0  0
   -1.5218    3.9025   12.2019 C   0  0  0  0  0  0  0  0  0  0  0  0
   -0.2255    4.6522   12.0165 C   0  0  0  0  0  0  0  0  0  0  0  0
   -0.4696    5.8497   12.9485 C   0  0  0  0  0  0  0  0  0  0  0  0
   -0.3197    5.3651   10.6448 C   0  0  0  0  0  0  0  0  0  0  0  0
    5.0914   -6.0976   -8.9163 H   0  0  0  0  0  0  0  0  0  0  0  0
    9.2987   -4.6415  -11.7669 H   0  0  0  0  0  0  0  0  0  0  0  0
    6.1433   -0.6789  -11.9521 H   0  0  0  0  0  0  0  0  0  0  0  0
    8.8264   -0.1756  -14.0359 H   0  0  0  0  0  0  0  0  0  0  0  0
    9.1793    1.2700  -11.8268 H   0  0  0  0  0  0  0  0  0  0  0  0
   11.1643    1.7699  -13.4737 H   0  0  0  0  0  0  0  0  0  0  0  0
   12.8362   -0.2936  -13.4047 H   0  0  0  0  0  0  0  0  0  0  0  0
   11.8809   -2.0639  -11.7148 H   0  0  0  0  0  0  0  0  0  0  0  0
   11.1091    0.1169  -10.4290 H   0  0  0  0  0  0  0  0  0  0  0  0
    9.7298   -1.0033  -10.5035 H   0  0  0  0  0  0  0  0  0  0  0  0
   10.4639   -2.2004  -13.9677 H   0  0  0  0  0  0  0  0  0  0  0  0
   -2.1530   -3.7135   -4.3785 H   0  0  0  0  0  0  0  0  0  0  0  0
   -3.2781   -4.7717   -6.2888 H   0  0  0  0  0  0  0  0  0  0  0  0
   -3.0111   -9.3797   -8.4848 H   0  0  0  0  0  0  0  0  0  0  0  0
   -1.4949   -8.9209   -7.6784 H   0  0  0  0  0  0  0  0  0  0  0  0
   -2.8415   -9.6437   -6.7365 H   0  0  0  0  0  0  0  0  0  0  0  0
   -1.3878   -8.4893   -5.3367 H   0  0  0  0  0  0  0  0  0  0  0  0
   -0.2432   -7.4326   -3.4715 H   0  0  0  0  0  0  0  0  0  0  0  0
   -1.8556   -6.8102   -1.4895 H   0  0  0  0  0  0  0  0  0  0  0  0
   -1.0836   -8.1255    0.4503 H   0  0  0  0  0  0  0  0  0  0  0  0
    3.3402   -8.3122    0.7405 H   0  0  0  0  0  0  0  0  0  0  0  0
    3.5208   -7.1665    2.1038 H   0  0  0  0  0  0  0  0  0  0  0  0
    3.4592   -8.9168    2.4109 H   0  0  0  0  0  0  0  0  0  0  0  0
    2.5009   -5.7978    0.5964 H   0  0  0  0  0  0  0  0  0  0  0  0
    1.7480   -4.5157   -1.3394 H   0  0  0  0  0  0  0  0  0  0  0  0
   -2.4590    0.5906   -2.7750 H   0  0  0  0  0  0  0  0  0  0  0  0
   -2.7377    1.6524   -4.9848 H   0  0  0  0  0  0  0  0  0  0  0  0
    1.1370    3.5555   -6.7489 H   0  0  0  0  0  0  0  0  0  0  0  0
    0.2458    4.5782   -7.8979 H   0  0  0  0  0  0  0  0  0  0  0  0
    0.5170    5.1614   -6.2430 H   0  0  0  0  0  0  0  0  0  0  0  0
    0.8667    3.8682   -4.3585 H   0  0  0  0  0  0  0  0  0  0  0  0
    1.1496    2.7990   -2.1840 H   0  0  0  0  0  0  0  0  0  0  0  0
    1.0451   -0.0044    0.8472 H   0  0  0  0  0  0  0  0  0  0  0  0
    1.6160    1.1290    2.9399 H   0  0  0  0  0  0  0  0  0  0  0  0
    0.9899    3.0790    6.1212 H   0  0  0  0  0  0  0  0  0  0  0  0
    1.6683    1.8332    5.0590 H   0  0  0  0  0  0  0  0  0  0  0  0
   -0.1054    2.0837    5.1394 H   0  0  0  0  0  0  0  0  0  0  0  0
   -0.3072    4.6775    1.5436 H   0  0  0  0  0  0  0  0  0  0  0  0
   -0.9116    3.5285   -0.5483 H   0  0  0  0  0  0  0  0  0  0  0  0
   -1.9587   -4.6369    2.9312 H   0  0  0  0  0  0  0  0  0  0  0  0
    0.2184   -5.7367    3.1109 H   0  0  0  0  0  0  0  0  0  0  0  0
    3.5842   -6.1295    4.9447 H   0  0  0  0  0  0  0  0  0  0  0  0
    2.0238   -6.6431    4.2618 H   0  0  0  0  0  0  0  0  0  0  0  0
    2.0973   -5.2563    5.3872 H   0  0  0  0  0  0  0  0  0  0  0  0
    2.1668   -1.9406    2.8773 H   0  0  0  0  0  0  0  0  0  0  0  0
   -0.0394   -0.8265    2.7543 H   0  0  0  0  0  0  0  0  0  0  0  0
   -2.1473   -3.1495    5.2452 H   0  0  0  0  0  0  0  0  0  0  0  0
   -4.0014   -3.9285    6.6643 H   0  0  0  0  0  0  0  0  0  0  0  0
   -8.5089   -3.9178    4.7091 H   0  0  0  0  0  0  0  0  0  0  0  0
   -8.2727   -2.3129    5.4775 H   0  0  0  0  0  0  0  0  0  0  0  0
   -9.0909   -3.6211    6.3604 H   0  0  0  0  0  0  0  0  0  0  0  0
   -6.7987   -2.7470    3.6519 H   0  0  0  0  0  0  0  0  0  0  0  0
   -4.9609   -1.9979    2.2408 H   0  0  0  0  0  0  0  0  0  0  0  0
   -1.8643    3.8100    3.8533 H   0  0  0  0  0  0  0  0  0  0  0  0
   -1.2263    5.4601    5.5209 H   0  0  0  0  0  0  0  0  0  0  0  0
   -0.6786    8.3615    7.6417 H   0  0  0  0  0  0  0  0  0  0  0  0
   -0.9188    6.6065    7.4998 H   0  0  0  0  0  0  0  0  0  0  0  0
   -0.2823    7.5486    6.1108 H   0  0  0  0  0  0  0  0  0  0  0  0
   -4.7082    7.7591    4.5589 H   0  0  0  0  0  0  0  0  0  0  0  0
   -5.3351    6.0852    2.8522 H   0  0  0  0  0  0  0  0  0  0  0  0
   -5.5547    2.4833    0.6351 H   0  0  0  0  0  0  0  0  0  0  0  0
   -5.5037    2.7737   -1.8114 H   0  0  0  0  0  0  0  0  0  0  0  0
   -3.0684    6.6288   -3.5717 H   0  0  0  0  0  0  0  0  0  0  0  0
   -2.7072    5.6289   -4.9982 H   0  0  0  0  0  0  0  0  0  0  0  0
   -1.8473    5.3140   -3.4747 H   0  0  0  0  0  0  0  0  0  0  0  0
   -2.7010    5.9712   -1.3635 H   0  0  0  0  0  0  0  0  0  0  0  0
   -2.7321    5.6653    1.0522 H   0  0  0  0  0  0  0  0  0  0  0  0
   -5.4735    3.7339    4.7604 H   0  0  0  0  0  0  0  0  0  0  0  0
   -0.5564    3.0092    8.4661 H   0  0  0  0  0  0  0  0  0  0  0  0
   -4.1920    6.4407    9.2855 H   0  0  0  0  0  0  0  0  0  0  0  0
   -1.2270    7.4616   10.6811 H   0  0  0  0  0  0  0  0  0  0  0  0
   -2.4204    6.9723   12.8090 H   0  0  0  0  0  0  0  0  0  0  0  0
   -3.5359    4.6261   12.5138 H   0  0  0  0  0  0  0  0  0  0  0  0
   -1.6147    2.8357   12.1142 H   0  0  0  0  0  0  0  0  0  0  0  0
    0.6862    4.0793   12.1655 H   0  0  0  0  0  0  0  0  0  0  0  0
    0.2533    6.6543   12.8199 H   0  0  0  0  0  0  0  0  0  0  0  0
   -0.5181    5.5632   13.9978 H   0  0  0  0  0  0  0  0  0  0  0  0
    0.6475    5.7255   10.2980 H   0  0  0  0  0  0  0  0  0  0  0  0
  1  2  2  0  0  0  0
  2  3  1  0  0  0  0
  3  4  2  0  0  0  0
  3  5  1  0  0  0  0
  5  6  2  0  0  0  0
  6  7  1  0  0  0  0
  7  8  2  0  0  0  0
  8  9  1  0  0  0  0
  9 10  2  0  0  0  0
 10 11  1  0  0  0  0
 11 12  2  0  0  0  0
 12 13  1  0  0  0  0
 13 14  3  0  0  0  0
 12 15  1  0  0  0  0
 15 16  3  0  0  0  0
  8 17  1  0  0  0  0
 17 18  1  0  0  0  0
 18 19  1  0  0  0  0
 19 20  2  0  0  0  0
 20 21  1  0  0  0  0
 21 22  1  0  0  0  0
 21 23  1  0  0  0  0
  1 24  1  0  0  0  0
 24 25  1  0  0  0  0
 25 26  1  0  0  0  0
 26 27  1  0  0  0  0
 27 28  2  0  0  0  0
 28 29  1  0  0  0  0
 29 30  1  0  0  0  0
 30 31  1  0  0  0  0
 28 32  1  0  0  0  0
 32 33  2  0  0  0  0
 33 34  1  0  0  0  0
 34 35  1  0  0  0  0
 35 36  2  0  0  0  0
 36 37  1  0  0  0  0
 37 38  2  0  0  0  0
 38 39  1  0  0  0  0
 39 40  1  0  0  0  0
 38 41  1  0  0  0  0
 41 42  2  0  0  0  0
 34 43  1  0  0  0  0
 43 44  2  0  0  0  0
 44 45  1  0  0  0  0
 45 46  2  0  0  0  0
 46 47  1  0  0  0  0
 47 48  1  0  0  0  0
 46 49  1  0  0  0  0
 49 50  2  0  0  0  0
 33 51  1  0  0  0  0
 51 52  1  0  0  0  0
 52 53  1  0  0  0  0
 53 54  2  0  0  0  0
 54 55  1  0  0  0  0
 55 56  1  0  0  0  0
 56 57  2  0  0  0  0
 57 58  1  0  0  0  0
 58 59  2  0  0  0  0
 59 60  1  0  0  0  0
 60 61  1  0  0  0  0
 59 62  1  0  0  0  0
 62 63  2  0  0  0  0
 55 64  1  0  0  0  0
 64 65  2  0  0  0  0
 65 66  1  0  0  0  0
 66 67  2  0  0  0  0
 67 68  1  0  0  0  0
 68 69  1  0  0  0  0
 67 70  1  0  0  0  0
 70 71  2  0  0  0  0
 54 72  1  0  0  0  0
 72 73  1  0  0  0  0
 53 74  1  0  0  0  0
 74 75  2  0  0  0  0
 75 76  1  0  0  0  0
 76 77  1  0  0  0  0
 77 78  2  0  0  0  0
 78 79  1  0  0  0  0
 79 80  2  0  0  0  0
 80 81  1  0  0  0  0
 81 82  1  0  0  0  0
 80 83  1  0  0  0  0
 83 84  2  0  0  0  0
 76 85  1  0  0  0  0
 85 86  2  0  0  0  0
 86 87  1  0  0  0  0
 87 88  2  0  0  0  0
 88 89  1  0  0  0  0
 89 90  1  0  0  0  0
 88 91  1  0  0  0  0
 91 92  2  0  0  0  0
 75 93  1  0  0  0  0
 93 94  1  0  0  0  0
 94 95  1  0  0  0  0
 95 96  2  0  0  0  0
 96 97  1  0  0  0  0
 97 98  1  0  0  0  0
 98 99  2  0  0  0  0
 99100  1  0  0  0  0
100101  2  0  0  0  0
101102  1  0  0  0  0
102103  1  0  0  0  0
101104  1  0  0  0  0
104105  2  0  0  0  0
 97106  1  0  0  0  0
106107  2  0  0  0  0
107108  1  0  0  0  0
108109  2  0  0  0  0
109110  1  0  0  0  0
110111  1  0  0  0  0
109112  1  0  0  0  0
112113  2  0  0  0  0
 96114  1  0  0  0  0
114115  1  0  0  0  0
 95116  1  0  0  0  0
116117  2  0  0  0  0
117118  1  0  0  0  0
118119  2  0  0  0  0
118120  1  0  0  0  0
120121  2  0  0  0  0
121122  1  0  0  0  0
122123  2  0  0  0  0
123124  1  0  0  0  0
124125  2  0  0  0  0
125126  1  0  0  0  0
126127  2  0  0  0  0
127128  1  0  0  0  0
128129  3  0  0  0  0
127130  1  0  0  0  0
130131  3  0  0  0  0
123132  1  0  0  0  0
132133  1  0  0  0  0
133134  1  0  0  0  0
134135  2  0  0  0  0
135136  1  0  0  0  0
136137  1  0  0  0  0
136138  1  0  0  0  0
 11  2  1  0  0  0  0
 23 17  1  0  0  0  0
 31 24  2  0  0  0  0
 73 32  1  0  0  0  0
115 74  1  0  0  0  0
126117  1  0  0  0  0
138132  1  0  0  0  0
 10  5  1  0  0  0  0
 22 18  1  0  0  0  0
 30 26  2  0  0  0  0
 42 35  1  0  0  0  0
 50 43  1  0  0  0  0
 72 51  2  0  0  0  0
 84 77  1  0  0  0  0
 92 85  1  0  0  0  0
114 93  2  0  0  0  0
125120  1  0  0  0  0
137133  1  0  0  0  0
 23  7  1  0  0  0  0
 63 56  1  0  0  0  0
 71 64  1  0  0  0  0
105 98  1  0  0  0  0
113106  1  0  0  0  0
138122  1  0  0  0  0
  1139  1  0  0  0  0
  6140  1  0  0  0  0
  9141  1  0  0  0  0
 17142  1  0  0  0  0
 18143  1  0  0  0  0
 19144  1  0  0  0  0
 20145  1  0  0  0  0
 21146  1  0  0  0  0
 22147  1  0  0  0  0
 22148  1  0  0  0  0
 23149  1  0  0  0  0
 36150  1  0  0  0  0
 37151  1  0  0  0  0
 40152  1  0  0  0  0
 40153  1  0  0  0  0
 40154  1  0  0  0  0
 41155  1  0  0  0  0
 42156  1  0  0  0  0
 44157  1  0  0  0  0
 45158  1  0  0  0  0
 48159  1  0  0  0  0
 48160  1  0  0  0  0
 48161  1  0  0  0  0
 49162  1  0  0  0  0
 50163  1  0  0  0  0
 57164  1  0  0  0  0
 58165  1  0  0  0  0
 61166  1  0  0  0  0
 61167  1  0  0  0  0
 61168  1  0  0  0  0
 62169  1  0  0  0  0
 63170  1  0  0  0  0
 65171  1  0  0  0  0
 66172  1  0  0  0  0
 69173  1  0  0  0  0
 69174  1  0  0  0  0
 69175  1  0  0  0  0
 70176  1  0  0  0  0
 71177  1  0  0  0  0
 78178  1  0  0  0  0
 79179  1  0  0  0  0
 82180  1  0  0  0  0
 82181  1  0  0  0  0
 82182  1  0  0  0  0
 83183  1  0  0  0  0
 84184  1  0  0  0  0
 86185  1  0  0  0  0
 87186  1  0  0  0  0
 90187  1  0  0  0  0
 90188  1  0  0  0  0
 90189  1  0  0  0  0
 91190  1  0  0  0  0
 92191  1  0  0  0  0
 99192  1  0  0  0  0
100193  1  0  0  0  0
103194  1  0  0  0  0
103195  1  0  0  0  0
103196  1  0  0  0  0
104197  1  0  0  0  0
105198  1  0  0  0  0
107199  1  0  0  0  0
108200  1  0  0  0  0
111201  1  0  0  0  0
111202  1  0  0  0  0
111203  1  0  0  0  0
112204  1  0  0  0  0
113205  1  0  0  0  0
116206  1  0  0  0  0
121207  1  0  0  0  0
124208  1  0  0  0  0
132209  1  0  0  0  0
133210  1  0  0  0  0
134211  1  0  0  0  0
135212  1  0  0  0  0
136213  1  0  0  0  0
137214  1  0  0  0  0
137215  1  0  0  0  0
138216  1  0  0  0  0
M  END
