
  xtb     02152208413D
 energy: -274.627378248532 gnorm: 0.000238243866 xtb: 6.4.1 (unknown)
161179  0     0  0            999 V2000
   -4.3283   -3.4742    7.6860 C   0  0  0  0  0  0  0  0  0  0  0  0
   -5.0973   -4.2177    6.8599 C   0  0  0  0  0  0  0  0  0  0  0  0
   -4.7170   -4.6128    5.4738 C   0  0  0  0  0  0  0  0  0  0  0  0
   -3.6078   -4.6510    4.9895 O   0  0  0  0  0  0  0  0  0  0  0  0
   -5.9772   -5.0245    4.8301 C   0  0  0  0  0  0  0  0  0  0  0  0
   -6.1672   -5.3354    3.4856 C   0  0  0  0  0  0  0  0  0  0  0  0
   -7.4619   -5.6615    3.1632 C   0  0  0  0  0  0  0  0  0  0  0  0
   -8.4957   -5.6880    4.1105 C   0  0  0  0  0  0  0  0  0  0  0  0
   -8.3210   -5.3984    5.4419 C   0  0  0  0  0  0  0  0  0  0  0  0
   -7.0099   -5.0565    5.7903 C   0  0  0  0  0  0  0  0  0  0  0  0
   -6.4588   -4.6794    7.0863 C   0  0  0  0  0  0  0  0  0  0  0  0
   -7.0878   -4.7902    8.2960 C   0  0  0  0  0  0  0  0  0  0  0  0
   -6.4746   -4.5096    9.5345 C   0  0  0  0  0  0  0  0  0  0  0  0
   -6.0210   -4.3244   10.5732 N   0  0  0  0  0  0  0  0  0  0  0  0
   -8.4069   -5.2596    8.4707 C   0  0  0  0  0  0  0  0  0  0  0  0
   -9.4719   -5.6333    8.6791 N   0  0  0  0  0  0  0  0  0  0  0  0
   -9.5320   -6.0745    3.0851 C   0  0  0  0  0  0  0  0  0  0  0  0
  -10.4900   -4.9679    2.5781 C   0  0  0  0  0  0  0  0  0  0  0  0
   -9.7560   -3.6593    2.7357 C   0  0  0  0  0  0  0  0  0  0  0  0
   -8.7774   -3.6334    1.8409 C   0  0  0  0  0  0  0  0  0  0  0  0
   -8.8326   -4.9242    1.0613 C   0  0  0  0  0  0  0  0  0  0  0  0
  -10.3487   -5.1765    1.0618 C   0  0  0  0  0  0  0  0  0  0  0  0
   -8.3809   -6.0449    2.0308 C   0  0  0  0  0  0  0  0  0  0  0  0
   -3.1075   -2.8347    7.2103 C   0  0  0  0  0  0  0  0  0  0  0  0
   -1.8362   -2.9066    7.7436 C   0  0  0  0  0  0  0  0  0  0  0  0
   -1.4420   -3.6380    8.8017 O   0  0  0  0  0  0  0  0  0  0  0  0
   -2.3698   -4.1850    9.7132 C   0  0  0  0  0  0  0  0  0  0  0  0
   -2.9044   -3.1433   10.6898 C   0  0  0  0  0  0  0  0  0  0  0  0
   -0.6905   -2.2868    7.0883 C   0  0  0  0  0  0  0  0  0  0  0  0
    0.4485   -2.5637    7.7473 O   0  0  0  0  0  0  0  0  0  0  0  0
    1.7064   -2.1487    7.2517 C   0  0  0  0  0  0  0  0  0  0  0  0
    2.7684   -2.7915    8.1307 C   0  0  0  0  0  0  0  0  0  0  0  0
   -0.8310   -1.5675    5.9283 C   0  0  0  0  0  0  0  0  0  0  0  0
   -2.1410   -1.4376    5.4007 C   0  0  0  0  0  0  0  0  0  0  0  0
   -3.2618   -2.0638    6.0245 C   0  0  0  0  0  0  0  0  0  0  0  0
   -4.3973   -1.8270    5.3771 N   0  0  0  0  0  0  0  0  0  0  0  0
   -4.0714   -0.9128    4.0872 S   0  0  0  0  0  0  0  0  0  0  0  0
   -2.4810   -0.7639    4.3065 N   0  0  0  0  0  0  0  0  0  0  0  0
    0.1913   -1.0243    5.0100 C   0  0  0  0  0  0  0  0  0  0  0  0
    0.8262    0.1853    5.1238 C   0  0  0  0  0  0  0  0  0  0  0  0
    0.7169    0.9059    6.2566 F   0  0  0  0  0  0  0  0  0  0  0  0
    1.5755    0.7318    4.0675 C   0  0  0  0  0  0  0  0  0  0  0  0
    2.1392    1.9334    4.2794 F   0  0  0  0  0  0  0  0  0  0  0  0
    1.6758    0.1216    2.8302 C   0  0  0  0  0  0  0  0  0  0  0  0
    1.0603   -1.1610    2.6995 C   0  0  0  0  0  0  0  0  0  0  0  0
    1.1683   -1.8624    1.5582 N   0  0  0  0  0  0  0  0  0  0  0  0
    0.5611   -3.0174    1.4405 C   0  0  0  0  0  0  0  0  0  0  0  0
    0.7058   -3.6980    0.1124 C   0  0  0  0  0  0  0  0  0  0  0  0
   -0.4300   -3.2769   -0.8235 C   0  0  0  0  0  0  0  0  0  0  0  0
   -0.1999   -3.5536    2.5190 C   0  0  0  0  0  0  0  0  0  0  0  0
   -0.2695   -2.9091    3.6545 N   0  0  0  0  0  0  0  0  0  0  0  0
    0.3322   -1.7148    3.7785 C   0  0  0  0  0  0  0  0  0  0  0  0
   -0.8964   -4.8790    2.4816 C   0  0  0  0  0  0  0  0  0  0  0  0
    0.0550   -5.9885    2.9375 C   0  0  0  0  0  0  0  0  0  0  0  0
    2.2942    0.7577    1.6902 C   0  0  0  0  0  0  0  0  0  0  0  0
    1.9682    0.5353    0.3848 C   0  0  0  0  0  0  0  0  0  0  0  0
    2.6906    1.3334   -0.5296 C   0  0  0  0  0  0  0  0  0  0  0  0
    2.5815    1.3345   -1.9318 C   0  0  0  0  0  0  0  0  0  0  0  0
    1.5982    0.5163   -2.6138 C   0  0  0  0  0  0  0  0  0  0  0  0
    0.2791    0.3430   -2.3015 C   0  0  0  0  0  0  0  0  0  0  0  0
   -0.3979   -0.5025   -3.2030 C   0  0  0  0  0  0  0  0  0  0  0  0
    0.4019   -0.9877   -4.1920 C   0  0  0  0  0  0  0  0  0  0  0  0
    0.0342   -1.8647   -5.3387 C   0  0  0  0  0  0  0  0  0  0  0  0
   -0.0358   -1.0602   -6.6385 C   0  0  0  0  0  0  0  0  0  0  0  0
    2.0189   -0.3885   -4.0375 S   0  0  0  0  0  0  0  0  0  0  0  0
    3.4372    2.1831   -2.6232 C   0  0  0  0  0  0  0  0  0  0  0  0
    4.3781    3.0240   -1.9713 C   0  0  0  0  0  0  0  0  0  0  0  0
    4.5073    3.0040   -0.5589 C   0  0  0  0  0  0  0  0  0  0  0  0
    5.5099    3.8002    0.1104 C   0  0  0  0  0  0  0  0  0  0  0  0
    6.7985    4.0412   -0.2871 C   0  0  0  0  0  0  0  0  0  0  0  0
    7.5164    4.8497    0.6126 C   0  0  0  0  0  0  0  0  0  0  0  0
    6.7863    5.2335    1.6972 C   0  0  0  0  0  0  0  0  0  0  0  0
    7.1958    6.1145    2.8261 C   0  0  0  0  0  0  0  0  0  0  0  0
    6.5394    7.4928    2.7221 C   0  0  0  0  0  0  0  0  0  0  0  0
    5.1816    4.5871    1.6294 S   0  0  0  0  0  0  0  0  0  0  0  0
    3.6282    2.1732    0.1248 C   0  0  0  0  0  0  0  0  0  0  0  0
    3.5392    1.9769    1.8546 S   0  0  0  0  0  0  0  0  0  0  0  0
    5.0288    3.8580   -2.8933 C   0  0  0  0  0  0  0  0  0  0  0  0
    4.6306    3.6759   -4.2061 C   0  0  0  0  0  0  0  0  0  0  0  0
    3.4170    2.4232   -4.3460 S   0  0  0  0  0  0  0  0  0  0  0  0
    5.1648    4.4491   -5.2584 C   0  0  0  0  0  0  0  0  0  0  0  0
    4.8522    4.4738   -6.5879 C   0  0  0  0  0  0  0  0  0  0  0  0
    3.7991    3.6867   -7.2558 C   0  0  0  0  0  0  0  0  0  0  0  0
    3.1313    2.7847   -6.7885 O   0  0  0  0  0  0  0  0  0  0  0  0
    3.7028    4.2132   -8.6277 C   0  0  0  0  0  0  0  0  0  0  0  0
    2.7941    3.8227   -9.6083 C   0  0  0  0  0  0  0  0  0  0  0  0
    2.9221    4.5071  -10.7925 C   0  0  0  0  0  0  0  0  0  0  0  0
    3.8816    5.5103  -10.9860 C   0  0  0  0  0  0  0  0  0  0  0  0
    4.7843    5.9037  -10.0270 C   0  0  0  0  0  0  0  0  0  0  0  0
    4.6761    5.2150   -8.8148 C   0  0  0  0  0  0  0  0  0  0  0  0
    5.4450    5.3542   -7.5801 C   0  0  0  0  0  0  0  0  0  0  0  0
    6.5540    6.1447   -7.4227 C   0  0  0  0  0  0  0  0  0  0  0  0
    7.3369    6.2441   -6.2533 C   0  0  0  0  0  0  0  0  0  0  0  0
    8.0367    6.3806   -5.3522 N   0  0  0  0  0  0  0  0  0  0  0  0
    7.1020    6.9609   -8.4347 C   0  0  0  0  0  0  0  0  0  0  0  0
    7.6056    7.6469   -9.2055 N   0  0  0  0  0  0  0  0  0  0  0  0
    3.4386    5.7705  -12.4040 C   0  0  0  0  0  0  0  0  0  0  0  0
    4.3100    5.1981  -13.5491 C   0  0  0  0  0  0  0  0  0  0  0  0
    5.0177    3.9905  -12.9863 C   0  0  0  0  0  0  0  0  0  0  0  0
    4.1118    3.0393  -12.8028 C   0  0  0  0  0  0  0  0  0  0  0  0
    2.7749    3.5866  -13.2384 C   0  0  0  0  0  0  0  0  0  0  0  0
    3.2201    4.5081  -14.3851 C   0  0  0  0  0  0  0  0  0  0  0  0
    2.3713    4.6515  -12.1887 C   0  0  0  0  0  0  0  0  0  0  0  0
   -4.7003   -3.2108    8.6672 H   0  0  0  0  0  0  0  0  0  0  0  0
   -5.3448   -5.3028    2.7882 H   0  0  0  0  0  0  0  0  0  0  0  0
   -9.1245   -5.4201    6.1594 H   0  0  0  0  0  0  0  0  0  0  0  0
  -10.0432   -7.0196    3.2562 H   0  0  0  0  0  0  0  0  0  0  0  0
  -11.4911   -5.0108    2.9985 H   0  0  0  0  0  0  0  0  0  0  0  0
   -9.9805   -2.9342    3.4957 H   0  0  0  0  0  0  0  0  0  0  0  0
   -8.0208   -2.8828    1.7056 H   0  0  0  0  0  0  0  0  0  0  0  0
   -8.3250   -4.9269    0.1001 H   0  0  0  0  0  0  0  0  0  0  0  0
  -10.6222   -6.1785    0.7340 H   0  0  0  0  0  0  0  0  0  0  0  0
  -10.8987   -4.4368    0.4821 H   0  0  0  0  0  0  0  0  0  0  0  0
   -8.1407   -6.9709    1.5119 H   0  0  0  0  0  0  0  0  0  0  0  0
   -1.8038   -4.9495   10.2523 H   0  0  0  0  0  0  0  0  0  0  0  0
   -3.1902   -4.6751    9.1719 H   0  0  0  0  0  0  0  0  0  0  0  0
   -2.1102   -2.8131   11.3541 H   0  0  0  0  0  0  0  0  0  0  0  0
   -3.7111   -3.5712   11.2776 H   0  0  0  0  0  0  0  0  0  0  0  0
   -3.2809   -2.2734   10.1557 H   0  0  0  0  0  0  0  0  0  0  0  0
    1.8268   -2.4688    6.2092 H   0  0  0  0  0  0  0  0  0  0  0  0
    1.7887   -1.0570    7.3045 H   0  0  0  0  0  0  0  0  0  0  0  0
    2.6331   -2.4774    9.1616 H   0  0  0  0  0  0  0  0  0  0  0  0
    3.7564   -2.4933    7.7924 H   0  0  0  0  0  0  0  0  0  0  0  0
    2.6840   -3.8735    8.0848 H   0  0  0  0  0  0  0  0  0  0  0  0
    0.7052   -4.7809    0.2335 H   0  0  0  0  0  0  0  0  0  0  0  0
    1.6561   -3.3890   -0.3248 H   0  0  0  0  0  0  0  0  0  0  0  0
   -1.3988   -3.5386   -0.4030 H   0  0  0  0  0  0  0  0  0  0  0  0
   -0.3225   -3.7696   -1.7868 H   0  0  0  0  0  0  0  0  0  0  0  0
   -0.4025   -2.2023   -0.9838 H   0  0  0  0  0  0  0  0  0  0  0  0
   -1.2663   -5.0932    1.4787 H   0  0  0  0  0  0  0  0  0  0  0  0
   -1.7362   -4.8318    3.1768 H   0  0  0  0  0  0  0  0  0  0  0  0
   -0.4560   -6.9478    2.9194 H   0  0  0  0  0  0  0  0  0  0  0  0
    0.9301   -6.0474    2.2925 H   0  0  0  0  0  0  0  0  0  0  0  0
    0.3873   -5.7923    3.9535 H   0  0  0  0  0  0  0  0  0  0  0  0
    1.2366   -0.1903    0.0896 H   0  0  0  0  0  0  0  0  0  0  0  0
   -0.2013    0.8424   -1.4787 H   0  0  0  0  0  0  0  0  0  0  0  0
   -1.4443   -0.7403   -3.1208 H   0  0  0  0  0  0  0  0  0  0  0  0
   -0.9350   -2.3263   -5.1364 H   0  0  0  0  0  0  0  0  0  0  0  0
    0.7771   -2.6584   -5.4488 H   0  0  0  0  0  0  0  0  0  0  0  0
   -0.2896   -1.7098   -7.4728 H   0  0  0  0  0  0  0  0  0  0  0  0
   -0.7911   -0.2816   -6.5595 H   0  0  0  0  0  0  0  0  0  0  0  0
    0.9233   -0.5885   -6.8395 H   0  0  0  0  0  0  0  0  0  0  0  0
    7.2327    3.6110   -1.1718 H   0  0  0  0  0  0  0  0  0  0  0  0
    8.5431    5.1335    0.4626 H   0  0  0  0  0  0  0  0  0  0  0  0
    6.9079    5.6530    3.7738 H   0  0  0  0  0  0  0  0  0  0  0  0
    8.2825    6.2221    2.8121 H   0  0  0  0  0  0  0  0  0  0  0  0
    6.8521    8.1224    3.5512 H   0  0  0  0  0  0  0  0  0  0  0  0
    5.4565    7.3956    2.7472 H   0  0  0  0  0  0  0  0  0  0  0  0
    6.8223    7.9775    1.7904 H   0  0  0  0  0  0  0  0  0  0  0  0
    5.7473    4.6092   -2.6175 H   0  0  0  0  0  0  0  0  0  0  0  0
    5.9224    5.1470   -4.9213 H   0  0  0  0  0  0  0  0  0  0  0  0
    2.0671    3.0500   -9.4128 H   0  0  0  0  0  0  0  0  0  0  0  0
    5.5099    6.6827  -10.1909 H   0  0  0  0  0  0  0  0  0  0  0  0
    3.0855    6.7780  -12.6153 H   0  0  0  0  0  0  0  0  0  0  0  0
    4.9364    5.9317  -14.0493 H   0  0  0  0  0  0  0  0  0  0  0  0
    6.0616    3.9728  -12.7333 H   0  0  0  0  0  0  0  0  0  0  0  0
    4.2474    2.0675  -12.3654 H   0  0  0  0  0  0  0  0  0  0  0  0
    2.0034    2.8526  -13.4564 H   0  0  0  0  0  0  0  0  0  0  0  0
    2.4387    5.1868  -14.7245 H   0  0  0  0  0  0  0  0  0  0  0  0
    3.6247    3.9590  -15.2339 H   0  0  0  0  0  0  0  0  0  0  0  0
    1.3211    4.9279  -12.2609 H   0  0  0  0  0  0  0  0  0  0  0  0
  1  2  2  0  0  0  0
  2  3  1  0  0  0  0
  3  4  2  0  0  0  0
  3  5  1  0  0  0  0
  5  6  2  0  0  0  0
  6  7  1  0  0  0  0
  7  8  2  0  0  0  0
  8  9  1  0  0  0  0
  9 10  2  0  0  0  0
 10 11  1  0  0  0  0
 11 12  2  0  0  0  0
 12 13  1  0  0  0  0
 13 14  3  0  0  0  0
 12 15  1  0  0  0  0
 15 16  3  0  0  0  0
  8 17  1  0  0  0  0
 17 18  1  0  0  0  0
 18 19  1  0  0  0  0
 19 20  2  0  0  0  0
 20 21  1  0  0  0  0
 21 22  1  0  0  0  0
 21 23  1  0  0  0  0
  1 24  1  0  0  0  0
 24 25  2  0  0  0  0
 25 26  1  0  0  0  0
 26 27  1  0  0  0  0
 27 28  1  0  0  0  0
 25 29  1  0  0  0  0
 29 30  1  0  0  0  0
 30 31  1  0  0  0  0
 31 32  1  0  0  0  0
 29 33  2  0  0  0  0
 33 34  1  0  0  0  0
 34 35  1  0  0  0  0
 35 36  2  0  0  0  0
 36 37  1  0  0  0  0
 37 38  1  0  0  0  0
 33 39  1  0  0  0  0
 39 40  2  0  0  0  0
 40 41  1  0  0  0  0
 40 42  1  0  0  0  0
 42 43  1  0  0  0  0
 42 44  2  0  0  0  0
 44 45  1  0  0  0  0
 45 46  2  0  0  0  0
 46 47  1  0  0  0  0
 47 48  1  0  0  0  0
 48 49  1  0  0  0  0
 47 50  2  0  0  0  0
 50 51  1  0  0  0  0
 51 52  2  0  0  0  0
 50 53  1  0  0  0  0
 53 54  1  0  0  0  0
 44 55  1  0  0  0  0
 55 56  2  0  0  0  0
 56 57  1  0  0  0  0
 57 58  2  0  0  0  0
 58 59  1  0  0  0  0
 59 60  2  0  0  0  0
 60 61  1  0  0  0  0
 61 62  2  0  0  0  0
 62 63  1  0  0  0  0
 63 64  1  0  0  0  0
 62 65  1  0  0  0  0
 58 66  1  0  0  0  0
 66 67  2  0  0  0  0
 67 68  1  0  0  0  0
 68 69  1  0  0  0  0
 69 70  2  0  0  0  0
 70 71  1  0  0  0  0
 71 72  2  0  0  0  0
 72 73  1  0  0  0  0
 73 74  1  0  0  0  0
 72 75  1  0  0  0  0
 68 76  2  0  0  0  0
 76 77  1  0  0  0  0
 67 78  1  0  0  0  0
 78 79  2  0  0  0  0
 79 80  1  0  0  0  0
 79 81  1  0  0  0  0
 81 82  2  0  0  0  0
 82 83  1  0  0  0  0
 83 84  2  0  0  0  0
 83 85  1  0  0  0  0
 85 86  2  0  0  0  0
 86 87  1  0  0  0  0
 87 88  2  0  0  0  0
 88 89  1  0  0  0  0
 89 90  2  0  0  0  0
 90 91  1  0  0  0  0
 91 92  2  0  0  0  0
 92 93  1  0  0  0  0
 93 94  3  0  0  0  0
 92 95  1  0  0  0  0
 95 96  3  0  0  0  0
 88 97  1  0  0  0  0
 97 98  1  0  0  0  0
 98 99  1  0  0  0  0
 99100  2  0  0  0  0
100101  1  0  0  0  0
101102  1  0  0  0  0
101103  1  0  0  0  0
 11  2  1  0  0  0  0
 23 17  1  0  0  0  0
 35 24  1  0  0  0  0
 52 39  1  0  0  0  0
 77 55  1  0  0  0  0
 91 82  1  0  0  0  0
103 97  1  0  0  0  0
 10  5  1  0  0  0  0
 22 18  1  0  0  0  0
 38 34  2  0  0  0  0
 52 45  1  0  0  0  0
 76 57  1  0  0  0  0
 90 85  1  0  0  0  0
102 98  1  0  0  0  0
 23  7  1  0  0  0  0
 65 59  1  0  0  0  0
 80 66  1  0  0  0  0
103 87  1  0  0  0  0
 75 69  1  0  0  0  0
  1104  1  0  0  0  0
  6105  1  0  0  0  0
  9106  1  0  0  0  0
 17107  1  0  0  0  0
 18108  1  0  0  0  0
 19109  1  0  0  0  0
 20110  1  0  0  0  0
 21111  1  0  0  0  0
 22112  1  0  0  0  0
 22113  1  0  0  0  0
 23114  1  0  0  0  0
 27115  1  0  0  0  0
 27116  1  0  0  0  0
 28117  1  0  0  0  0
 28118  1  0  0  0  0
 28119  1  0  0  0  0
 31120  1  0  0  0  0
 31121  1  0  0  0  0
 32122  1  0  0  0  0
 32123  1  0  0  0  0
 32124  1  0  0  0  0
 48125  1  0  0  0  0
 48126  1  0  0  0  0
 49127  1  0  0  0  0
 49128  1  0  0  0  0
 49129  1  0  0  0  0
 53130  1  0  0  0  0
 53131  1  0  0  0  0
 54132  1  0  0  0  0
 54133  1  0  0  0  0
 54134  1  0  0  0  0
 56135  1  0  0  0  0
 60136  1  0  0  0  0
 61137  1  0  0  0  0
 63138  1  0  0  0  0
 63139  1  0  0  0  0
 64140  1  0  0  0  0
 64141  1  0  0  0  0
 64142  1  0  0  0  0
 70143  1  0  0  0  0
 71144  1  0  0  0  0
 73145  1  0  0  0  0
 73146  1  0  0  0  0
 74147  1  0  0  0  0
 74148  1  0  0  0  0
 74149  1  0  0  0  0
 78150  1  0  0  0  0
 81151  1  0  0  0  0
 86152  1  0  0  0  0
 89153  1  0  0  0  0
 97154  1  0  0  0  0
 98155  1  0  0  0  0
 99156  1  0  0  0  0
100157  1  0  0  0  0
101158  1  0  0  0  0
102159  1  0  0  0  0
102160  1  0  0  0  0
103161  1  0  0  0  0
M  END
