203

C         -5.06690        3.85980       -0.78970
C         -6.06220        4.12690        0.12340
C         -5.86960        4.15930        1.58010
O         -4.85370        3.90100        2.20040
C         -7.13080        4.69810        2.13530
C         -7.42070        4.94560        3.47290
C         -8.67480        5.46720        3.68880
C         -9.57250        5.73520        2.64870
C         -9.29820        5.49550        1.32160
C         -8.03210        4.95630        1.08380
C         -7.40030        4.55740       -0.17240
C         -8.02220        4.43230       -1.39170
C         -7.40470        3.87570       -2.52900
N         -6.96970        3.39460       -3.47800
C         -9.37090        4.75930       -1.62590
N        -10.46860        5.00720       -1.85680
C        -10.62280        6.27740        3.58610
C        -10.78990        7.81480        3.66950
C         -9.45640        8.41320        3.29620
C         -8.60710        8.15640        4.28200
C         -9.35130        7.37970        5.34000
C        -10.75090        7.99820        5.19520
C         -9.62280        5.97520        4.74680
C         -3.90970        3.11130       -0.56650
C         -3.60580        2.10860        0.37670
N         -4.49310        1.48590        1.21260
C         -4.02660        0.81790        2.35560
C         -3.05120        1.39410        3.16930
C         -2.58310        0.71320        4.27110
C         -3.07790       -0.55140        4.58550
S         -2.41070       -1.34000        6.01200
C         -3.55610       -2.71480        6.32060
C         -4.06060       -1.12030        3.78640
C         -4.53400       -0.43580        2.68470
C         -5.85120        1.38880        0.88000
C         -6.25180        1.14340       -0.43560
C         -7.58780        1.13250       -0.76170
C         -8.55840        1.37070        0.21400
S        -10.23080        1.42960       -0.33240
C        -11.09050        2.25770        1.03450
C         -8.16660        1.54300        1.53520
C         -6.82430        1.54930        1.86370
C         -2.28000        1.65430        0.19840
S         -1.30570        0.47340        0.99020
C         -0.09330        0.55910       -0.29380
C         -0.38910        1.55350       -1.21460
N          0.30850        1.85490       -2.37860
C         -0.51200        2.08290       -3.50500
C         -0.37210        3.20130       -4.32470
C         -1.28930        3.43970       -5.32500
C         -2.37330        2.58520       -5.51860
S         -3.53780        3.02000       -6.76780
C         -5.04480        2.14730       -6.25110
C         -2.49040        1.44560       -4.73290
C         -1.56160        1.19910       -3.74390
C          1.62880        2.29580       -2.35370
C          2.19820        2.81490       -1.19000
C          3.46850        3.35160       -1.21830
C          4.18380        3.39160       -2.40720
S          5.75780        4.20330       -2.41490
C          5.73070        5.01510       -4.04570
C          3.65020        2.81630       -3.55300
C          2.38890        2.26430       -3.52270
C         -1.63390        2.16550       -0.91540
S         -2.59580        3.34190       -1.72750
C          0.94390       -0.41600       -0.21700
C          0.74030       -1.69990        0.28290
N         -0.49730       -2.26880        0.57400
C         -1.54720       -2.17030       -0.34140
C         -1.28960       -2.13340       -1.71160
C         -2.32110       -1.95670       -2.60900
C         -3.62870       -1.79040       -2.15990
S         -4.86790       -1.44080       -3.37380
C         -6.39110       -2.05450       -2.59880
C         -3.89440       -1.85480       -0.79870
C         -2.86580       -2.05480        0.09910
C         -0.64710       -2.90860        1.80990
C          0.00580       -2.40750        2.93270
C         -0.08560       -3.04880        4.15160
C         -0.84890       -4.20090        4.27070
S         -1.03530       -5.11500        5.77200
C         -0.01850       -4.20360        6.96660
C         -1.52280       -4.69480        3.15500
C         -1.41980       -4.06260        1.93640
C          1.95700       -2.38670        0.44380
S          2.36640       -3.91680        1.10720
C          4.08770       -3.60600        0.84740
C          4.30700       -2.32940        0.29220
N          5.52760       -1.72690        0.06720
C          6.58430       -1.89070        0.97360
C          7.91010       -1.92410        0.52830
C          8.93550       -2.17730        1.40900
C          8.67060       -2.40340        2.75990
S         10.05720       -2.77550        3.77770
C          9.31750       -3.18850        5.38430
C          7.36160       -2.32220        3.21590
C          6.33240       -2.06590        2.33160
C          5.69540       -0.88700       -1.04660
C          6.54200        0.21700       -0.97230
C          6.83400        0.95990       -2.09630
C          6.24950        0.63390       -3.31230
S          6.63810        1.45680       -4.82380
C          8.19960        2.30760       -4.45860
C          5.32480       -0.40540       -3.37040
C          5.05830       -1.16870       -2.25510
C          3.07900       -1.67120        0.04810
S          2.63770       -0.11310       -0.58600
C          4.91200       -4.68410        1.21640
C          6.25120       -4.87730        1.02340
C          6.91100       -6.03430        1.48070
C          8.22340       -6.34940        1.24040
C          9.13430       -5.72230        0.37260
C          8.97770       -4.95730       -0.76200
C         10.14350       -4.15640       -1.20830
O         11.27350       -4.20060       -0.77480
C          9.62630       -3.25830       -2.26680
C         10.29060       -2.26970       -2.96140
C          9.56290       -1.59010       -3.92700
F         10.16370       -0.59930       -4.61610
C          8.24150       -1.89000       -4.21330
C          7.58660       -2.88720       -3.50480
C          8.27530       -3.56350       -2.51020
C          7.87310       -4.66430       -1.63110
C          6.67790       -5.34700       -1.73180
C          5.54300       -4.84290       -2.38640
N          4.55730       -4.42880       -2.81050
C          6.46040       -6.62690       -1.19350
N          6.26130       -7.70330       -0.84470
H         -5.15250        4.29020       -1.78050
H         -6.69810        4.73390        4.24590
H         -9.99070        5.72000        0.52650
H        -11.57890        5.75660        3.58750
H        -11.65570        8.20360        3.14010
H         -9.25880        8.89690        2.35760
H         -7.55790        8.38210        4.33100
H         -8.90700        7.37280        6.33200
H        -10.78190        9.04460        5.49450
H        -11.52740        7.44250        5.71930
H         -9.92600        5.25600        5.50580
H         -2.70000        2.38880        2.94540
H         -1.83490        1.15720        4.90930
H         -4.57130       -2.33440        6.37950
H         -3.26340       -3.13650        7.27710
H         -3.45570       -3.46970        5.54630
H         -4.45730       -2.09920        4.00260
H         -5.30050       -0.88180        2.06760
H         -5.50960        0.98070       -1.20300
H         -7.89980        0.96470       -1.78140
H        -11.21000        1.57970        1.87480
H        -10.54230        3.15140        1.32000
H        -12.06360        2.53190        0.63960
H         -8.89610        1.69080        2.31510
H         -6.52130        1.69820        2.88910
H          0.43270        3.90000       -4.15300
H         -1.19600        4.31560       -5.94830
H         -4.93570        1.07710       -6.39950
H         -5.83390        2.52740       -6.89230
H         -5.26800        2.38470       -5.21550
H         -3.30190        0.74930       -4.87080
H         -1.66650        0.32370       -3.12080
H          1.62630        2.83460       -0.27420
H          3.90040        3.77530       -0.32470
H          6.52970        5.74970       -4.03180
H          5.90560        4.29180       -4.83640
H          4.77240        5.50740       -4.17740
H          4.21120        2.79550       -4.47290
H          1.97530        1.82000       -4.41510
H         -0.27770       -2.24770       -2.07060
H         -2.12410       -1.94910       -3.67030
H         -6.72360       -1.37850       -1.81600
H         -6.21620       -3.05280       -2.20930
H         -7.13290       -2.08800       -3.39060
H         -4.90010       -1.73270       -0.42740
H         -3.07560       -2.08270        1.15760
H          0.58750       -1.50120        2.84970
H          0.43270       -2.63100        4.99850
H          1.01990       -4.21320        6.64880
H         -0.12140       -4.73880        7.90550
H         -0.39150       -3.18880        7.07350
H         -2.11350       -5.59310        3.25410
H         -1.92540       -4.46580        1.07210
H          8.12590       -1.77190       -0.51840
H          9.95490       -2.22520        1.05870
H          8.84510       -2.31170        5.81760
H          8.60900       -4.00290        5.26490
H         10.14410       -3.50650        6.01180
H          7.12580       -2.45600        4.25900
H          5.31930       -2.00680        2.69970
H          6.99180        0.48650       -0.02860
H          7.50830        1.79500       -2.00750
H          8.92420        1.59190       -4.08490
H          8.03440        3.11110       -3.74690
H          8.54000        2.71400       -5.40610
H          4.84450       -0.63450       -4.30910
H          4.39290       -2.01520       -2.33200
H          4.36700       -5.50530        1.67010
H          6.84920       -4.12640        0.54100
H          6.34690       -6.69610        2.12540
H          8.64360       -7.15450        1.83030
H         10.18060       -5.84160        0.64580
H         11.32640       -2.04050       -2.76790
H          7.73230       -1.34330       -4.99100
H          6.55960       -3.11510       -3.73580
