197

C          2.65320       -7.16550       -1.99730
C          3.92700       -7.51190       -2.36960
C          4.50630       -8.73000       -1.76550
O          3.90890       -9.63420       -1.21280
C          5.96910       -8.56320       -1.87500
C          6.95530       -9.38660       -1.33780
C          8.23800       -8.94780       -1.56530
C          8.52280       -7.76900       -2.26550
C          7.56010       -6.94980       -2.80780
C          6.25110       -7.38470       -2.59760
C          4.98230       -6.81640       -3.05550
C          4.82550       -5.98520       -4.13870
C          3.58270       -5.82120       -4.78510
N          2.60290       -5.75080       -5.37950
C          5.89300       -5.33600       -4.77650
N          6.74920       -4.76830       -5.29230
C         10.01310       -7.94000       -2.10680
C         10.81470       -8.44200       -3.33270
C          9.85140       -9.24210       -4.17410
C          9.57920      -10.36370       -3.52060
C         10.35340      -10.34230       -2.22590
C         11.61060       -9.58040       -2.67480
C          9.69570       -9.25950       -1.33480
C          2.03280       -5.91810       -1.88210
C          0.80300       -5.66540       -1.23680
N          0.01170       -6.56820       -0.58140
C          0.51080       -7.68980        0.10490
C          1.71650       -7.63250        0.80210
C          2.23260       -8.76540        1.39270
C          1.53940       -9.96840        1.31510
S          2.18550      -11.46670        1.98120
C          3.96640      -11.24910        1.68600
C          0.29200      -10.00520        0.70020
C         -0.21870       -8.87670        0.09580
C         -1.34800       -6.23680       -0.39830
C         -1.89640       -6.21480        0.87940
C         -3.19590       -5.79280        1.07180
C         -3.96290       -5.39500       -0.01530
S         -5.60510       -4.76410        0.15010
C         -5.61570       -4.12080        1.84990
C         -3.43820       -5.48170       -1.30240
C         -2.13860       -5.89650       -1.49450
C          0.47670       -4.29220       -1.30170
S         -0.78810       -3.33340       -0.62640
C         -0.04460       -1.83030       -1.19770
C          1.17050       -2.10450       -1.85100
N          2.08710       -1.24460       -2.42040
C          2.45220       -0.02670       -1.87310
C          2.96520        0.98760       -2.69420
C          3.34220        2.19390       -2.15810
C          3.20310        2.44500       -0.79040
S          3.69940        4.03270       -0.23790
C          3.11370        4.11590        1.47450
C          2.71060        1.43770        0.03390
C          2.35140        0.21790       -0.50070
C          2.70990       -1.68860       -3.61310
C          1.92920       -2.20720       -4.64550
C          2.51900       -2.61630       -5.81770
C          3.90050       -2.51730       -5.98730
S          4.52580       -3.01980       -7.55160
C          6.27880       -2.54940       -7.50400
C          4.68310       -2.02800       -4.94840
C          4.08950       -1.61920       -3.76870
C          1.43330       -3.49500       -1.89690
S          2.80040       -4.41540       -2.41550
C         -0.61340       -0.57830       -0.79540
C         -1.49910       -0.47840        0.30620
S         -2.64360       -1.77090        0.69210
C         -3.53300       -1.82060       -0.91550
C         -4.25690       -0.52660       -1.22510
C         -1.55030        0.68080        1.06780
S         -2.33630        0.67480        2.67400
C         -4.11830        0.84470        2.29840
C         -4.46700        2.16920        1.65540
C         -0.87210        1.82540        0.64490
C         -0.32980        1.85130       -0.64160
C         -0.24380        0.66520       -1.39380
C          0.00210        0.69830       -2.84170
O         -0.10210       -0.28970       -3.55460
C          0.26260        2.02910       -3.39540
C          0.38700        3.19100       -2.58020
C          0.21830        3.13270       -1.13430
O          0.51290        4.05570       -0.39230
C          0.69400        4.30520       -3.30850
S          0.82110        3.96140       -4.98100
C          0.47120        2.30330       -4.71610
C         -0.91160        3.03280        1.48110
C         -0.21550        3.12180        2.66220
F          0.63510        2.14260        3.01670
C         -0.35600        4.22720        3.51470
F          0.32260        4.23240        4.67160
C         -1.21150        5.26920        3.22170
C         -1.86890        5.24640        1.95670
N         -2.56250        6.31830        1.54210
C         -3.16940        6.28510        0.38510
C         -3.86150        7.53310       -0.07820
C         -3.84650        8.64520        0.96200
C         -3.12940        5.10650       -0.41910
N         -2.41230        4.07580       -0.05460
C         -1.74330        4.12120        1.11180
C         -3.88050        4.97260       -1.70930
C         -5.32310        4.52670       -1.45790
C         -1.39380        6.38470        4.11980
C         -2.60090        6.95220        4.33270
C         -3.89970        6.33840        3.93010
O         -4.09890        5.20630        3.54470
C         -4.92410        7.35410        4.22530
C         -6.28370        7.27810        3.92670
C         -7.00110        8.39030        4.29240
C         -6.41370        9.49310        4.92960
C         -5.08060        9.57310        5.24970
C         -4.32680        8.45640        4.87190
C         -2.89620        8.20750        5.00990
C         -1.99760        9.02770        5.63370
C         -2.33210       10.23640        6.28250
N         -2.52950       11.22440        6.83230
C         -0.60880        8.79100        5.73570
N          0.52770        8.68540        5.85600
C         -7.71190       10.25830        4.97550
C         -7.90460       11.39660        3.94250
C         -7.04770       11.04430        2.75190
C         -7.60340       10.00270        2.14740
C         -8.84570        9.63130        2.91900
C         -9.29230       11.02140        3.39860
C         -8.36550        9.03150        4.26460
H          2.09500       -7.99930       -1.58590
H          6.69800      -10.28550       -0.79880
H          7.78920       -6.04050       -3.33860
H         10.52920       -7.14740       -1.56840
H         11.37820       -7.67050       -3.85060
H          9.43450       -8.89410       -5.10090
H          8.88920      -11.14070       -3.79310
H         10.49790      -11.30230       -1.73700
H         12.21110      -10.14200       -3.38880
H         12.23660       -9.25030       -1.84680
H         10.01160       -9.33100       -0.29550
H          2.25980       -6.70030        0.85630
H          3.17470       -8.70720        1.91350
H          4.41420      -10.65220        2.47580
H          4.39580      -12.24590        1.69140
H          4.09510      -10.78460        0.71230
H         -0.25470      -10.93470        0.67250
H         -1.16860       -8.91370       -0.41650
H         -1.29080       -6.50520        1.72480
H         -3.59500       -5.76300        2.07230
H         -5.70160       -4.93530        2.56300
H         -6.49170       -3.48330        1.91850
H         -4.71370       -3.53900        2.01750
H         -4.05360       -5.20460       -2.14430
H         -1.71950       -5.93930       -2.48870
H          3.05400        0.81640       -3.75600
H          3.73650        2.97280       -2.79290
H          3.36610        5.11270        1.82240
H          2.03690        3.98580        1.47470
H          3.61570        3.37260        2.08640
H          2.60490        1.58870        1.09580
H          1.99740       -0.56070        0.15860
H          0.85860       -2.24990       -4.52470
H          1.92000       -3.01160       -6.62260
H          6.36820       -1.48860       -7.28920
H          6.79780       -3.15770       -6.76880
H          6.66220       -2.76090       -8.49720
H          5.75550       -1.97280       -5.04000
H          4.70160       -1.24150       -2.96230
H         -4.23420       -2.64610       -0.80670
H         -2.81320       -2.06450       -1.69440
H         -5.02060       -0.31750       -0.47980
H         -3.56250        0.31160       -1.26180
H         -4.74000       -0.61370       -2.19620
H         -4.40430       -0.00410        1.68020
H         -4.58470        0.74740        3.27830
H         -4.21320        2.99860        2.31250
H         -5.53710        2.20410        1.45480
H         -3.93100        2.29350        0.71560
H          0.84480        5.30030       -2.93980
H          0.44620        1.61190       -5.53490
H         -4.89280        7.29170       -0.34660
H         -3.36170        7.87700       -0.98950
H         -2.82620        8.86520        1.26310
H         -4.40520        8.34660        1.84490
H         -4.29760        9.54630        0.55320
H         -3.37570        4.21870       -2.31560
H         -3.87460        5.92030       -2.24930
H         -5.84490        5.23210       -0.81550
H         -5.33400        3.55380       -0.97430
H         -5.85960        4.45330       -2.40060
H         -0.50290        6.76910        4.59840
H         -6.69360        6.40820        3.43720
H         -4.64730       10.42690        5.74280
H         -8.07420       10.52890        5.96480
H         -7.77780       12.39750        4.34570
H         -6.12320       11.53650        2.51300
H         -7.23580        9.45110        1.30190
H         -9.57690        9.02550        2.39010
H        -10.06460       10.98850        4.16570
H         -9.61270       11.66590        2.58150
H         -9.15690        8.49930        4.78840
