
  xtb     02052212403D
 energy: -289.907844364209 gnorm: 0.001283884309 xtb: 6.4.1 (unknown)
166187  0     0  0            999 V2000
    2.0981    3.9106    5.8343 C   0  0  0  0  0  0  0  0  0  0  0  0
    1.1299    3.3669    6.6479 C   0  0  0  0  0  0  0  0  0  0  0  0
    0.0211    2.4952    6.2026 C   0  0  0  0  0  0  0  0  0  0  0  0
   -0.3190    2.2242    5.0671 O   0  0  0  0  0  0  0  0  0  0  0  0
   -0.5231    1.8761    7.4242 C   0  0  0  0  0  0  0  0  0  0  0  0
   -1.5699    0.9612    7.4927 C   0  0  0  0  0  0  0  0  0  0  0  0
   -1.8257    0.5051    8.7635 C   0  0  0  0  0  0  0  0  0  0  0  0
   -1.0904    0.9210    9.8810 C   0  0  0  0  0  0  0  0  0  0  0  0
   -0.0633    1.8349    9.8263 C   0  0  0  0  0  0  0  0  0  0  0  0
    0.2100    2.3158    8.5436 C   0  0  0  0  0  0  0  0  0  0  0  0
    1.1979    3.2907    8.0866 C   0  0  0  0  0  0  0  0  0  0  0  0
    1.9772    4.0823    8.8960 C   0  0  0  0  0  0  0  0  0  0  0  0
    2.7416    5.1711    8.4433 C   0  0  0  0  0  0  0  0  0  0  0  0
    3.3313    6.1204    8.1712 N   0  0  0  0  0  0  0  0  0  0  0  0
    2.0445    3.9689   10.2982 C   0  0  0  0  0  0  0  0  0  0  0  0
    2.1573    3.9230   11.4405 N   0  0  0  0  0  0  0  0  0  0  0  0
   -1.8653    0.0303   10.8205 C   0  0  0  0  0  0  0  0  0  0  0  0
   -1.1942   -1.2862   11.2859 C   0  0  0  0  0  0  0  0  0  0  0  0
   -0.2196   -1.6795   10.2036 C   0  0  0  0  0  0  0  0  0  0  0  0
   -0.9219   -2.0665    9.1469 C   0  0  0  0  0  0  0  0  0  0  0  0
   -2.3845   -1.9417    9.4958 C   0  0  0  0  0  0  0  0  0  0  0  0
   -2.3341   -2.2760   10.9953 C   0  0  0  0  0  0  0  0  0  0  0  0
   -2.6901   -0.4256    9.5756 C   0  0  0  0  0  0  0  0  0  0  0  0
    1.9997    4.0844    4.4432 C   0  0  0  0  0  0  0  0  0  0  0  0
    3.0315    3.9837    3.4837 C   0  0  0  0  0  0  0  0  0  0  0  0
    4.3640    3.8055    3.7467 N   0  0  0  0  0  0  0  0  0  0  0  0
    5.1383    3.0289    2.8644 C   0  0  0  0  0  0  0  0  0  0  0  0
    4.6561    1.8062    2.3963 C   0  0  0  0  0  0  0  0  0  0  0  0
    5.4038    1.0609    1.5138 C   0  0  0  0  0  0  0  0  0  0  0  0
    6.6513    1.5136    1.0853 C   0  0  0  0  0  0  0  0  0  0  0  0
    7.5061    0.4787   -0.0552 S   0  0  0  0  0  0  0  0  0  0  0  0
    9.0515    1.3709   -0.3891 C   0  0  0  0  0  0  0  0  0  0  0  0
    7.1426    2.7201    1.5678 C   0  0  0  0  0  0  0  0  0  0  0  0
    6.3894    3.4710    2.4486 C   0  0  0  0  0  0  0  0  0  0  0  0
    5.0013    4.4565    4.8136 C   0  0  0  0  0  0  0  0  0  0  0  0
    6.0050    3.8024    5.5288 C   0  0  0  0  0  0  0  0  0  0  0  0
    6.6326    4.4389    6.5754 C   0  0  0  0  0  0  0  0  0  0  0  0
    6.2756    5.7396    6.9304 C   0  0  0  0  0  0  0  0  0  0  0  0
    7.1288    6.4569    8.2908 S   0  0  0  0  0  0  0  0  0  0  0  0
    6.0594    7.8452    8.7637 C   0  0  0  0  0  0  0  0  0  0  0  0
    5.2957    6.4034    6.2003 C   0  0  0  0  0  0  0  0  0  0  0  0
    4.6636    5.7645    5.1537 C   0  0  0  0  0  0  0  0  0  0  0  0
    2.4916    3.9738    2.1801 C   0  0  0  0  0  0  0  0  0  0  0  0
    3.1478    3.7339    0.5925 S   0  0  0  0  0  0  0  0  0  0  0  0
    1.5376    3.7944   -0.1111 C   0  0  0  0  0  0  0  0  0  0  0  0
    0.5634    4.1220    0.8301 C   0  0  0  0  0  0  0  0  0  0  0  0
   -0.7832    4.3287    0.5894 N   0  0  0  0  0  0  0  0  0  0  0  0
   -1.2374    5.1533   -0.4377 C   0  0  0  0  0  0  0  0  0  0  0  0
   -2.5518    5.0384   -0.8992 C   0  0  0  0  0  0  0  0  0  0  0  0
   -3.0054    5.8451   -1.9173 C   0  0  0  0  0  0  0  0  0  0  0  0
   -2.1616    6.7821   -2.5117 C   0  0  0  0  0  0  0  0  0  0  0  0
   -2.8550    7.7534   -3.8122 S   0  0  0  0  0  0  0  0  0  0  0  0
   -1.4938    8.8408   -4.3214 C   0  0  0  0  0  0  0  0  0  0  0  0
   -0.8548    6.8986   -2.0594 C   0  0  0  0  0  0  0  0  0  0  0  0
   -0.4009    6.0948   -1.0329 C   0  0  0  0  0  0  0  0  0  0  0  0
   -1.6645    3.8197    1.5692 C   0  0  0  0  0  0  0  0  0  0  0  0
   -2.5930    4.6339    2.2069 C   0  0  0  0  0  0  0  0  0  0  0  0
   -3.3712    4.1299    3.2310 C   0  0  0  0  0  0  0  0  0  0  0  0
   -3.2264    2.8073    3.6291 C   0  0  0  0  0  0  0  0  0  0  0  0
   -4.1384    2.0891    4.9579 S   0  0  0  0  0  0  0  0  0  0  0  0
   -4.6562    3.5316    5.9322 C   0  0  0  0  0  0  0  0  0  0  0  0
   -2.3300    1.9784    2.9606 C   0  0  0  0  0  0  0  0  0  0  0  0
   -1.5538    2.4809    1.9420 C   0  0  0  0  0  0  0  0  0  0  0  0
    1.1185    4.1786    2.1297 C   0  0  0  0  0  0  0  0  0  0  0  0
    0.4361    4.3653    3.6934 S   0  0  0  0  0  0  0  0  0  0  0  0
    1.3517    3.2877   -1.4248 C   0  0  0  0  0  0  0  0  0  0  0  0
    2.7580    2.8803   -2.3988 S   0  0  0  0  0  0  0  0  0  0  0  0
    1.7620    2.0088   -3.5376 C   0  0  0  0  0  0  0  0  0  0  0  0
    2.2013    1.2373   -4.5848 C   0  0  0  0  0  0  0  0  0  0  0  0
    1.2479    0.4955   -5.2950 C   0  0  0  0  0  0  0  0  0  0  0  0
    1.4593   -0.4674   -6.2992 C   0  0  0  0  0  0  0  0  0  0  0  0
    0.3054   -1.1032   -6.7011 C   0  0  0  0  0  0  0  0  0  0  0  0
   -1.1167   -0.4725   -5.8960 S   0  0  0  0  0  0  0  0  0  0  0  0
   -0.1302    0.6088   -4.9520 C   0  0  0  0  0  0  0  0  0  0  0  0
   -0.5699    1.4207   -3.9336 C   0  0  0  0  0  0  0  0  0  0  0  0
    0.3862    2.1130   -3.1880 C   0  0  0  0  0  0  0  0  0  0  0  0
    0.1866    2.8538   -2.0044 C   0  0  0  0  0  0  0  0  0  0  0  0
    0.1891   -2.2217   -7.5673 C   0  0  0  0  0  0  0  0  0  0  0  0
    1.2749   -2.8310   -8.2340 C   0  0  0  0  0  0  0  0  0  0  0  0
    1.1322   -4.0808   -8.9565 C   0  0  0  0  0  0  0  0  0  0  0  0
    2.2890   -4.4760   -9.4898 N   0  0  0  0  0  0  0  0  0  0  0  0
    3.4254   -3.4045   -9.1334 S   0  0  0  0  0  4  0  0  0  0  0  0
    2.5312   -2.3812   -8.2817 N   0  0  0  0  0  0  0  0  0  0  0  0
   -0.0720   -4.8159   -8.9989 C   0  0  0  0  0  0  0  0  0  0  0  0
   -1.1741   -4.1568   -8.4162 C   0  0  0  0  0  0  0  0  0  0  0  0
   -2.4405   -4.5820   -8.4133 N   0  0  0  0  0  0  0  0  0  0  0  0
   -3.3585   -3.5100   -7.6461 S   0  0  0  0  0  0  0  0  0  0  0  0
   -2.2154   -2.4505   -7.2767 N   0  0  0  0  0  0  0  0  0  0  0  0
   -1.0442   -2.8837   -7.7432 C   0  0  0  0  0  0  0  0  0  0  0  0
   -0.1263   -6.0969   -9.6104 C   0  0  0  0  0  0  0  0  0  0  0  0
   -0.9990   -7.1129   -9.3660 C   0  0  0  0  0  0  0  0  0  0  0  0
   -1.1882   -8.1938  -10.3704 C   0  0  0  0  0  0  0  0  0  0  0  0
   -0.4912   -8.4222  -11.3328 O   0  0  0  0  0  0  0  0  0  0  0  0
   -2.4319   -8.8840   -9.9708 C   0  0  0  0  0  0  0  0  0  0  0  0
   -3.0964   -9.8950  -10.6613 C   0  0  0  0  0  0  0  0  0  0  0  0
   -4.2461  -10.3321  -10.0476 C   0  0  0  0  0  0  0  0  0  0  0  0
   -4.7068   -9.8029   -8.8347 C   0  0  0  0  0  0  0  0  0  0  0  0
   -4.0600   -8.8094   -8.1394 C   0  0  0  0  0  0  0  0  0  0  0  0
   -2.8872   -8.3534   -8.7457 C   0  0  0  0  0  0  0  0  0  0  0  0
   -1.9302   -7.3503   -8.2882 C   0  0  0  0  0  0  0  0  0  0  0  0
   -1.8105   -6.9010   -6.9977 C   0  0  0  0  0  0  0  0  0  0  0  0
   -2.7253   -7.1837   -5.9650 C   0  0  0  0  0  0  0  0  0  0  0  0
   -3.4464   -7.3489   -5.0861 N   0  0  0  0  0  0  0  0  0  0  0  0
   -0.7221   -6.1424   -6.5249 C   0  0  0  0  0  0  0  0  0  0  0  0
    0.1502   -5.5492   -6.0695 N   0  0  0  0  0  0  0  0  0  0  0  0
   -5.9188  -10.7000   -8.8105 C   0  0  0  0  0  0  0  0  0  0  0  0
   -7.2843  -10.0813   -9.1987 C   0  0  0  0  0  0  0  0  0  0  0  0
   -6.9837   -8.9238  -10.1181 C   0  0  0  0  0  0  0  0  0  0  0  0
   -6.5485   -9.4222  -11.2677 C   0  0  0  0  0  0  0  0  0  0  0  0
   -6.5472  -10.9260  -11.1467 C   0  0  0  0  0  0  0  0  0  0  0  0
   -7.7597  -11.1242  -10.2229 C   0  0  0  0  0  0  0  0  0  0  0  0
   -5.4071  -11.2889  -10.1628 C   0  0  0  0  0  0  0  0  0  0  0  0
    3.0515    4.1580    6.2896 H   0  0  0  0  0  0  0  0  0  0  0  0
   -2.1117    0.6681    6.6071 H   0  0  0  0  0  0  0  0  0  0  0  0
    0.4944    2.1462   10.6940 H   0  0  0  0  0  0  0  0  0  0  0  0
   -2.3942    0.5324   11.6284 H   0  0  0  0  0  0  0  0  0  0  0  0
   -0.8008   -1.2585   12.2987 H   0  0  0  0  0  0  0  0  0  0  0  0
    0.8468   -1.5843   10.2947 H   0  0  0  0  0  0  0  0  0  0  0  0
   -0.5599   -2.3588    8.1785 H   0  0  0  0  0  0  0  0  0  0  0  0
   -3.0754   -2.5097    8.8782 H   0  0  0  0  0  0  0  0  0  0  0  0
   -3.2576   -2.0420   11.5230 H   0  0  0  0  0  0  0  0  0  0  0  0
   -2.0528   -3.3104   11.1871 H   0  0  0  0  0  0  0  0  0  0  0  0
   -3.7582   -0.2169    9.5671 H   0  0  0  0  0  0  0  0  0  0  0  0
    3.6945    1.4470    2.7321 H   0  0  0  0  0  0  0  0  0  0  0  0
    5.0332    0.1171    1.1453 H   0  0  0  0  0  0  0  0  0  0  0  0
    9.5956    0.7543   -1.0978 H   0  0  0  0  0  0  0  0  0  0  0  0
    8.8337    2.3376   -0.8335 H   0  0  0  0  0  0  0  0  0  0  0  0
    9.6275    1.4746    0.5258 H   0  0  0  0  0  0  0  0  0  0  0  0
    8.1051    3.0942    1.2597 H   0  0  0  0  0  0  0  0  0  0  0  0
    6.7699    4.4138    2.8128 H   0  0  0  0  0  0  0  0  0  0  0  0
    6.2741    2.7903    5.2647 H   0  0  0  0  0  0  0  0  0  0  0  0
    7.3995    3.9324    7.1409 H   0  0  0  0  0  0  0  0  0  0  0  0
    6.3901    8.1505    9.7515 H   0  0  0  0  0  0  0  0  0  0  0  0
    6.1799    8.6679    8.0647 H   0  0  0  0  0  0  0  0  0  0  0  0
    5.0316    7.4968    8.7998 H   0  0  0  0  0  0  0  0  0  0  0  0
    5.0205    7.4172    6.4357 H   0  0  0  0  0  0  0  0  0  0  0  0
    3.9000    6.2813    4.5913 H   0  0  0  0  0  0  0  0  0  0  0  0
   -3.2122    4.3089   -0.4544 H   0  0  0  0  0  0  0  0  0  0  0  0
   -4.0205    5.7545   -2.2719 H   0  0  0  0  0  0  0  0  0  0  0  0
   -1.8906    9.4445   -5.1320 H   0  0  0  0  0  0  0  0  0  0  0  0
   -1.2003    9.4818   -3.4949 H   0  0  0  0  0  0  0  0  0  0  0  0
   -0.6576    8.2475   -4.6799 H   0  0  0  0  0  0  0  0  0  0  0  0
   -0.1763    7.6167   -2.4904 H   0  0  0  0  0  0  0  0  0  0  0  0
    0.6138    6.2099   -0.6837 H   0  0  0  0  0  0  0  0  0  0  0  0
   -2.6899    5.6685    1.9125 H   0  0  0  0  0  0  0  0  0  0  0  0
   -4.0761    4.7835    3.7198 H   0  0  0  0  0  0  0  0  0  0  0  0
   -5.4570    4.0652    5.4277 H   0  0  0  0  0  0  0  0  0  0  0  0
   -3.7985    4.1752    6.1020 H   0  0  0  0  0  0  0  0  0  0  0  0
   -5.0187    3.1382    6.8769 H   0  0  0  0  0  0  0  0  0  0  0  0
   -2.2345    0.9484    3.2633 H   0  0  0  0  0  0  0  0  0  0  0  0
   -0.8381    1.8472    1.4391 H   0  0  0  0  0  0  0  0  0  0  0  0
    3.2488    1.1578   -4.8279 H   0  0  0  0  0  0  0  0  0  0  0  0
    2.4233   -0.7297   -6.6955 H   0  0  0  0  0  0  0  0  0  0  0  0
   -1.6153    1.4863   -3.6785 H   0  0  0  0  0  0  0  0  0  0  0  0
   -0.7849    2.9834   -1.5674 H   0  0  0  0  0  0  0  0  0  0  0  0
    0.5987   -6.2702  -10.3991 H   0  0  0  0  0  0  0  0  0  0  0  0
   -2.7088  -10.2778  -11.5923 H   0  0  0  0  0  0  0  0  0  0  0  0
   -4.4258   -8.4046   -7.2100 H   0  0  0  0  0  0  0  0  0  0  0  0
   -5.9955  -11.3723   -7.9583 H   0  0  0  0  0  0  0  0  0  0  0  0
   -7.9394   -9.8697   -8.3578 H   0  0  0  0  0  0  0  0  0  0  0  0
   -7.0594   -7.8923   -9.8269 H   0  0  0  0  0  0  0  0  0  0  0  0
   -6.1882   -8.8900  -12.1286 H   0  0  0  0  0  0  0  0  0  0  0  0
   -6.5328  -11.4828  -12.0801 H   0  0  0  0  0  0  0  0  0  0  0  0
   -8.7006  -10.8498  -10.6978 H   0  0  0  0  0  0  0  0  0  0  0  0
   -7.8339  -12.1311   -9.8141 H   0  0  0  0  0  0  0  0  0  0  0  0
   -5.1538  -12.3468  -10.1939 H   0  0  0  0  0  0  0  0  0  0  0  0
  1  2  2  0  0  0  0
  2  3  1  0  0  0  0
  3  4  2  0  0  0  0
  3  5  1  0  0  0  0
  5  6  2  0  0  0  0
  6  7  1  0  0  0  0
  7  8  2  0  0  0  0
  8  9  1  0  0  0  0
  9 10  2  0  0  0  0
 10 11  1  0  0  0  0
 11 12  2  0  0  0  0
 12 13  1  0  0  0  0
 13 14  3  0  0  0  0
 12 15  1  0  0  0  0
 15 16  3  0  0  0  0
  8 17  1  0  0  0  0
 17 18  1  0  0  0  0
 18 19  1  0  0  0  0
 19 20  2  0  0  0  0
 20 21  1  0  0  0  0
 21 22  1  0  0  0  0
 21 23  1  0  0  0  0
  1 24  1  0  0  0  0
 24 25  2  0  0  0  0
 25 26  1  0  0  0  0
 26 27  1  0  0  0  0
 27 28  2  0  0  0  0
 28 29  1  0  0  0  0
 29 30  2  0  0  0  0
 30 31  1  0  0  0  0
 31 32  1  0  0  0  0
 30 33  1  0  0  0  0
 33 34  2  0  0  0  0
 26 35  1  0  0  0  0
 35 36  2  0  0  0  0
 36 37  1  0  0  0  0
 37 38  2  0  0  0  0
 38 39  1  0  0  0  0
 39 40  1  0  0  0  0
 38 41  1  0  0  0  0
 41 42  2  0  0  0  0
 25 43  1  0  0  0  0
 43 44  1  0  0  0  0
 44 45  1  0  0  0  0
 45 46  2  0  0  0  0
 46 47  1  0  0  0  0
 47 48  1  0  0  0  0
 48 49  2  0  0  0  0
 49 50  1  0  0  0  0
 50 51  2  0  0  0  0
 51 52  1  0  0  0  0
 52 53  1  0  0  0  0
 51 54  1  0  0  0  0
 54 55  2  0  0  0  0
 47 56  1  0  0  0  0
 56 57  2  0  0  0  0
 57 58  1  0  0  0  0
 58 59  2  0  0  0  0
 59 60  1  0  0  0  0
 60 61  1  0  0  0  0
 59 62  1  0  0  0  0
 62 63  2  0  0  0  0
 46 64  1  0  0  0  0
 64 65  1  0  0  0  0
 45 66  1  0  0  0  0
 66 67  1  0  0  0  0
 67 68  1  0  0  0  0
 68 69  2  0  0  0  0
 69 70  1  0  0  0  0
 70 71  1  0  0  0  0
 71 72  2  0  0  0  0
 72 73  1  0  0  0  0
 73 74  1  0  0  0  0
 74 75  1  0  0  0  0
 75 76  2  0  0  0  0
 76 77  1  0  0  0  0
 72 78  1  0  0  0  0
 78 79  2  0  0  0  0
 79 80  1  0  0  0  0
 80 81  1  0  0  0  0
 81 82  2  0  0  0  0
 82 83  2  0  0  0  0
 80 84  2  0  0  0  0
 84 85  1  0  0  0  0
 85 86  2  0  0  0  0
 86 87  1  0  0  0  0
 87 88  1  0  0  0  0
 88 89  2  0  0  0  0
 84 90  1  0  0  0  0
 90 91  2  0  0  0  0
 91 92  1  0  0  0  0
 92 93  2  0  0  0  0
 92 94  1  0  0  0  0
 94 95  2  0  0  0  0
 95 96  1  0  0  0  0
 96 97  2  0  0  0  0
 97 98  1  0  0  0  0
 98 99  2  0  0  0  0
 99100  1  0  0  0  0
100101  2  0  0  0  0
101102  1  0  0  0  0
102103  3  0  0  0  0
101104  1  0  0  0  0
104105  3  0  0  0  0
 97106  1  0  0  0  0
106107  1  0  0  0  0
107108  1  0  0  0  0
108109  2  0  0  0  0
109110  1  0  0  0  0
110111  1  0  0  0  0
110112  1  0  0  0  0
 11  2  1  0  0  0  0
 23 17  1  0  0  0  0
 65 24  1  0  0  0  0
 77 66  2  0  0  0  0
 89 78  1  0  0  0  0
100 91  1  0  0  0  0
112106  1  0  0  0  0
 10  5  1  0  0  0  0
 22 18  1  0  0  0  0
 34 27  1  0  0  0  0
 42 35  1  0  0  0  0
 64 43  2  0  0  0  0
 76 68  1  0  0  0  0
 83 79  1  0  0  0  0
 89 85  1  0  0  0  0
 99 94  1  0  0  0  0
111107  1  0  0  0  0
 23  7  1  0  0  0  0
 55 48  1  0  0  0  0
 63 56  1  0  0  0  0
 74 70  2  0  0  0  0
112 96  1  0  0  0  0
  1113  1  0  0  0  0
  6114  1  0  0  0  0
  9115  1  0  0  0  0
 17116  1  0  0  0  0
 18117  1  0  0  0  0
 19118  1  0  0  0  0
 20119  1  0  0  0  0
 21120  1  0  0  0  0
 22121  1  0  0  0  0
 22122  1  0  0  0  0
 23123  1  0  0  0  0
 28124  1  0  0  0  0
 29125  1  0  0  0  0
 32126  1  0  0  0  0
 32127  1  0  0  0  0
 32128  1  0  0  0  0
 33129  1  0  0  0  0
 34130  1  0  0  0  0
 36131  1  0  0  0  0
 37132  1  0  0  0  0
 40133  1  0  0  0  0
 40134  1  0  0  0  0
 40135  1  0  0  0  0
 41136  1  0  0  0  0
 42137  1  0  0  0  0
 49138  1  0  0  0  0
 50139  1  0  0  0  0
 53140  1  0  0  0  0
 53141  1  0  0  0  0
 53142  1  0  0  0  0
 54143  1  0  0  0  0
 55144  1  0  0  0  0
 57145  1  0  0  0  0
 58146  1  0  0  0  0
 61147  1  0  0  0  0
 61148  1  0  0  0  0
 61149  1  0  0  0  0
 62150  1  0  0  0  0
 63151  1  0  0  0  0
 69152  1  0  0  0  0
 71153  1  0  0  0  0
 75154  1  0  0  0  0
 77155  1  0  0  0  0
 90156  1  0  0  0  0
 95157  1  0  0  0  0
 98158  1  0  0  0  0
106159  1  0  0  0  0
107160  1  0  0  0  0
108161  1  0  0  0  0
109162  1  0  0  0  0
110163  1  0  0  0  0
111164  1  0  0  0  0
111165  1  0  0  0  0
112166  1  0  0  0  0
M  END
