
  xtb     02062206563D
 energy: -298.151882506315 gnorm: 0.000239592283 xtb: 6.4.1 (unknown)
182202  0     0  0            999 V2000
    1.0072   -2.6421    7.2967 C   0  0  0  0  0  0  0  0  0  0  0  0
    1.2569   -1.3095    7.2912 C   0  0  0  0  0  0  0  0  0  0  0  0
    0.9072   -0.4112    6.1507 C   0  0  0  0  0  0  0  0  0  0  0  0
    0.4311   -0.7165    5.0784 O   0  0  0  0  0  0  0  0  0  0  0  0
    1.1603    0.9551    6.6295 C   0  0  0  0  0  0  0  0  0  0  0  0
    0.9612    2.1293    5.9061 C   0  0  0  0  0  0  0  0  0  0  0  0
    1.2861    3.2707    6.5961 C   0  0  0  0  0  0  0  0  0  0  0  0
    1.7592    3.2473    7.9163 C   0  0  0  0  0  0  0  0  0  0  0  0
    1.9516    2.0966    8.6433 C   0  0  0  0  0  0  0  0  0  0  0  0
    1.6364    0.9187    7.9556 C   0  0  0  0  0  0  0  0  0  0  0  0
    1.7100   -0.4725    8.3897 C   0  0  0  0  0  0  0  0  0  0  0  0
    2.1755   -0.9151    9.5993 C   0  0  0  0  0  0  0  0  0  0  0  0
    2.6376   -0.0769   10.6353 C   0  0  0  0  0  0  0  0  0  0  0  0
    3.0228    0.5445   11.5207 N   0  0  0  0  0  0  0  0  0  0  0  0
    2.2627   -2.2708    9.9795 C   0  0  0  0  0  0  0  0  0  0  0  0
    2.3616   -3.3502   10.3591 N   0  0  0  0  0  0  0  0  0  0  0  0
    1.8629    4.7510    7.9883 C   0  0  0  0  0  0  0  0  0  0  0  0
    0.7427    5.4851    8.7554 C   0  0  0  0  0  0  0  0  0  0  0  0
    0.8365    6.9094    8.2567 C   0  0  0  0  0  0  0  0  0  0  0  0
    0.3951    6.9290    7.0054 C   0  0  0  0  0  0  0  0  0  0  0  0
   -0.0045    5.5191    6.6362 C   0  0  0  0  0  0  0  0  0  0  0  0
   -0.5089    5.0235    7.9976 C   0  0  0  0  0  0  0  0  0  0  0  0
    1.3421    4.7747    6.5153 C   0  0  0  0  0  0  0  0  0  0  0  0
    0.6710   -3.3514    6.0847 C   0  0  0  0  0  0  0  0  0  0  0  0
   -0.4976   -4.1222    5.9734 C   0  0  0  0  0  0  0  0  0  0  0  0
   -1.4160   -4.4690    7.0057 C   0  0  0  0  0  0  0  0  0  0  0  0
   -2.5231   -5.1039    6.5620 C   0  0  0  0  0  0  0  0  0  0  0  0
   -3.6564   -5.6617    7.3497 C   0  0  0  0  0  0  0  0  0  0  0  0
   -3.7243   -7.1841    7.2200 C   0  0  0  0  0  0  0  0  0  0  0  0
   -2.5196   -5.2720    4.8206 S   0  0  0  0  0  0  0  0  0  0  0  0
   -0.9604   -4.5171    4.6971 C   0  0  0  0  0  0  0  0  0  0  0  0
   -0.2807   -4.2252    3.5169 C   0  0  0  0  0  0  0  0  0  0  0  0
    1.0153   -3.6839    3.6694 C   0  0  0  0  0  0  0  0  0  0  0  0
    1.4434   -3.2316    4.9293 C   0  0  0  0  0  0  0  0  0  0  0  0
    3.0372   -2.5475    4.8499 S   0  0  0  0  0  0  0  0  0  0  0  0
    3.1465   -2.9092    3.1456 C   0  0  0  0  0  0  0  0  0  0  0  0
    4.4000   -2.6001    2.4035 C   0  0  0  0  0  0  0  0  0  0  0  0
    5.5474   -3.5103    2.8447 C   0  0  0  0  0  0  0  0  0  0  0  0
    2.0192   -3.4897    2.6768 C   0  0  0  0  0  0  0  0  0  0  0  0
   -0.8852   -4.2582    2.2053 C   0  0  0  0  0  0  0  0  0  0  0  0
   -0.5535   -2.8609    1.2105 S   0  0  0  0  0  0  0  0  0  0  0  0
   -1.6177   -3.4012   -0.0582 C   0  0  0  0  0  0  0  0  0  0  0  0
   -2.1751   -4.6143    0.2611 C   0  0  0  0  0  0  0  0  0  0  0  0
   -3.0972   -5.4666   -0.4166 C   0  0  0  0  0  0  0  0  0  0  0  0
   -3.4469   -6.5831    0.2536 C   0  0  0  0  0  0  0  0  0  0  0  0
   -4.3537   -7.6689   -0.2195 C   0  0  0  0  0  0  0  0  0  0  0  0
   -5.2457   -8.2028    0.8955 C   0  0  0  0  0  0  0  0  0  0  0  0
   -2.6125   -6.7028    1.9689 Se  0  0  0  0  0  2  0  0  0  0  0  0
   -1.7813   -5.0732    1.5615 C   0  0  0  0  0  0  0  0  0  0  0  0
   -1.8019   -2.4646   -1.1357 C   0  0  0  0  0  0  0  0  0  0  0  0
   -2.2225   -1.1670   -0.9057 C   0  0  0  0  0  0  0  0  0  0  0  0
   -2.8112   -0.7837    0.2950 N   0  0  0  0  0  0  0  0  0  0  0  0
   -3.7088   -1.7051    0.8667 C   0  0  0  0  0  0  0  0  0  0  0  0
   -3.6507   -2.0598    2.2106 C   0  0  0  0  0  0  0  0  0  0  0  0
   -4.4918   -3.0336    2.7175 C   0  0  0  0  0  0  0  0  0  0  0  0
   -5.4031   -3.6687    1.8863 C   0  0  0  0  0  0  0  0  0  0  0  0
   -6.5188   -4.9365    2.3977 S   0  0  0  0  0  0  0  0  0  0  0  0
   -6.0714   -5.2653    4.1232 C   0  0  0  0  0  0  0  0  0  0  0  0
   -5.4826   -3.2970    0.5459 C   0  0  0  0  0  0  0  0  0  0  0  0
   -4.6507   -2.3245    0.0440 C   0  0  0  0  0  0  0  0  0  0  0  0
   -2.3610    0.3405    0.9856 C   0  0  0  0  0  0  0  0  0  0  0  0
   -3.2017    0.9982    1.8852 C   0  0  0  0  0  0  0  0  0  0  0  0
   -2.7535    2.1019    2.5739 C   0  0  0  0  0  0  0  0  0  0  0  0
   -1.4618    2.5835    2.3749 C   0  0  0  0  0  0  0  0  0  0  0  0
   -0.9923    3.9968    3.3311 S   0  0  0  0  0  0  0  0  0  0  0  0
    0.5846    4.5184    2.5959 C   0  0  0  0  0  0  0  0  0  0  0  0
   -0.6246    1.9409    1.4763 C   0  0  0  0  0  0  0  0  0  0  0  0
   -1.0720    0.8286    0.7898 C   0  0  0  0  0  0  0  0  0  0  0  0
   -2.0360   -0.3587   -2.0471 C   0  0  0  0  0  0  0  0  0  0  0  0
   -2.3258    1.3013   -2.3937 S   0  0  0  0  0  0  0  0  0  0  0  0
   -1.5935    1.1124   -3.9955 C   0  0  0  0  0  0  0  0  0  0  0  0
   -1.2684   -0.2317   -4.2732 C   0  0  0  0  0  0  0  0  0  0  0  0
   -0.8869   -0.7364   -5.4823 N   0  0  0  0  0  0  0  0  0  0  0  0
   -1.1471   -0.0736   -6.6901 C   0  0  0  0  0  0  0  0  0  0  0  0
   -0.1537    0.0045   -7.6633 C   0  0  0  0  0  0  0  0  0  0  0  0
   -0.3596    0.7246   -8.8248 C   0  0  0  0  0  0  0  0  0  0  0  0
   -1.5693    1.3727   -9.0347 C   0  0  0  0  0  0  0  0  0  0  0  0
   -1.9120    2.3887  -10.4308 S   0  0  0  0  0  0  0  0  0  0  0  0
   -0.2680    2.7179  -11.1271 C   0  0  0  0  0  0  0  0  0  0  0  0
   -2.5947    1.2288   -8.0969 C   0  0  0  0  0  0  0  0  0  0  0  0
   -2.3866    0.5192   -6.9379 C   0  0  0  0  0  0  0  0  0  0  0  0
   -0.1809   -1.9556   -5.5464 C   0  0  0  0  0  0  0  0  0  0  0  0
    0.9063   -2.1929   -4.7129 C   0  0  0  0  0  0  0  0  0  0  0  0
    1.5792   -3.3978   -4.7685 C   0  0  0  0  0  0  0  0  0  0  0  0
    1.1709   -4.3808   -5.6605 C   0  0  0  0  0  0  0  0  0  0  0  0
    1.9399   -5.9617   -5.8031 S   0  0  0  0  0  0  0  0  0  0  0  0
    3.0031   -6.0550   -4.3338 C   0  0  0  0  0  0  0  0  0  0  0  0
    0.1037   -4.1287   -6.5216 C   0  0  0  0  0  0  0  0  0  0  0  0
   -0.5668   -2.9272   -6.4678 C   0  0  0  0  0  0  0  0  0  0  0  0
   -1.4944   -1.0382   -3.1320 C   0  0  0  0  0  0  0  0  0  0  0  0
   -1.2624   -2.7235   -2.7764 S   0  0  0  0  0  0  0  0  0  0  0  0
   -1.4213    2.2790   -4.7494 C   0  0  0  0  0  0  0  0  0  0  0  0
   -0.4428    2.4810   -5.6970 C   0  0  0  0  0  0  0  0  0  0  0  0
    0.8364    1.7569   -5.7098 C   0  0  0  0  0  0  0  0  0  0  0  0
    1.1920    0.8610   -4.9642 O   0  0  0  0  0  0  0  0  0  0  0  0
    1.6742    2.4383   -6.7181 C   0  0  0  0  0  0  0  0  0  0  0  0
    2.9872    2.1306   -7.0621 C   0  0  0  0  0  0  0  0  0  0  0  0
    3.5239    2.9582   -8.0198 C   0  0  0  0  0  0  0  0  0  0  0  0
    2.8110    4.0214   -8.5861 C   0  0  0  0  0  0  0  0  0  0  0  0
    1.5128    4.3355   -8.2549 C   0  0  0  0  0  0  0  0  0  0  0  0
    0.9465    3.4995   -7.2888 C   0  0  0  0  0  0  0  0  0  0  0  0
   -0.3901    3.5143   -6.6952 C   0  0  0  0  0  0  0  0  0  0  0  0
   -1.4521    4.2736   -7.1205 C   0  0  0  0  0  0  0  0  0  0  0  0
   -1.3862    5.2091   -8.1700 C   0  0  0  0  0  0  0  0  0  0  0  0
   -1.3792    5.9823   -9.0196 N   0  0  0  0  0  0  0  0  0  0  0  0
   -2.7554    4.1568   -6.5982 C   0  0  0  0  0  0  0  0  0  0  0  0
   -3.8416    4.0932   -6.2302 N   0  0  0  0  0  0  0  0  0  0  0  0
    3.9756    4.4509   -9.4449 C   0  0  0  0  0  0  0  0  0  0  0  0
    4.7672    5.6842   -8.9613 C   0  0  0  0  0  0  0  0  0  0  0  0
    6.0873    5.5764   -9.6901 C   0  0  0  0  0  0  0  0  0  0  0  0
    6.7621    4.5667   -9.1556 C   0  0  0  0  0  0  0  0  0  0  0  0
    5.9093    3.9752   -8.0566 C   0  0  0  0  0  0  0  0  0  0  0  0
    5.2045    5.2436   -7.5583 C   0  0  0  0  0  0  0  0  0  0  0  0
    4.7700    3.2619   -8.8150 C   0  0  0  0  0  0  0  0  0  0  0  0
    1.0061   -3.2010    8.2229 H   0  0  0  0  0  0  0  0  0  0  0  0
    0.5792    2.0962    4.8984 H   0  0  0  0  0  0  0  0  0  0  0  0
    2.3127    2.0971    9.6583 H   0  0  0  0  0  0  0  0  0  0  0  0
    2.8539    5.1487    8.1992 H   0  0  0  0  0  0  0  0  0  0  0  0
    0.7597    5.3419    9.8324 H   0  0  0  0  0  0  0  0  0  0  0  0
    1.2519    7.7186    8.8284 H   0  0  0  0  0  0  0  0  0  0  0  0
    0.3671    7.7591    6.3239 H   0  0  0  0  0  0  0  0  0  0  0  0
   -0.6663    5.3990    5.7833 H   0  0  0  0  0  0  0  0  0  0  0  0
   -0.6852    3.9505    8.0399 H   0  0  0  0  0  0  0  0  0  0  0  0
   -1.4037    5.5523    8.3209 H   0  0  0  0  0  0  0  0  0  0  0  0
    1.9891    5.1855    5.7424 H   0  0  0  0  0  0  0  0  0  0  0  0
   -1.2326   -4.2620    8.0451 H   0  0  0  0  0  0  0  0  0  0  0  0
   -4.5968   -5.2313    6.9945 H   0  0  0  0  0  0  0  0  0  0  0  0
   -3.5266   -5.3832    8.3973 H   0  0  0  0  0  0  0  0  0  0  0  0
   -3.8570   -7.4693    6.1786 H   0  0  0  0  0  0  0  0  0  0  0  0
   -2.8055   -7.6355    7.5870 H   0  0  0  0  0  0  0  0  0  0  0  0
   -4.5582   -7.5740    7.7976 H   0  0  0  0  0  0  0  0  0  0  0  0
    4.6808   -1.5590    2.5821 H   0  0  0  0  0  0  0  0  0  0  0  0
    4.2153   -2.7266    1.3347 H   0  0  0  0  0  0  0  0  0  0  0  0
    6.4528   -3.2693    2.2935 H   0  0  0  0  0  0  0  0  0  0  0  0
    5.7416   -3.3825    3.9070 H   0  0  0  0  0  0  0  0  0  0  0  0
    5.2952   -4.5525    2.6625 H   0  0  0  0  0  0  0  0  0  0  0  0
    1.9132   -3.8090    1.6555 H   0  0  0  0  0  0  0  0  0  0  0  0
   -3.4739   -5.2222   -1.3955 H   0  0  0  0  0  0  0  0  0  0  0  0
   -4.9642   -7.2820   -1.0386 H   0  0  0  0  0  0  0  0  0  0  0  0
   -3.7454   -8.4889   -0.6169 H   0  0  0  0  0  0  0  0  0  0  0  0
   -4.6304   -8.5997    1.7061 H   0  0  0  0  0  0  0  0  0  0  0  0
   -5.8848   -9.0001    0.5249 H   0  0  0  0  0  0  0  0  0  0  0  0
   -5.8710   -7.4063    1.2924 H   0  0  0  0  0  0  0  0  0  0  0  0
   -2.9277   -1.5872    2.8597 H   0  0  0  0  0  0  0  0  0  0  0  0
   -4.4108   -3.2973    3.7595 H   0  0  0  0  0  0  0  0  0  0  0  0
   -6.7365   -6.0576    4.4526 H   0  0  0  0  0  0  0  0  0  0  0  0
   -5.0395   -5.6005    4.1718 H   0  0  0  0  0  0  0  0  0  0  0  0
   -6.2312   -4.3749    4.7244 H   0  0  0  0  0  0  0  0  0  0  0  0
   -6.2059   -3.7821   -0.0915 H   0  0  0  0  0  0  0  0  0  0  0  0
   -4.7139   -2.0441   -0.9969 H   0  0  0  0  0  0  0  0  0  0  0  0
   -4.2083    0.6385    2.0360 H   0  0  0  0  0  0  0  0  0  0  0  0
   -3.4021    2.6095    3.2717 H   0  0  0  0  0  0  0  0  0  0  0  0
    1.3615    3.7892    2.8089 H   0  0  0  0  0  0  0  0  0  0  0  0
    0.4595    4.6603    1.5266 H   0  0  0  0  0  0  0  0  0  0  0  0
    0.8301    5.4646    3.0682 H   0  0  0  0  0  0  0  0  0  0  0  0
    0.3841    2.2826    1.3074 H   0  0  0  0  0  0  0  0  0  0  0  0
   -0.4029    0.3230    0.1094 H   0  0  0  0  0  0  0  0  0  0  0  0
    0.7921   -0.4895   -7.4982 H   0  0  0  0  0  0  0  0  0  0  0  0
    0.4360    0.7836   -9.5498 H   0  0  0  0  0  0  0  0  0  0  0  0
    0.4017    3.0512  -10.3391 H   0  0  0  0  0  0  0  0  0  0  0  0
    0.1168    1.8335  -11.6270 H   0  0  0  0  0  0  0  0  0  0  0  0
   -0.4146    3.5156  -11.8485 H   0  0  0  0  0  0  0  0  0  0  0  0
   -3.5478    1.6983   -8.2843 H   0  0  0  0  0  0  0  0  0  0  0  0
   -3.1804    0.4334   -6.2118 H   0  0  0  0  0  0  0  0  0  0  0  0
    1.2356   -1.4131   -4.0446 H   0  0  0  0  0  0  0  0  0  0  0  0
    2.4240   -3.5526   -4.1173 H   0  0  0  0  0  0  0  0  0  0  0  0
    2.4142   -5.8487   -3.4451 H   0  0  0  0  0  0  0  0  0  0  0  0
    3.3737   -7.0750   -4.3048 H   0  0  0  0  0  0  0  0  0  0  0  0
    3.8368   -5.3650   -4.4263 H   0  0  0  0  0  0  0  0  0  0  0  0
   -0.1965   -4.8916   -7.2231 H   0  0  0  0  0  0  0  0  0  0  0  0
   -1.3991   -2.7369   -7.1290 H   0  0  0  0  0  0  0  0  0  0  0  0
   -2.0824    3.1012   -4.5022 H   0  0  0  0  0  0  0  0  0  0  0  0
    3.5046    1.3067   -6.5956 H   0  0  0  0  0  0  0  0  0  0  0  0
    0.9791    5.1657   -8.6881 H   0  0  0  0  0  0  0  0  0  0  0  0
    3.8025    4.4513  -10.5197 H   0  0  0  0  0  0  0  0  0  0  0  0
    4.2362    6.6283   -9.0475 H   0  0  0  0  0  0  0  0  0  0  0  0
    6.3620    6.1900  -10.5279 H   0  0  0  0  0  0  0  0  0  0  0  0
    7.7130    4.1682   -9.4575 H   0  0  0  0  0  0  0  0  0  0  0  0
    6.4187    3.3621   -7.3179 H   0  0  0  0  0  0  0  0  0  0  0  0
    5.8986    5.9484   -7.1034 H   0  0  0  0  0  0  0  0  0  0  0  0
    4.3790    5.0534   -6.8749 H   0  0  0  0  0  0  0  0  0  0  0  0
    5.1258    2.4685   -9.4701 H   0  0  0  0  0  0  0  0  0  0  0  0
  1  2  2  0  0  0  0
  2  3  1  0  0  0  0
  3  4  2  0  0  0  0
  3  5  1  0  0  0  0
  5  6  2  0  0  0  0
  6  7  1  0  0  0  0
  7  8  2  0  0  0  0
  8  9  1  0  0  0  0
  9 10  2  0  0  0  0
 10 11  1  0  0  0  0
 11 12  2  0  0  0  0
 12 13  1  0  0  0  0
 13 14  3  0  0  0  0
 12 15  1  0  0  0  0
 15 16  3  0  0  0  0
  8 17  1  0  0  0  0
 17 18  1  0  0  0  0
 18 19  1  0  0  0  0
 19 20  2  0  0  0  0
 20 21  1  0  0  0  0
 21 22  1  0  0  0  0
 21 23  1  0  0  0  0
  1 24  1  0  0  0  0
 24 25  2  0  0  0  0
 25 26  1  0  0  0  0
 26 27  2  0  0  0  0
 27 28  1  0  0  0  0
 28 29  1  0  0  0  0
 27 30  1  0  0  0  0
 30 31  1  0  0  0  0
 31 32  2  0  0  0  0
 32 33  1  0  0  0  0
 33 34  2  0  0  0  0
 34 35  1  0  0  0  0
 35 36  1  0  0  0  0
 36 37  1  0  0  0  0
 37 38  1  0  0  0  0
 36 39  2  0  0  0  0
 32 40  1  0  0  0  0
 40 41  1  0  0  0  0
 41 42  1  0  0  0  0
 42 43  2  0  0  0  0
 43 44  1  0  0  0  0
 44 45  2  0  0  0  0
 45 46  1  0  0  0  0
 46 47  1  0  0  0  0
 45 48  1  0  0  0  0
 48 49  1  0  0  0  0
 42 50  1  0  0  0  0
 50 51  2  0  0  0  0
 51 52  1  0  0  0  0
 52 53  1  0  0  0  0
 53 54  2  0  0  0  0
 54 55  1  0  0  0  0
 55 56  2  0  0  0  0
 56 57  1  0  0  0  0
 57 58  1  0  0  0  0
 56 59  1  0  0  0  0
 59 60  2  0  0  0  0
 52 61  1  0  0  0  0
 61 62  2  0  0  0  0
 62 63  1  0  0  0  0
 63 64  2  0  0  0  0
 64 65  1  0  0  0  0
 65 66  1  0  0  0  0
 64 67  1  0  0  0  0
 67 68  2  0  0  0  0
 51 69  1  0  0  0  0
 69 70  1  0  0  0  0
 70 71  1  0  0  0  0
 71 72  2  0  0  0  0
 72 73  1  0  0  0  0
 73 74  1  0  0  0  0
 74 75  2  0  0  0  0
 75 76  1  0  0  0  0
 76 77  2  0  0  0  0
 77 78  1  0  0  0  0
 78 79  1  0  0  0  0
 77 80  1  0  0  0  0
 80 81  2  0  0  0  0
 73 82  1  0  0  0  0
 82 83  2  0  0  0  0
 83 84  1  0  0  0  0
 84 85  2  0  0  0  0
 85 86  1  0  0  0  0
 86 87  1  0  0  0  0
 85 88  1  0  0  0  0
 88 89  2  0  0  0  0
 72 90  1  0  0  0  0
 90 91  1  0  0  0  0
 71 92  1  0  0  0  0
 92 93  2  0  0  0  0
 93 94  1  0  0  0  0
 94 95  2  0  0  0  0
 94 96  1  0  0  0  0
 96 97  2  0  0  0  0
 97 98  1  0  0  0  0
 98 99  2  0  0  0  0
 99100  1  0  0  0  0
100101  2  0  0  0  0
101102  1  0  0  0  0
102103  2  0  0  0  0
103104  1  0  0  0  0
104105  3  0  0  0  0
103106  1  0  0  0  0
106107  3  0  0  0  0
 99108  1  0  0  0  0
108109  1  0  0  0  0
109110  1  0  0  0  0
110111  2  0  0  0  0
111112  1  0  0  0  0
112113  1  0  0  0  0
112114  1  0  0  0  0
 11  2  1  0  0  0  0
 23 17  1  0  0  0  0
 34 24  1  0  0  0  0
 49 40  2  0  0  0  0
 91 50  1  0  0  0  0
102 93  1  0  0  0  0
114108  1  0  0  0  0
 10  5  1  0  0  0  0
 22 18  1  0  0  0  0
 31 25  1  0  0  0  0
 39 33  1  0  0  0  0
 49 43  1  0  0  0  0
 60 53  1  0  0  0  0
 68 61  1  0  0  0  0
 90 69  2  0  0  0  0
101 96  1  0  0  0  0
113109  1  0  0  0  0
 23  7  1  0  0  0  0
 81 74  1  0  0  0  0
 89 82  1  0  0  0  0
114 98  1  0  0  0  0
  1115  1  0  0  0  0
  6116  1  0  0  0  0
  9117  1  0  0  0  0
 17118  1  0  0  0  0
 18119  1  0  0  0  0
 19120  1  0  0  0  0
 20121  1  0  0  0  0
 21122  1  0  0  0  0
 22123  1  0  0  0  0
 22124  1  0  0  0  0
 23125  1  0  0  0  0
 26126  1  0  0  0  0
 28127  1  0  0  0  0
 28128  1  0  0  0  0
 29129  1  0  0  0  0
 29130  1  0  0  0  0
 29131  1  0  0  0  0
 37132  1  0  0  0  0
 37133  1  0  0  0  0
 38134  1  0  0  0  0
 38135  1  0  0  0  0
 38136  1  0  0  0  0
 39137  1  0  0  0  0
 44138  1  0  0  0  0
 46139  1  0  0  0  0
 46140  1  0  0  0  0
 47141  1  0  0  0  0
 47142  1  0  0  0  0
 47143  1  0  0  0  0
 54144  1  0  0  0  0
 55145  1  0  0  0  0
 58146  1  0  0  0  0
 58147  1  0  0  0  0
 58148  1  0  0  0  0
 59149  1  0  0  0  0
 60150  1  0  0  0  0
 62151  1  0  0  0  0
 63152  1  0  0  0  0
 66153  1  0  0  0  0
 66154  1  0  0  0  0
 66155  1  0  0  0  0
 67156  1  0  0  0  0
 68157  1  0  0  0  0
 75158  1  0  0  0  0
 76159  1  0  0  0  0
 79160  1  0  0  0  0
 79161  1  0  0  0  0
 79162  1  0  0  0  0
 80163  1  0  0  0  0
 81164  1  0  0  0  0
 83165  1  0  0  0  0
 84166  1  0  0  0  0
 87167  1  0  0  0  0
 87168  1  0  0  0  0
 87169  1  0  0  0  0
 88170  1  0  0  0  0
 89171  1  0  0  0  0
 92172  1  0  0  0  0
 97173  1  0  0  0  0
100174  1  0  0  0  0
108175  1  0  0  0  0
109176  1  0  0  0  0
110177  1  0  0  0  0
111178  1  0  0  0  0
112179  1  0  0  0  0
113180  1  0  0  0  0
113181  1  0  0  0  0
114182  1  0  0  0  0
M  END
