
  xtb     02162210243D
 energy: -364.320134693306 gnorm: 0.000531722660 xtb: 6.4.1 (unknown)
219242  0     0  0            999 V2000
   -2.3695    1.4031   -7.0533 C   0  0  0  0  0  0  0  0  0  0  0  0
   -2.7620    0.4664   -7.9699 C   0  0  0  0  0  0  0  0  0  0  0  0
   -3.9478   -0.3923   -7.7637 C   0  0  0  0  0  0  0  0  0  0  0  0
   -4.7162   -0.3569   -6.8243 O   0  0  0  0  0  0  0  0  0  0  0  0
   -4.0938   -1.1731   -9.0043 C   0  0  0  0  0  0  0  0  0  0  0  0
   -5.0286   -2.1730   -9.2574 C   0  0  0  0  0  0  0  0  0  0  0  0
   -4.8714   -2.7887  -10.4748 C   0  0  0  0  0  0  0  0  0  0  0  0
   -3.8827   -2.4125  -11.3944 C   0  0  0  0  0  0  0  0  0  0  0  0
   -2.9768   -1.4025  -11.1726 C   0  0  0  0  0  0  0  0  0  0  0  0
   -3.1007   -0.7820   -9.9252 C   0  0  0  0  0  0  0  0  0  0  0  0
   -2.2869    0.2666   -9.3161 C   0  0  0  0  0  0  0  0  0  0  0  0
   -1.1839    0.8695   -9.8697 C   0  0  0  0  0  0  0  0  0  0  0  0
   -0.3586    1.7764   -9.1759 C   0  0  0  0  0  0  0  0  0  0  0  0
    0.3696    2.4944   -8.6516 N   0  0  0  0  0  0  0  0  0  0  0  0
   -0.7204    0.6448  -11.1803 C   0  0  0  0  0  0  0  0  0  0  0  0
   -0.2956    0.5131  -12.2392 N   0  0  0  0  0  0  0  0  0  0  0  0
   -4.2846   -3.4804  -12.3827 C   0  0  0  0  0  0  0  0  0  0  0  0
   -3.3729   -4.7243  -12.4471 C   0  0  0  0  0  0  0  0  0  0  0  0
   -4.2406   -5.7824  -13.0894 C   0  0  0  0  0  0  0  0  0  0  0  0
   -5.1613   -6.1417  -12.2039 C   0  0  0  0  0  0  0  0  0  0  0  0
   -4.9348   -5.3298  -10.9493 C   0  0  0  0  0  0  0  0  0  0  0  0
   -3.4061   -5.2051  -10.9910 C   0  0  0  0  0  0  0  0  0  0  0  0
   -5.3776   -3.9055  -11.3501 C   0  0  0  0  0  0  0  0  0  0  0  0
   -2.5091    1.2238   -5.6586 C   0  0  0  0  0  0  0  0  0  0  0  0
   -2.1752    0.0785   -4.9343 C   0  0  0  0  0  0  0  0  0  0  0  0
   -1.7595   -1.1604   -5.4363 N   0  0  0  0  0  0  0  0  0  0  0  0
   -0.5219   -1.5923   -4.9247 C   0  0  0  0  0  0  0  0  0  0  0  0
   -0.3521   -2.8562   -4.3588 C   0  0  0  0  0  0  0  0  0  0  0  0
    0.8621   -3.2167   -3.8181 C   0  0  0  0  0  0  0  0  0  0  0  0
    1.9334   -2.3273   -3.8334 C   0  0  0  0  0  0  0  0  0  0  0  0
    3.4386   -2.8779   -3.0895 S   0  0  0  0  0  0  0  0  0  0  0  0
    4.6743   -1.6770   -3.6618 C   0  0  0  0  0  0  0  0  0  0  0  0
    1.7738   -1.0713   -4.4018 C   0  0  0  0  0  0  0  0  0  0  0  0
    0.5566   -0.7108   -4.9445 C   0  0  0  0  0  0  0  0  0  0  0  0
   -2.7225   -2.1362   -5.7608 C   0  0  0  0  0  0  0  0  0  0  0  0
   -2.4357   -3.0769   -6.7474 C   0  0  0  0  0  0  0  0  0  0  0  0
   -3.3698   -4.0320   -7.0812 C   0  0  0  0  0  0  0  0  0  0  0  0
   -4.6110   -4.0550   -6.4468 C   0  0  0  0  0  0  0  0  0  0  0  0
   -5.7483   -5.2938   -6.9856 S   0  0  0  0  0  0  0  0  0  0  0  0
   -7.2270   -4.9928   -5.9770 C   0  0  0  0  0  0  0  0  0  0  0  0
   -4.8945   -3.1263   -5.4564 C   0  0  0  0  0  0  0  0  0  0  0  0
   -3.9509   -2.1776   -5.1129 C   0  0  0  0  0  0  0  0  0  0  0  0
   -2.0970    0.3649   -3.5613 C   0  0  0  0  0  0  0  0  0  0  0  0
   -1.7181   -0.6282   -2.2110 S   0  0  0  0  0  0  0  0  0  0  0  0
   -2.0595    0.7100   -1.1166 C   0  0  0  0  0  0  0  0  0  0  0  0
   -2.4639    1.8603   -1.7953 C   0  0  0  0  0  0  0  0  0  0  0  0
   -2.8644    3.0443   -1.2015 N   0  0  0  0  0  0  0  0  0  0  0  0
   -3.6958    3.0467   -0.0791 C   0  0  0  0  0  0  0  0  0  0  0  0
   -3.6763    4.1259    0.8063 C   0  0  0  0  0  0  0  0  0  0  0  0
   -4.4986    4.1334    1.9084 C   0  0  0  0  0  0  0  0  0  0  0  0
   -5.3301    3.0503    2.1811 C   0  0  0  0  0  0  0  0  0  0  0  0
   -6.2881    3.1374    3.6654 S   0  0  0  0  0  0  0  0  0  0  0  0
   -7.4392    1.7422    3.5335 C   0  0  0  0  0  0  0  0  0  0  0  0
   -5.3544    1.9743    1.3066 C   0  0  0  0  0  0  0  0  0  0  0  0
   -4.5585    1.9837    0.1778 C   0  0  0  0  0  0  0  0  0  0  0  0
   -2.5767    4.2376   -1.8871 C   0  0  0  0  0  0  0  0  0  0  0  0
   -3.5381    5.2365   -2.0378 C   0  0  0  0  0  0  0  0  0  0  0  0
   -3.2452    6.3739   -2.7546 C   0  0  0  0  0  0  0  0  0  0  0  0
   -1.9930    6.5390   -3.3457 C   0  0  0  0  0  0  0  0  0  0  0  0
   -1.7435    8.0277   -4.2568 S   0  0  0  0  0  0  0  0  0  0  0  0
   -0.1475    7.7695   -5.0829 C   0  0  0  0  0  0  0  0  0  0  0  0
   -1.0294    5.5528   -3.1867 C   0  0  0  0  0  0  0  0  0  0  0  0
   -1.3214    4.4148   -2.4607 C   0  0  0  0  0  0  0  0  0  0  0  0
   -2.4453    1.6548   -3.1951 C   0  0  0  0  0  0  0  0  0  0  0  0
   -2.7827    2.6080   -4.6012 S   0  0  0  0  0  0  0  0  0  0  0  0
   -1.7248    0.5186    0.2472 C   0  0  0  0  0  0  0  0  0  0  0  0
   -1.4610   -0.7154    0.8411 C   0  0  0  0  0  0  0  0  0  0  0  0
   -1.7455   -1.9587    0.2902 N   0  0  0  0  0  0  0  0  0  0  0  0
   -2.9982   -2.2643   -0.2399 C   0  0  0  0  0  0  0  0  0  0  0  0
   -3.1192   -3.2181   -1.2564 C   0  0  0  0  0  0  0  0  0  0  0  0
   -4.3416   -3.4739   -1.8302 C   0  0  0  0  0  0  0  0  0  0  0  0
   -5.4785   -2.7831   -1.4137 C   0  0  0  0  0  0  0  0  0  0  0  0
   -6.9843   -3.1732   -2.2534 S   0  0  0  0  0  0  0  0  0  0  0  0
   -8.2026   -2.0415   -1.5289 C   0  0  0  0  0  0  0  0  0  0  0  0
   -5.3701   -1.8510   -0.3918 C   0  0  0  0  0  0  0  0  0  0  0  0
   -4.1420   -1.5984    0.1911 C   0  0  0  0  0  0  0  0  0  0  0  0
   -0.7233   -2.9250    0.3273 C   0  0  0  0  0  0  0  0  0  0  0  0
   -0.9911   -4.2408    0.7006 C   0  0  0  0  0  0  0  0  0  0  0  0
    0.0236   -5.1704    0.7237 C   0  0  0  0  0  0  0  0  0  0  0  0
    1.3264   -4.8070    0.3837 C   0  0  0  0  0  0  0  0  0  0  0  0
    2.5369   -6.0872    0.4425 S   0  0  0  0  0  0  0  0  0  0  0  0
    4.0585   -5.2829   -0.1321 C   0  0  0  0  0  0  0  0  0  0  0  0
    1.5987   -3.4935    0.0261 C   0  0  0  0  0  0  0  0  0  0  0  0
    0.5781   -2.5641   -0.0050 C   0  0  0  0  0  0  0  0  0  0  0  0
   -0.8020   -0.5524    2.0766 C   0  0  0  0  0  0  0  0  0  0  0  0
   -0.0675   -1.6480    3.1874 S   0  0  0  0  0  0  0  0  0  0  0  0
    0.5263   -0.3034    4.1662 C   0  0  0  0  0  0  0  0  0  0  0  0
    0.1843    0.9308    3.6173 C   0  0  0  0  0  0  0  0  0  0  0  0
    0.6050    2.1828    4.0255 N   0  0  0  0  0  0  0  0  0  0  0  0
    1.9215    2.4369    4.4111 C   0  0  0  0  0  0  0  0  0  0  0  0
    2.9710    1.6562    3.9304 C   0  0  0  0  0  0  0  0  0  0  0  0
    4.2752    1.9153    4.2997 C   0  0  0  0  0  0  0  0  0  0  0  0
    4.5612    2.9676    5.1571 C   0  0  0  0  0  0  0  0  0  0  0  0
    6.1977    3.4094    5.6388 S   0  0  0  0  0  0  0  0  0  0  0  0
    7.1275    1.8712    5.3889 C   0  0  0  0  0  0  0  0  0  0  0  0
    3.5197    3.7546    5.6395 C   0  0  0  0  0  0  0  0  0  0  0  0
    2.2188    3.4936    5.2751 C   0  0  0  0  0  0  0  0  0  0  0  0
   -0.3554    3.2068    4.0430 C   0  0  0  0  0  0  0  0  0  0  0  0
   -0.0563    4.4827    3.5656 C   0  0  0  0  0  0  0  0  0  0  0  0
   -0.9907    5.4895    3.6544 C   0  0  0  0  0  0  0  0  0  0  0  0
   -2.2436    5.2433    4.2122 C   0  0  0  0  0  0  0  0  0  0  0  0
   -3.3448    6.6202    4.3274 S   0  0  0  0  0  0  0  0  0  0  0  0
   -4.6098    6.0577    5.5031 C   0  0  0  0  0  0  0  0  0  0  0  0
   -2.5663    3.9609    4.6352 C   0  0  0  0  0  0  0  0  0  0  0  0
   -1.6258    2.9536    4.5523 C   0  0  0  0  0  0  0  0  0  0  0  0
   -0.5943    0.7663    2.4457 C   0  0  0  0  0  0  0  0  0  0  0  0
   -1.2618    1.8664    1.2841 S   0  0  0  0  0  0  0  0  0  0  0  0
    1.2831   -0.6269    5.3356 C   0  0  0  0  0  0  0  0  0  0  0  0
    1.9096   -1.8646    5.4629 C   0  0  0  0  0  0  0  0  0  0  0  0
    2.7108   -2.2003    6.5457 C   0  0  0  0  0  0  0  0  0  0  0  0
    2.9884   -1.3071    7.5723 C   0  0  0  0  0  0  0  0  0  0  0  0
    2.2726   -0.0820    7.5476 C   0  0  0  0  0  0  0  0  0  0  0  0
    2.2086    0.8198    8.5221 N   0  0  0  0  0  0  0  0  0  0  0  0
    1.1708    1.9704    8.0975 S   0  0  0  0  0  0  0  0  0  0  0  0
    0.7411    1.3792    6.6655 N   0  0  0  0  0  0  0  0  0  0  0  0
    1.4079    0.2487    6.4476 C   0  0  0  0  0  0  0  0  0  0  0  0
    3.9078   -1.6185    8.6271 C   0  0  0  0  0  0  0  0  0  0  0  0
    4.7688   -0.7144    9.1634 C   0  0  0  0  0  0  0  0  0  0  0  0
    5.1381    0.5608    8.4977 C   0  0  0  0  0  0  0  0  0  0  0  0
    4.7646    0.9625    7.4139 O   0  0  0  0  0  0  0  0  0  0  0  0
    6.1945    1.1589    9.3305 C   0  0  0  0  0  0  0  0  0  0  0  0
    6.8563    2.3640    9.1005 C   0  0  0  0  0  0  0  0  0  0  0  0
    7.8423    2.6425   10.0156 C   0  0  0  0  0  0  0  0  0  0  0  0
    8.1588    1.7819   11.0757 C   0  0  0  0  0  0  0  0  0  0  0  0
    7.5159    0.5904   11.3129 C   0  0  0  0  0  0  0  0  0  0  0  0
    6.4994    0.2908   10.3995 C   0  0  0  0  0  0  0  0  0  0  0  0
    5.6161   -0.8693   10.3298 C   0  0  0  0  0  0  0  0  0  0  0  0
    5.5530   -1.8879   11.2446 C   0  0  0  0  0  0  0  0  0  0  0  0
    6.3752   -1.9931   12.3853 C   0  0  0  0  0  0  0  0  0  0  0  0
    7.0106   -2.1441   13.3298 N   0  0  0  0  0  0  0  0  0  0  0  0
    4.6497   -2.9697   11.1831 C   0  0  0  0  0  0  0  0  0  0  0  0
    3.9445   -3.8759   11.2084 N   0  0  0  0  0  0  0  0  0  0  0  0
    9.2575    2.6825   11.5838 C   0  0  0  0  0  0  0  0  0  0  0  0
    8.9325    3.5338   12.8292 C   0  0  0  0  0  0  0  0  0  0  0  0
    9.9721    4.6309   12.7984 C   0  0  0  0  0  0  0  0  0  0  0  0
    9.6681    5.4470   11.7972 C   0  0  0  0  0  0  0  0  0  0  0  0
    8.4182    4.9151   11.1339 C   0  0  0  0  0  0  0  0  0  0  0  0
    7.7040    4.3209   12.3548 C   0  0  0  0  0  0  0  0  0  0  0  0
    8.9011    3.6436   10.4043 C   0  0  0  0  0  0  0  0  0  0  0  0
   -1.8819    2.3160   -7.3725 H   0  0  0  0  0  0  0  0  0  0  0  0
   -5.7781   -2.4298   -8.5267 H   0  0  0  0  0  0  0  0  0  0  0  0
   -2.2274   -1.1140  -11.8913 H   0  0  0  0  0  0  0  0  0  0  0  0
   -4.6005   -3.1302  -13.3634 H   0  0  0  0  0  0  0  0  0  0  0  0
   -2.3987   -4.5510  -12.8966 H   0  0  0  0  0  0  0  0  0  0  0  0
   -4.1316   -6.1106  -14.1065 H   0  0  0  0  0  0  0  0  0  0  0  0
   -5.9757   -6.8299  -12.3345 H   0  0  0  0  0  0  0  0  0  0  0  0
   -5.3801   -5.7019  -10.0306 H   0  0  0  0  0  0  0  0  0  0  0  0
   -2.9125   -6.1671  -10.8625 H   0  0  0  0  0  0  0  0  0  0  0  0
   -2.9995   -4.4874  -10.2810 H   0  0  0  0  0  0  0  0  0  0  0  0
   -6.4242   -3.8521  -11.6430 H   0  0  0  0  0  0  0  0  0  0  0  0
   -1.1820   -3.5457   -4.3298 H   0  0  0  0  0  0  0  0  0  0  0  0
    0.9889   -4.1876   -3.3640 H   0  0  0  0  0  0  0  0  0  0  0  0
    4.5121   -0.7134   -3.1872 H   0  0  0  0  0  0  0  0  0  0  0  0
    5.6371   -2.0773   -3.3595 H   0  0  0  0  0  0  0  0  0  0  0  0
    4.6291   -1.5973   -4.7437 H   0  0  0  0  0  0  0  0  0  0  0  0
    2.5850   -0.3615   -4.4274 H   0  0  0  0  0  0  0  0  0  0  0  0
    0.4365    0.2678   -5.3866 H   0  0  0  0  0  0  0  0  0  0  0  0
   -1.4772   -3.0497   -7.2449 H   0  0  0  0  0  0  0  0  0  0  0  0
   -3.1569   -4.7651   -7.8442 H   0  0  0  0  0  0  0  0  0  0  0  0
   -6.9951   -5.1183   -4.9233 H   0  0  0  0  0  0  0  0  0  0  0  0
   -7.9504   -5.7399   -6.2885 H   0  0  0  0  0  0  0  0  0  0  0  0
   -7.6137   -3.9976   -6.1761 H   0  0  0  0  0  0  0  0  0  0  0  0
   -5.8391   -3.1250   -4.9387 H   0  0  0  0  0  0  0  0  0  0  0  0
   -4.1762   -1.4611   -4.3384 H   0  0  0  0  0  0  0  0  0  0  0  0
   -3.0135    4.9576    0.6254 H   0  0  0  0  0  0  0  0  0  0  0  0
   -4.5002    4.9842    2.5685 H   0  0  0  0  0  0  0  0  0  0  0  0
   -7.9968    1.8148    2.6042 H   0  0  0  0  0  0  0  0  0  0  0  0
   -6.8986    0.8021    3.6007 H   0  0  0  0  0  0  0  0  0  0  0  0
   -8.1145    1.8376    4.3782 H   0  0  0  0  0  0  0  0  0  0  0  0
   -5.9967    1.1257    1.4828 H   0  0  0  0  0  0  0  0  0  0  0  0
   -4.6089    1.1538   -0.5117 H   0  0  0  0  0  0  0  0  0  0  0  0
   -4.5174    5.1082   -1.6023 H   0  0  0  0  0  0  0  0  0  0  0  0
   -3.9893    7.1452   -2.8806 H   0  0  0  0  0  0  0  0  0  0  0  0
   -0.1805    6.8552   -5.6679 H   0  0  0  0  0  0  0  0  0  0  0  0
   -0.0174    8.6240   -5.7397 H   0  0  0  0  0  0  0  0  0  0  0  0
    0.6548    7.7445   -4.3511 H   0  0  0  0  0  0  0  0  0  0  0  0
   -0.0473    5.6568   -3.6180 H   0  0  0  0  0  0  0  0  0  0  0  0
   -0.5664    3.6525   -2.3339 H   0  0  0  0  0  0  0  0  0  0  0  0
   -2.2392   -3.7343   -1.6076 H   0  0  0  0  0  0  0  0  0  0  0  0
   -4.4268   -4.1989   -2.6250 H   0  0  0  0  0  0  0  0  0  0  0  0
   -8.3292   -2.2577   -0.4718 H   0  0  0  0  0  0  0  0  0  0  0  0
   -9.1319   -2.2337   -2.0563 H   0  0  0  0  0  0  0  0  0  0  0  0
   -7.8934   -1.0128   -1.6908 H   0  0  0  0  0  0  0  0  0  0  0  0
   -6.2343   -1.3125   -0.0356 H   0  0  0  0  0  0  0  0  0  0  0  0
   -4.0676   -0.8722    0.9875 H   0  0  0  0  0  0  0  0  0  0  0  0
   -1.9966   -4.5259    0.9711 H   0  0  0  0  0  0  0  0  0  0  0  0
   -0.1777   -6.1910    1.0107 H   0  0  0  0  0  0  0  0  0  0  0  0
    4.3552   -4.5072    0.5679 H   0  0  0  0  0  0  0  0  0  0  0  0
    4.8099   -6.0660   -0.1539 H   0  0  0  0  0  0  0  0  0  0  0  0
    3.9113   -4.8803   -1.1300 H   0  0  0  0  0  0  0  0  0  0  0  0
    2.5934   -3.1846   -0.2480 H   0  0  0  0  0  0  0  0  0  0  0  0
    0.7878   -1.5469   -0.3025 H   0  0  0  0  0  0  0  0  0  0  0  0
    2.7685    0.8424    3.2498 H   0  0  0  0  0  0  0  0  0  0  0  0
    5.0613    1.2933    3.9027 H   0  0  0  0  0  0  0  0  0  0  0  0
    7.3091    1.7048    4.3308 H   0  0  0  0  0  0  0  0  0  0  0  0
    8.0726    1.9989    5.9080 H   0  0  0  0  0  0  0  0  0  0  0  0
    6.5612    1.0566    5.8301 H   0  0  0  0  0  0  0  0  0  0  0  0
    3.7421    4.5682    6.3130 H   0  0  0  0  0  0  0  0  0  0  0  0
    1.4179    4.0947    5.6778 H   0  0  0  0  0  0  0  0  0  0  0  0
    0.9161    4.6795    3.1399 H   0  0  0  0  0  0  0  0  0  0  0  0
   -0.7598    6.4823    3.2994 H   0  0  0  0  0  0  0  0  0  0  0  0
   -4.1268    5.6914    6.4038 H   0  0  0  0  0  0  0  0  0  0  0  0
   -5.2059    6.9357    5.7314 H   0  0  0  0  0  0  0  0  0  0  0  0
   -5.2384    5.2935    5.0540 H   0  0  0  0  0  0  0  0  0  0  0  0
   -3.5406    3.7375    5.0388 H   0  0  0  0  0  0  0  0  0  0  0  0
   -1.8632    1.9637    4.9122 H   0  0  0  0  0  0  0  0  0  0  0  0
    1.7945   -2.5823    4.6631 H   0  0  0  0  0  0  0  0  0  0  0  0
    3.1956   -3.1657    6.5546 H   0  0  0  0  0  0  0  0  0  0  0  0
    3.9130   -2.6440    8.9741 H   0  0  0  0  0  0  0  0  0  0  0  0
    6.5906    2.9953    8.2667 H   0  0  0  0  0  0  0  0  0  0  0  0
    7.7784   -0.0669   12.1250 H   0  0  0  0  0  0  0  0  0  0  0  0
   10.2530    2.2436   11.6160 H   0  0  0  0  0  0  0  0  0  0  0  0
    8.8416    2.9708   13.7540 H   0  0  0  0  0  0  0  0  0  0  0  0
   10.8247    4.6678   13.4508 H   0  0  0  0  0  0  0  0  0  0  0  0
   10.2161    6.3018   11.4463 H   0  0  0  0  0  0  0  0  0  0  0  0
    7.8588    5.6101   10.5137 H   0  0  0  0  0  0  0  0  0  0  0  0
    6.8463    3.6983   12.1075 H   0  0  0  0  0  0  0  0  0  0  0  0
    7.4049    5.0861   13.0692 H   0  0  0  0  0  0  0  0  0  0  0  0
    9.6591    3.8490    9.6505 H   0  0  0  0  0  0  0  0  0  0  0  0
  1  2  2  0  0  0  0
  2  3  1  0  0  0  0
  3  4  2  0  0  0  0
  3  5  1  0  0  0  0
  5  6  2  0  0  0  0
  6  7  1  0  0  0  0
  7  8  2  0  0  0  0
  8  9  1  0  0  0  0
  9 10  2  0  0  0  0
 10 11  1  0  0  0  0
 11 12  2  0  0  0  0
 12 13  1  0  0  0  0
 13 14  3  0  0  0  0
 12 15  1  0  0  0  0
 15 16  3  0  0  0  0
  8 17  1  0  0  0  0
 17 18  1  0  0  0  0
 18 19  1  0  0  0  0
 19 20  2  0  0  0  0
 20 21  1  0  0  0  0
 21 22  1  0  0  0  0
 21 23  1  0  0  0  0
  1 24  1  0  0  0  0
 24 25  2  0  0  0  0
 25 26  1  0  0  0  0
 26 27  1  0  0  0  0
 27 28  2  0  0  0  0
 28 29  1  0  0  0  0
 29 30  2  0  0  0  0
 30 31  1  0  0  0  0
 31 32  1  0  0  0  0
 30 33  1  0  0  0  0
 33 34  2  0  0  0  0
 26 35  1  0  0  0  0
 35 36  2  0  0  0  0
 36 37  1  0  0  0  0
 37 38  2  0  0  0  0
 38 39  1  0  0  0  0
 39 40  1  0  0  0  0
 38 41  1  0  0  0  0
 41 42  2  0  0  0  0
 25 43  1  0  0  0  0
 43 44  1  0  0  0  0
 44 45  1  0  0  0  0
 45 46  2  0  0  0  0
 46 47  1  0  0  0  0
 47 48  1  0  0  0  0
 48 49  2  0  0  0  0
 49 50  1  0  0  0  0
 50 51  2  0  0  0  0
 51 52  1  0  0  0  0
 52 53  1  0  0  0  0
 51 54  1  0  0  0  0
 54 55  2  0  0  0  0
 47 56  1  0  0  0  0
 56 57  2  0  0  0  0
 57 58  1  0  0  0  0
 58 59  2  0  0  0  0
 59 60  1  0  0  0  0
 60 61  1  0  0  0  0
 59 62  1  0  0  0  0
 62 63  2  0  0  0  0
 46 64  1  0  0  0  0
 64 65  1  0  0  0  0
 45 66  1  0  0  0  0
 66 67  2  0  0  0  0
 67 68  1  0  0  0  0
 68 69  1  0  0  0  0
 69 70  2  0  0  0  0
 70 71  1  0  0  0  0
 71 72  2  0  0  0  0
 72 73  1  0  0  0  0
 73 74  1  0  0  0  0
 72 75  1  0  0  0  0
 75 76  2  0  0  0  0
 68 77  1  0  0  0  0
 77 78  2  0  0  0  0
 78 79  1  0  0  0  0
 79 80  2  0  0  0  0
 80 81  1  0  0  0  0
 81 82  1  0  0  0  0
 80 83  1  0  0  0  0
 83 84  2  0  0  0  0
 67 85  1  0  0  0  0
 85 86  1  0  0  0  0
 86 87  1  0  0  0  0
 87 88  2  0  0  0  0
 88 89  1  0  0  0  0
 89 90  1  0  0  0  0
 90 91  2  0  0  0  0
 91 92  1  0  0  0  0
 92 93  2  0  0  0  0
 93 94  1  0  0  0  0
 94 95  1  0  0  0  0
 93 96  1  0  0  0  0
 96 97  2  0  0  0  0
 89 98  1  0  0  0  0
 98 99  2  0  0  0  0
 99100  1  0  0  0  0
100101  2  0  0  0  0
101102  1  0  0  0  0
102103  1  0  0  0  0
101104  1  0  0  0  0
104105  2  0  0  0  0
 88106  1  0  0  0  0
106107  1  0  0  0  0
 87108  1  0  0  0  0
108109  2  0  0  0  0
109110  1  0  0  0  0
110111  2  0  0  0  0
111112  1  0  0  0  0
112113  2  0  0  0  0
113114  1  0  0  0  0
114115  1  0  0  0  0
115116  2  0  0  0  0
111117  1  0  0  0  0
117118  2  0  0  0  0
118119  1  0  0  0  0
119120  2  0  0  0  0
119121  1  0  0  0  0
121122  2  0  0  0  0
122123  1  0  0  0  0
123124  2  0  0  0  0
124125  1  0  0  0  0
125126  2  0  0  0  0
126127  1  0  0  0  0
127128  2  0  0  0  0
128129  1  0  0  0  0
129130  3  0  0  0  0
128131  1  0  0  0  0
131132  3  0  0  0  0
124133  1  0  0  0  0
133134  1  0  0  0  0
134135  1  0  0  0  0
135136  2  0  0  0  0
136137  1  0  0  0  0
137138  1  0  0  0  0
137139  1  0  0  0  0
 11  2  1  0  0  0  0
 23 17  1  0  0  0  0
 65 24  1  0  0  0  0
107 66  1  0  0  0  0
116108  1  0  0  0  0
127118  1  0  0  0  0
139133  1  0  0  0  0
 10  5  1  0  0  0  0
 22 18  1  0  0  0  0
 34 27  1  0  0  0  0
 42 35  1  0  0  0  0
 64 43  2  0  0  0  0
 76 69  1  0  0  0  0
 84 77  1  0  0  0  0
106 85  2  0  0  0  0
116112  1  0  0  0  0
126121  1  0  0  0  0
138134  1  0  0  0  0
 23  7  1  0  0  0  0
 55 48  1  0  0  0  0
 63 56  1  0  0  0  0
 97 90  1  0  0  0  0
105 98  1  0  0  0  0
139123  1  0  0  0  0
  1140  1  0  0  0  0
  6141  1  0  0  0  0
  9142  1  0  0  0  0
 17143  1  0  0  0  0
 18144  1  0  0  0  0
 19145  1  0  0  0  0
 20146  1  0  0  0  0
 21147  1  0  0  0  0
 22148  1  0  0  0  0
 22149  1  0  0  0  0
 23150  1  0  0  0  0
 28151  1  0  0  0  0
 29152  1  0  0  0  0
 32153  1  0  0  0  0
 32154  1  0  0  0  0
 32155  1  0  0  0  0
 33156  1  0  0  0  0
 34157  1  0  0  0  0
 36158  1  0  0  0  0
 37159  1  0  0  0  0
 40160  1  0  0  0  0
 40161  1  0  0  0  0
 40162  1  0  0  0  0
 41163  1  0  0  0  0
 42164  1  0  0  0  0
 49165  1  0  0  0  0
 50166  1  0  0  0  0
 53167  1  0  0  0  0
 53168  1  0  0  0  0
 53169  1  0  0  0  0
 54170  1  0  0  0  0
 55171  1  0  0  0  0
 57172  1  0  0  0  0
 58173  1  0  0  0  0
 61174  1  0  0  0  0
 61175  1  0  0  0  0
 61176  1  0  0  0  0
 62177  1  0  0  0  0
 63178  1  0  0  0  0
 70179  1  0  0  0  0
 71180  1  0  0  0  0
 74181  1  0  0  0  0
 74182  1  0  0  0  0
 74183  1  0  0  0  0
 75184  1  0  0  0  0
 76185  1  0  0  0  0
 78186  1  0  0  0  0
 79187  1  0  0  0  0
 82188  1  0  0  0  0
 82189  1  0  0  0  0
 82190  1  0  0  0  0
 83191  1  0  0  0  0
 84192  1  0  0  0  0
 91193  1  0  0  0  0
 92194  1  0  0  0  0
 95195  1  0  0  0  0
 95196  1  0  0  0  0
 95197  1  0  0  0  0
 96198  1  0  0  0  0
 97199  1  0  0  0  0
 99200  1  0  0  0  0
100201  1  0  0  0  0
103202  1  0  0  0  0
103203  1  0  0  0  0
103204  1  0  0  0  0
104205  1  0  0  0  0
105206  1  0  0  0  0
109207  1  0  0  0  0
110208  1  0  0  0  0
117209  1  0  0  0  0
122210  1  0  0  0  0
125211  1  0  0  0  0
133212  1  0  0  0  0
134213  1  0  0  0  0
135214  1  0  0  0  0
136215  1  0  0  0  0
137216  1  0  0  0  0
138217  1  0  0  0  0
138218  1  0  0  0  0
139219  1  0  0  0  0
M  END
