145

C         -3.07160       -0.49390        6.25980
C         -3.12840        0.84580        6.45600
C         -2.41440        1.85420        5.62470
O         -1.67490        1.65200        4.68650
C         -2.72090        3.16070        6.23000
C         -2.29180        4.40570        5.77380
C         -2.74500        5.46260        6.52430
C         -3.56100        5.29440        7.65210
C         -3.97890        4.07240        8.12110
C         -3.53080        2.97990        7.36890
C         -3.76150        1.55130        7.56060
C         -4.45430        0.98860        8.59900
C         -4.64480       -0.39470        8.80280
N         -4.83350       -1.49930        9.05480
C         -5.06030        1.71560        9.64600
N         -5.57550        2.23670       10.52980
C         -3.65070        6.77880        7.90640
C         -4.96280        7.47170        7.48070
C         -4.58910        8.93420        7.39880
C         -3.81430        9.09380        6.33350
C         -3.65120        7.74180        5.67750
C         -5.02450        7.13140        5.98590
C         -2.73910        6.96540        6.65110
C         -2.52810       -1.13850        5.08960
C         -1.65450       -2.23400        5.23290
C         -1.20520       -2.85200        6.43340
C         -0.34590       -3.87800        6.22920
C          0.32230       -4.73270        7.24850
C          1.82550       -4.45360        7.30330
S         -0.00860       -4.13110        4.53490
C         -1.06060       -2.81920        4.09340
C         -1.33820       -2.39830        2.80180
C         -2.26530       -1.35660        2.64780
C         -2.84140       -0.75260        3.78610
S         -4.01940        0.43590        3.32500
C         -3.68870        0.17320        1.63260
C         -4.46730        0.90980        0.59950
C         -5.85920        0.29340        0.43920
C         -2.74240       -0.77110        1.44000
C         -0.67410       -2.95430        1.62660
C         -1.33940       -3.44940        0.53040
C         -2.78570       -3.72310        0.35950
O         -3.69080       -3.61650        1.14860
N         -2.92540       -4.17970       -0.94200
C         -4.20080       -4.52370       -1.53130
C         -4.71940       -3.38180       -2.39840
C         -1.72820       -4.25220       -1.63490
O         -1.60690       -4.67580       -2.75670
C         -0.69600       -3.75890       -0.69350
C          0.65120       -3.58820       -0.90330
C          1.39460       -3.21530        0.24820
C          0.73970       -2.89990        1.49540
N          1.60930       -2.50780        2.42230
S          3.08970       -2.54680        1.80470
N          2.71180       -3.04430        0.32540
C          1.27120       -3.59090       -2.22590
C          2.39630       -4.35840       -2.54600
C          3.04370       -5.35060       -1.75310
C          4.12150       -5.90230       -2.35010
C          5.04790       -6.96040       -1.85600
C          4.80160       -7.34190       -0.40140
S          4.41150       -5.22110       -3.93970
C          3.01980       -4.19250       -3.79970
C          2.60320       -3.25190       -4.74540
C          1.42080       -2.54500       -4.45070
C          0.79360       -2.72260       -3.20010
S         -0.58280       -1.67030       -3.03610
C         -0.37620       -1.08440       -4.66560
C         -1.34590       -0.10280       -5.22490
C         -2.77220       -0.65340       -5.21630
C          0.70070       -1.63490       -5.27200
C          3.37220       -3.04210       -5.94020
C          3.67580       -1.83130       -6.47540
C          3.54510       -0.53240       -5.76030
O          3.03580       -0.31830       -4.68120
C          4.25480        0.45270       -6.59650
C          4.43330        1.80480       -6.30950
C          5.13780        2.49150       -7.26770
C          5.63870        1.87760       -8.42440
C          5.48030        0.54360       -8.71400
C          4.75760       -0.17390       -7.75410
C          4.38510       -1.58440       -7.71980
C          4.59250       -2.49580       -8.72030
C          5.25630       -2.21380       -9.93250
N          5.78560       -2.05110      -10.93830
C          4.14180       -3.83350       -8.69840
N          3.78980       -4.92400       -8.77020
C          6.23070        3.16360       -8.94590
C          5.44900        3.87330      -10.07200
C          5.97530        5.29000      -10.04020
C          5.50390        5.87130       -8.94450
C          4.65090        4.85710       -8.21730
C          4.07930        4.08650       -9.41440
C          5.67380        3.84680       -7.65580
H         -3.42540       -1.16010        7.03580
H         -1.66260        4.48650        4.90130
H         -4.59860        3.96160        8.99490
H         -3.28410        7.11890        8.87290
H         -5.82760        7.22050        8.08840
H         -4.87190        9.66760        8.13090
H         -3.32040        9.98690        5.99810
H         -3.32090        7.73660        4.64220
H         -5.09420        6.06590        5.77510
H         -5.83150        7.65660        5.47780
H         -1.76230        7.42780        6.78050
H         -1.52760       -2.54760        7.41320
H          0.16290       -5.78550        7.00250
H         -0.12770       -4.53590        8.22350
H          2.00750       -3.41170        7.55650
H          2.28120       -4.65920        6.33740
H          2.29770       -5.08240        8.05370
H         -4.56690        1.95890        0.88660
H         -3.92940        0.85940       -0.34980
H         -5.77630       -0.76160        0.18810
H         -6.41030        0.80090       -0.34860
H         -6.41730        0.38010        1.36840
H         -2.38800       -1.04940        0.46310
H         -4.88890       -4.73030       -0.70840
H         -4.06120       -5.42310       -2.13630
H         -5.68300       -3.64790       -2.82320
H         -4.83540       -2.47860       -1.80300
H         -4.02080       -3.18500       -3.20820
H          2.69460       -5.62190       -0.77460
H          4.94110       -7.84570       -2.49140
H          6.07660       -6.60750       -1.97500
H          5.52940       -8.08560       -0.08660
H          4.89650       -6.47070        0.24230
H          3.80680       -7.76240       -0.27690
H         -1.31290        0.81570       -4.63190
H         -1.04550        0.14170       -6.24590
H         -2.82470       -1.57590       -5.78980
H         -3.45800        0.06820       -5.65300
H         -3.08850       -0.86140       -4.19660
H          0.97750       -1.41000       -6.28680
H          3.79640       -3.93720       -6.38130
H          4.03490        2.23400       -5.40350
H          5.88380        0.08310       -9.60030
H          7.30620        3.15970       -9.11170
H          5.47070        3.36400      -11.03150
H          6.65840        5.69270      -10.76480
H          5.71450        6.85620       -8.57080
H          3.94550        5.24460       -7.48690
H          3.56750        3.16430       -9.14520
H          3.42150        4.70310      -10.02470
H          6.37830        4.29670       -6.95870
