
  xtb     02172219543D
 energy: -221.833321607361 gnorm: 0.000320973945 xtb: 6.4.1 (unknown)
119131  0     0  0            999 V2000
    1.3326   -3.9294   -3.9375 C   0  0  0  0  0  0  0  0  0  0  0  0
    2.6428   -3.6682   -3.7859 C   0  0  0  0  0  0  0  0  0  0  0  0
    3.2073   -2.9801   -2.5842 C   0  0  0  0  0  0  0  0  0  0  0  0
    2.6218   -2.6697   -1.5711 O   0  0  0  0  0  0  0  0  0  0  0  0
    4.6043   -2.6746   -2.9241 C   0  0  0  0  0  0  0  0  0  0  0  0
    5.5142   -1.9732   -2.1330 C   0  0  0  0  0  0  0  0  0  0  0  0
    6.7441   -1.7970   -2.7171 C   0  0  0  0  0  0  0  0  0  0  0  0
    7.0499   -2.2786   -3.9991 C   0  0  0  0  0  0  0  0  0  0  0  0
    6.1637   -2.9675   -4.7909 C   0  0  0  0  0  0  0  0  0  0  0  0
    4.9026   -3.1632   -4.2139 C   0  0  0  0  0  0  0  0  0  0  0  0
    3.7223   -3.8232   -4.7568 C   0  0  0  0  0  0  0  0  0  0  0  0
    3.6457   -4.5039   -5.9383 C   0  0  0  0  0  0  0  0  0  0  0  0
    4.7194   -4.6617   -6.8421 C   0  0  0  0  0  0  0  0  0  0  0  0
    5.5492   -4.8237   -7.6178 N   0  0  0  0  0  0  0  0  0  0  0  0
    2.4883   -5.1597   -6.4142 C   0  0  0  0  0  0  0  0  0  0  0  0
    1.5921   -5.7169   -6.8646 N   0  0  0  0  0  0  0  0  0  0  0  0
    8.4560   -1.7352   -3.9537 C   0  0  0  0  0  0  0  0  0  0  0  0
    9.5817   -2.7541   -3.6760 C   0  0  0  0  0  0  0  0  0  0  0  0
   10.7397   -1.8960   -3.2195 C   0  0  0  0  0  0  0  0  0  0  0  0
   10.4509   -1.4398   -2.0074 C   0  0  0  0  0  0  0  0  0  0  0  0
    9.0928   -1.9818   -1.6240 C   0  0  0  0  0  0  0  0  0  0  0  0
    9.1431   -3.3434   -2.3291 C   0  0  0  0  0  0  0  0  0  0  0  0
    8.1150   -1.1990   -2.5261 C   0  0  0  0  0  0  0  0  0  0  0  0
    0.3793   -3.7003   -2.8553 C   0  0  0  0  0  0  0  0  0  0  0  0
    0.3939   -4.4253   -1.6864 C   0  0  0  0  0  0  0  0  0  0  0  0
    1.2428   -5.4556   -1.5551 F   0  0  0  0  0  0  0  0  0  0  0  0
   -0.4620   -4.1252   -0.6134 C   0  0  0  0  0  0  0  0  0  0  0  0
   -0.4439   -4.9411    0.4477 F   0  0  0  0  0  0  0  0  0  0  0  0
   -1.3119   -3.0415   -0.6582 C   0  0  0  0  0  0  0  0  0  0  0  0
   -1.3682   -2.2913   -1.8622 C   0  0  0  0  0  0  0  0  0  0  0  0
   -2.1562   -1.2061   -1.9364 N   0  0  0  0  0  0  0  0  0  0  0  0
   -2.2472   -0.5498   -3.0644 C   0  0  0  0  0  0  0  0  0  0  0  0
   -3.2064    0.5998   -3.0722 C   0  0  0  0  0  0  0  0  0  0  0  0
   -4.6100    0.0891   -3.4126 C   0  0  0  0  0  0  0  0  0  0  0  0
   -1.5046   -0.9680   -4.2086 C   0  0  0  0  0  0  0  0  0  0  0  0
   -0.6649   -1.9699   -4.1287 N   0  0  0  0  0  0  0  0  0  0  0  0
   -0.5669   -2.6521   -2.9735 C   0  0  0  0  0  0  0  0  0  0  0  0
   -1.5727   -0.2697   -5.5323 C   0  0  0  0  0  0  0  0  0  0  0  0
   -0.5472    0.8660   -5.5852 C   0  0  0  0  0  0  0  0  0  0  0  0
   -2.0294   -2.5414    0.5137 C   0  0  0  0  0  0  0  0  0  0  0  0
   -3.3454   -2.1361    0.4801 C   0  0  0  0  0  0  0  0  0  0  0  0
   -4.1213   -2.4037   -0.5787 F   0  0  0  0  0  0  0  0  0  0  0  0
   -3.9303   -1.4571    1.5603 C   0  0  0  0  0  0  0  0  0  0  0  0
   -5.2085   -1.0663    1.4341 F   0  0  0  0  0  0  0  0  0  0  0  0
   -3.2438   -1.1955    2.7312 C   0  0  0  0  0  0  0  0  0  0  0  0
   -1.9075   -1.6800    2.8232 C   0  0  0  0  0  0  0  0  0  0  0  0
   -1.1974   -1.4874    3.9474 N   0  0  0  0  0  0  0  0  0  0  0  0
    0.0431   -1.9044    4.0114 C   0  0  0  0  0  0  0  0  0  0  0  0
    0.7267   -1.7115    5.3300 C   0  0  0  0  0  0  0  0  0  0  0  0
    0.6914   -3.0088    6.1425 C   0  0  0  0  0  0  0  0  0  0  0  0
    0.6637   -2.5149    2.8807 C   0  0  0  0  0  0  0  0  0  0  0  0
   -0.0127   -2.6850    1.7744 N   0  0  0  0  0  0  0  0  0  0  0  0
   -1.3011   -2.3178    1.7131 C   0  0  0  0  0  0  0  0  0  0  0  0
    2.0931   -2.9613    2.8386 C   0  0  0  0  0  0  0  0  0  0  0  0
    2.8942   -2.1081    1.8527 C   0  0  0  0  0  0  0  0  0  0  0  0
   -3.8081   -0.4017    3.7967 C   0  0  0  0  0  0  0  0  0  0  0  0
   -3.5929   -0.5400    5.1639 C   0  0  0  0  0  0  0  0  0  0  0  0
   -4.1547    0.3829    5.9203 N   0  0  0  0  0  0  0  0  0  0  0  0
   -4.7930    1.3002    5.2254 C   0  0  0  0  0  0  0  0  0  0  0  0
   -4.7605    0.9973    3.4892 S   0  0  0  0  0  0  0  0  0  0  0  0
   -5.3905    2.3866    5.8929 C   0  0  0  0  0  0  0  0  0  0  0  0
   -5.9339    3.5311    5.3790 C   0  0  0  0  0  0  0  0  0  0  0  0
   -5.9440    3.9077    3.9566 C   0  0  0  0  0  0  0  0  0  0  0  0
   -5.6657    3.2100    2.9997 O   0  0  0  0  0  0  0  0  0  0  0  0
   -6.3453    5.3245    3.9126 C   0  0  0  0  0  0  0  0  0  0  0  0
   -6.4272    6.1516    2.8300 C   0  0  0  0  0  0  0  0  0  0  0  0
   -6.8138    7.4960    3.0240 C   0  0  0  0  0  0  0  0  0  0  0  0
   -6.9034    8.3962    1.9446 C   0  0  0  0  0  0  0  0  0  0  0  0
   -7.2712    9.6945    2.1610 C   0  0  0  0  0  0  0  0  0  0  0  0
   -7.3523   10.5511    1.1340 F   0  0  0  0  0  0  0  0  0  0  0  0
   -7.5669   10.1473    3.4627 C   0  0  0  0  0  0  0  0  0  0  0  0
   -7.9238   11.4251    3.6445 F   0  0  0  0  0  0  0  0  0  0  0  0
   -7.4901    9.2966    4.5297 C   0  0  0  0  0  0  0  0  0  0  0  0
   -7.1120    7.9520    4.3409 C   0  0  0  0  0  0  0  0  0  0  0  0
   -7.0244    7.0675    5.4407 C   0  0  0  0  0  0  0  0  0  0  0  0
   -6.6452    5.7677    5.2308 C   0  0  0  0  0  0  0  0  0  0  0  0
   -6.4546    4.6483    6.1508 C   0  0  0  0  0  0  0  0  0  0  0  0
   -6.7602    4.6580    7.4845 C   0  0  0  0  0  0  0  0  0  0  0  0
   -6.6433    3.5581    8.3629 C   0  0  0  0  0  0  0  0  0  0  0  0
   -6.5973    2.7169    9.1422 N   0  0  0  0  0  0  0  0  0  0  0  0
   -7.2736    5.7837    8.1642 C   0  0  0  0  0  0  0  0  0  0  0  0
   -7.6879    6.6661    8.7698 N   0  0  0  0  0  0  0  0  0  0  0  0
    0.9192   -4.2471   -4.8848 H   0  0  0  0  0  0  0  0  0  0  0  0
    5.2318   -1.6126   -1.1562 H   0  0  0  0  0  0  0  0  0  0  0  0
    6.4095   -3.3182   -5.7793 H   0  0  0  0  0  0  0  0  0  0  0  0
    8.7122   -1.0198   -4.7326 H   0  0  0  0  0  0  0  0  0  0  0  0
    9.7768   -3.4486   -4.4882 H   0  0  0  0  0  0  0  0  0  0  0  0
   11.5965   -1.6722   -3.8273 H   0  0  0  0  0  0  0  0  0  0  0  0
   11.0180   -0.7586   -1.4006 H   0  0  0  0  0  0  0  0  0  0  0  0
    8.8430   -1.9728   -0.5665 H   0  0  0  0  0  0  0  0  0  0  0  0
    9.8994   -3.9995   -1.9020 H   0  0  0  0  0  0  0  0  0  0  0  0
    8.1871   -3.8626   -2.3612 H   0  0  0  0  0  0  0  0  0  0  0  0
    8.1424   -0.1250   -2.3520 H   0  0  0  0  0  0  0  0  0  0  0  0
   -2.9003    1.3637   -3.7861 H   0  0  0  0  0  0  0  0  0  0  0  0
   -3.2244    1.0335   -2.0716 H   0  0  0  0  0  0  0  0  0  0  0  0
   -5.3205    0.9114   -3.3948 H   0  0  0  0  0  0  0  0  0  0  0  0
   -4.6300   -0.3676   -4.4000 H   0  0  0  0  0  0  0  0  0  0  0  0
   -4.9174   -0.6554   -2.6830 H   0  0  0  0  0  0  0  0  0  0  0  0
   -1.3350   -0.9965   -6.3098 H   0  0  0  0  0  0  0  0  0  0  0  0
   -2.5738    0.1227   -5.7086 H   0  0  0  0  0  0  0  0  0  0  0  0
    0.4541    0.4678   -5.4401 H   0  0  0  0  0  0  0  0  0  0  0  0
   -0.7387    1.6030   -4.8082 H   0  0  0  0  0  0  0  0  0  0  0  0
   -0.5889    1.3616   -6.5518 H   0  0  0  0  0  0  0  0  0  0  0  0
    0.1906   -0.9331    5.8740 H   0  0  0  0  0  0  0  0  0  0  0  0
    1.7586   -1.3903    5.1824 H   0  0  0  0  0  0  0  0  0  0  0  0
    1.1797   -2.8604    7.1022 H   0  0  0  0  0  0  0  0  0  0  0  0
    1.1960   -3.8152    5.6153 H   0  0  0  0  0  0  0  0  0  0  0  0
   -0.3383   -3.3086    6.3209 H   0  0  0  0  0  0  0  0  0  0  0  0
    2.1070   -3.9961    2.4909 H   0  0  0  0  0  0  0  0  0  0  0  0
    2.5476   -2.9180    3.8271 H   0  0  0  0  0  0  0  0  0  0  0  0
    2.8722   -1.0602    2.1470 H   0  0  0  0  0  0  0  0  0  0  0  0
    2.4775   -2.2012    0.8536 H   0  0  0  0  0  0  0  0  0  0  0  0
    3.9289   -2.4421    1.8334 H   0  0  0  0  0  0  0  0  0  0  0  0
   -3.0290   -1.3339    5.6162 H   0  0  0  0  0  0  0  0  0  0  0  0
   -5.3316    2.2820    6.9698 H   0  0  0  0  0  0  0  0  0  0  0  0
   -6.1949    5.7859    1.8414 H   0  0  0  0  0  0  0  0  0  0  0  0
   -6.6802    8.0645    0.9427 H   0  0  0  0  0  0  0  0  0  0  0  0
   -7.7207    9.6599    5.5190 H   0  0  0  0  0  0  0  0  0  0  0  0
   -7.2520    7.4461    6.4239 H   0  0  0  0  0  0  0  0  0  0  0  0
  1  2  2  0  0  0  0
  2  3  1  0  0  0  0
  3  4  2  0  0  0  0
  3  5  1  0  0  0  0
  5  6  2  0  0  0  0
  6  7  1  0  0  0  0
  7  8  2  0  0  0  0
  8  9  1  0  0  0  0
  9 10  2  0  0  0  0
 10 11  1  0  0  0  0
 11 12  2  0  0  0  0
 12 13  1  0  0  0  0
 13 14  3  0  0  0  0
 12 15  1  0  0  0  0
 15 16  3  0  0  0  0
  8 17  1  0  0  0  0
 17 18  1  0  0  0  0
 18 19  1  0  0  0  0
 19 20  2  0  0  0  0
 20 21  1  0  0  0  0
 21 22  1  0  0  0  0
 21 23  1  0  0  0  0
  1 24  1  0  0  0  0
 24 25  2  0  0  0  0
 25 26  1  0  0  0  0
 25 27  1  0  0  0  0
 27 28  1  0  0  0  0
 27 29  2  0  0  0  0
 29 30  1  0  0  0  0
 30 31  2  0  0  0  0
 31 32  1  0  0  0  0
 32 33  1  0  0  0  0
 33 34  1  0  0  0  0
 32 35  2  0  0  0  0
 35 36  1  0  0  0  0
 36 37  2  0  0  0  0
 35 38  1  0  0  0  0
 38 39  1  0  0  0  0
 29 40  1  0  0  0  0
 40 41  2  0  0  0  0
 41 42  1  0  0  0  0
 41 43  1  0  0  0  0
 43 44  1  0  0  0  0
 43 45  2  0  0  0  0
 45 46  1  0  0  0  0
 46 47  2  0  0  0  0
 47 48  1  0  0  0  0
 48 49  1  0  0  0  0
 49 50  1  0  0  0  0
 48 51  2  0  0  0  0
 51 52  1  0  0  0  0
 52 53  2  0  0  0  0
 51 54  1  0  0  0  0
 54 55  1  0  0  0  0
 45 56  1  0  0  0  0
 56 57  2  0  0  0  0
 57 58  1  0  0  0  0
 58 59  2  0  0  0  0
 59 60  1  0  0  0  0
 59 61  1  0  0  0  0
 61 62  2  0  0  0  0
 62 63  1  0  0  0  0
 63 64  2  0  0  0  0
 63 65  1  0  0  0  0
 65 66  2  0  0  0  0
 66 67  1  0  0  0  0
 67 68  2  0  0  0  0
 68 69  1  0  0  0  0
 69 70  1  0  0  0  0
 69 71  2  0  0  0  0
 71 72  1  0  0  0  0
 71 73  1  0  0  0  0
 73 74  2  0  0  0  0
 74 75  1  0  0  0  0
 75 76  2  0  0  0  0
 76 77  1  0  0  0  0
 77 78  2  0  0  0  0
 78 79  1  0  0  0  0
 79 80  3  0  0  0  0
 78 81  1  0  0  0  0
 81 82  3  0  0  0  0
 11  2  1  0  0  0  0
 23 17  1  0  0  0  0
 37 24  1  0  0  0  0
 53 40  1  0  0  0  0
 60 56  1  0  0  0  0
 77 62  1  0  0  0  0
 10  5  1  0  0  0  0
 22 18  1  0  0  0  0
 37 30  1  0  0  0  0
 53 46  1  0  0  0  0
 76 65  1  0  0  0  0
 23  7  1  0  0  0  0
 74 67  1  0  0  0  0
  1 83  1  0  0  0  0
  6 84  1  0  0  0  0
  9 85  1  0  0  0  0
 17 86  1  0  0  0  0
 18 87  1  0  0  0  0
 19 88  1  0  0  0  0
 20 89  1  0  0  0  0
 21 90  1  0  0  0  0
 22 91  1  0  0  0  0
 22 92  1  0  0  0  0
 23 93  1  0  0  0  0
 33 94  1  0  0  0  0
 33 95  1  0  0  0  0
 34 96  1  0  0  0  0
 34 97  1  0  0  0  0
 34 98  1  0  0  0  0
 38 99  1  0  0  0  0
 38100  1  0  0  0  0
 39101  1  0  0  0  0
 39102  1  0  0  0  0
 39103  1  0  0  0  0
 49104  1  0  0  0  0
 49105  1  0  0  0  0
 50106  1  0  0  0  0
 50107  1  0  0  0  0
 50108  1  0  0  0  0
 54109  1  0  0  0  0
 54110  1  0  0  0  0
 55111  1  0  0  0  0
 55112  1  0  0  0  0
 55113  1  0  0  0  0
 57114  1  0  0  0  0
 61115  1  0  0  0  0
 66116  1  0  0  0  0
 68117  1  0  0  0  0
 73118  1  0  0  0  0
 75119  1  0  0  0  0
M  END
