
  xtb     02062217153D
 energy: -449.260189742408 gnorm: 0.000528255291 xtb: 6.4.1 (unknown)
271295  0     0  0            999 V2000
   -4.6949   -4.4893   -6.1207 C   0  0  0  0  0  0  0  0  0  0  0  0
   -5.8225   -4.2517   -6.8545 C   0  0  0  0  0  0  0  0  0  0  0  0
   -6.7321   -5.3616   -7.2239 C   0  0  0  0  0  0  0  0  0  0  0  0
   -6.4762   -6.5468   -7.2265 O   0  0  0  0  0  0  0  0  0  0  0  0
   -8.0314   -4.7147   -7.5122 C   0  0  0  0  0  0  0  0  0  0  0  0
   -9.2498   -5.3370   -7.7768 C   0  0  0  0  0  0  0  0  0  0  0  0
  -10.2999   -4.4652   -7.9446 C   0  0  0  0  0  0  0  0  0  0  0  0
  -10.1575   -3.0747   -7.8464 C   0  0  0  0  0  0  0  0  0  0  0  0
   -8.9600   -2.4427   -7.6101 C   0  0  0  0  0  0  0  0  0  0  0  0
   -7.8806   -3.3128   -7.4482 C   0  0  0  0  0  0  0  0  0  0  0  0
   -6.4694   -3.0157   -7.2259 C   0  0  0  0  0  0  0  0  0  0  0  0
   -5.8330   -1.8532   -7.5852 C   0  0  0  0  0  0  0  0  0  0  0  0
   -4.4285   -1.7633   -7.6634 C   0  0  0  0  0  0  0  0  0  0  0  0
   -3.2887   -1.6888   -7.7865 N   0  0  0  0  0  0  0  0  0  0  0  0
   -6.4914   -0.6716   -7.9688 C   0  0  0  0  0  0  0  0  0  0  0  0
   -6.9726    0.3304   -8.2589 N   0  0  0  0  0  0  0  0  0  0  0  0
  -11.6260   -2.8262   -8.0780 C   0  0  0  0  0  0  0  0  0  0  0  0
  -12.4714   -2.5008   -6.8280 C   0  0  0  0  0  0  0  0  0  0  0  0
  -13.8899   -2.7679   -7.2762 C   0  0  0  0  0  0  0  0  0  0  0  0
  -14.0338   -4.0815   -7.3982 C   0  0  0  0  0  0  0  0  0  0  0  0
  -12.7165   -4.7251   -7.0296 C   0  0  0  0  0  0  0  0  0  0  0  0
  -12.2331   -3.7413   -5.9569 C   0  0  0  0  0  0  0  0  0  0  0  0
  -11.7846   -4.3750   -8.2081 C   0  0  0  0  0  0  0  0  0  0  0  0
   -4.0286   -3.5899   -5.2705 C   0  0  0  0  0  0  0  0  0  0  0  0
   -2.8561   -3.8284   -4.5361 C   0  0  0  0  0  0  0  0  0  0  0  0
   -2.0099   -4.8856   -4.7250 N   0  0  0  0  0  0  0  0  0  0  0  0
   -1.2005   -5.3177   -3.6577 C   0  0  0  0  0  0  0  0  0  0  0  0
   -1.7626   -5.5577   -2.4076 C   0  0  0  0  0  0  0  0  0  0  0  0
   -0.9787   -5.9975   -1.3583 C   0  0  0  0  0  0  0  0  0  0  0  0
    0.3828   -6.1936   -1.5415 C   0  0  0  0  0  0  0  0  0  0  0  0
    1.4712   -6.7336   -0.2650 S   0  0  0  0  0  0  0  0  0  0  0  0
    0.3586   -7.3134    1.0458 C   0  0  0  0  0  0  0  0  0  0  0  0
    0.9477   -5.9537   -2.7937 C   0  0  0  0  0  0  0  0  0  0  0  0
    0.1657   -5.5274   -3.8431 C   0  0  0  0  0  0  0  0  0  0  0  0
   -1.8151   -5.4642   -5.9953 C   0  0  0  0  0  0  0  0  0  0  0  0
   -1.7920   -4.6791   -7.1483 C   0  0  0  0  0  0  0  0  0  0  0  0
   -1.6030   -5.2701   -8.3759 C   0  0  0  0  0  0  0  0  0  0  0  0
   -1.4223   -6.6494   -8.4826 C   0  0  0  0  0  0  0  0  0  0  0  0
   -1.1882   -7.2862  -10.1091 S   0  0  0  0  0  0  0  0  0  0  0  0
   -1.2153   -9.0875   -9.8806 C   0  0  0  0  0  0  0  0  0  0  0  0
   -1.4215   -7.4276   -7.3330 C   0  0  0  0  0  0  0  0  0  0  0  0
   -1.6183   -6.8365   -6.0996 C   0  0  0  0  0  0  0  0  0  0  0  0
   -2.6204   -2.7868   -3.6082 C   0  0  0  0  0  0  0  0  0  0  0  0
   -1.3867   -2.4438   -2.4515 S   0  0  0  0  0  0  0  0  0  0  0  0
   -2.1192   -0.8735   -2.0797 C   0  0  0  0  0  0  0  0  0  0  0  0
   -3.2390   -0.6325   -2.8535 C   0  0  0  0  0  0  0  0  0  0  0  0
   -4.0241    0.5141   -2.8507 N   0  0  0  0  0  0  0  0  0  0  0  0
   -3.4512    1.7754   -3.0650 C   0  0  0  0  0  0  0  0  0  0  0  0
   -2.2651    1.9311   -3.7799 C   0  0  0  0  0  0  0  0  0  0  0  0
   -1.7947    3.1934   -4.0838 C   0  0  0  0  0  0  0  0  0  0  0  0
   -2.5121    4.3119   -3.6872 C   0  0  0  0  0  0  0  0  0  0  0  0
   -2.0363    5.9448   -4.1858 S   0  0  0  0  0  0  0  0  0  0  0  0
   -1.6570    5.6609   -5.9452 C   0  0  0  0  0  0  0  0  0  0  0  0
   -3.6580    4.1656   -2.9147 C   0  0  0  0  0  0  0  0  0  0  0  0
   -4.1229    2.9069   -2.6030 C   0  0  0  0  0  0  0  0  0  0  0  0
   -5.3810    0.3237   -3.1882 C   0  0  0  0  0  0  0  0  0  0  0  0
   -5.9967    1.0367   -4.2171 C   0  0  0  0  0  0  0  0  0  0  0  0
   -7.2884    0.7373   -4.5895 C   0  0  0  0  0  0  0  0  0  0  0  0
   -7.9960   -0.2780   -3.9473 C   0  0  0  0  0  0  0  0  0  0  0  0
   -9.6184   -0.6214   -4.5508 S   0  0  0  0  0  0  0  0  0  0  0  0
  -10.2443   -1.8848   -3.4067 C   0  0  0  0  0  0  0  0  0  0  0  0
   -7.3992   -0.9694   -2.9029 C   0  0  0  0  0  0  0  0  0  0  0  0
   -6.1049   -0.6651   -2.5291 C   0  0  0  0  0  0  0  0  0  0  0  0
   -3.5321   -1.7487   -3.6763 C   0  0  0  0  0  0  0  0  0  0  0  0
   -4.7735   -2.0545   -4.8279 S   0  0  0  0  0  0  0  0  0  0  0  0
   -1.4581   -0.1555   -1.0328 C   0  0  0  0  0  0  0  0  0  0  0  0
   -1.0085   -0.8087    0.1060 C   0  0  0  0  0  0  0  0  0  0  0  0
   -1.4713   -2.0534    0.5128 N   0  0  0  0  0  0  0  0  0  0  0  0
   -0.6065   -2.8886    1.2293 C   0  0  0  0  0  0  0  0  0  0  0  0
   -1.0335   -3.5505    2.3805 C   0  0  0  0  0  0  0  0  0  0  0  0
   -0.1489   -4.3216    3.1004 C   0  0  0  0  0  0  0  0  0  0  0  0
    1.1811   -4.4458    2.6970 C   0  0  0  0  0  0  0  0  0  0  0  0
    2.2217   -5.4377    3.7220 S   0  0  0  0  0  0  0  0  0  0  0  0
    3.7160   -5.6708    2.7247 C   0  0  0  0  0  0  0  0  0  0  0  0
    1.6047   -3.7992    1.5441 C   0  0  0  0  0  0  0  0  0  0  0  0
    0.7151   -3.0346    0.8151 C   0  0  0  0  0  0  0  0  0  0  0  0
   -2.8519   -2.2926    0.4868 C   0  0  0  0  0  0  0  0  0  0  0  0
   -3.3337   -3.5753    0.2309 C   0  0  0  0  0  0  0  0  0  0  0  0
   -4.6885   -3.8134    0.1659 C   0  0  0  0  0  0  0  0  0  0  0  0
   -5.5976   -2.7772    0.3674 C   0  0  0  0  0  0  0  0  0  0  0  0
   -7.3119   -3.1751    0.2019 S   0  0  0  0  0  0  0  0  0  0  0  0
   -8.1631   -1.6885    0.8059 C   0  0  0  0  0  0  0  0  0  0  0  0
   -5.1240   -1.5018    0.6472 C   0  0  0  0  0  0  0  0  0  0  0  0
   -3.7651   -1.2640    0.7018 C   0  0  0  0  0  0  0  0  0  0  0  0
   -0.1313   -0.0045    0.8535 C   0  0  0  0  0  0  0  0  0  0  0  0
    0.7939   -0.2917    2.2705 S   0  0  0  0  0  0  0  0  0  0  0  0
    1.4068    1.3611    2.2225 C   0  0  0  0  0  0  0  0  0  0  0  0
    0.8477    2.0952    1.1723 C   0  0  0  0  0  0  0  0  0  0  0  0
    1.0559    3.4471    0.9503 N   0  0  0  0  0  0  0  0  0  0  0  0
    1.1743    3.8737   -0.3824 C   0  0  0  0  0  0  0  0  0  0  0  0
    0.5572    5.0387   -0.8291 C   0  0  0  0  0  0  0  0  0  0  0  0
    0.7144    5.4624   -2.1322 C   0  0  0  0  0  0  0  0  0  0  0  0
    1.4746    4.7116   -3.0186 C   0  0  0  0  0  0  0  0  0  0  0  0
    1.7399    5.1839   -4.7008 S   0  0  0  0  0  0  0  0  0  0  0  0
    1.5130    6.9861   -4.6562 C   0  0  0  0  0  0  0  0  0  0  0  0
    2.0545    3.5211   -2.5919 C   0  0  0  0  0  0  0  0  0  0  0  0
    1.9135    3.1097   -1.2851 C   0  0  0  0  0  0  0  0  0  0  0  0
    0.9647    4.3651    1.9978 C   0  0  0  0  0  0  0  0  0  0  0  0
    1.6104    5.6000    1.9082 C   0  0  0  0  0  0  0  0  0  0  0  0
    1.4917    6.5315    2.9160 C   0  0  0  0  0  0  0  0  0  0  0  0
    0.7438    6.2383    4.0476 C   0  0  0  0  0  0  0  0  0  0  0  0
    0.5561    7.4061    5.3701 S   0  0  0  0  0  0  0  0  0  0  0  0
    0.2010    8.9317    4.4415 C   0  0  0  0  0  0  0  0  0  0  0  0
    0.1351    4.9962    4.1677 C   0  0  0  0  0  0  0  0  0  0  0  0
    0.2333    4.0714    3.1502 C   0  0  0  0  0  0  0  0  0  0  0  0
    0.0152    1.2849    0.3662 C   0  0  0  0  0  0  0  0  0  0  0  0
   -0.9111    1.5196   -1.0883 S   0  0  0  0  0  0  0  0  0  0  0  0
    2.4935    1.6768    3.0682 C   0  0  0  0  0  0  0  0  0  0  0  0
    3.0344    0.8168    4.0288 C   0  0  0  0  0  0  0  0  0  0  0  0
    2.4078   -0.3265    4.5155 N   0  0  0  0  0  0  0  0  0  0  0  0
    1.1260   -0.2469    5.0697 C   0  0  0  0  0  0  0  0  0  0  0  0
    0.6117    0.9647    5.5236 C   0  0  0  0  0  0  0  0  0  0  0  0
   -0.6814    1.0489    6.0033 C   0  0  0  0  0  0  0  0  0  0  0  0
   -1.4823   -0.0829    6.0485 C   0  0  0  0  0  0  0  0  0  0  0  0
   -3.1578   -0.0868    6.6113 S   0  0  0  0  0  0  0  0  0  0  0  0
   -3.3472    1.5302    7.4163 C   0  0  0  0  0  0  0  0  0  0  0  0
   -0.9686   -1.3010    5.6065 C   0  0  0  0  0  0  0  0  0  0  0  0
    0.3151   -1.3845    5.1211 C   0  0  0  0  0  0  0  0  0  0  0  0
    3.2290   -1.4495    4.7158 C   0  0  0  0  0  0  0  0  0  0  0  0
    4.1883   -1.7571    3.7538 C   0  0  0  0  0  0  0  0  0  0  0  0
    5.1060   -2.7633    3.9721 C   0  0  0  0  0  0  0  0  0  0  0  0
    5.0619   -3.4982    5.1492 C   0  0  0  0  0  0  0  0  0  0  0  0
    6.2369   -4.7671    5.5107 S   0  0  0  0  0  0  0  0  0  0  0  0
    7.7361   -4.1033    4.7246 C   0  0  0  0  0  0  0  0  0  0  0  0
    4.0606   -3.2423    6.0792 C   0  0  0  0  0  0  0  0  0  0  0  0
    3.1597   -2.2203    5.8740 C   0  0  0  0  0  0  0  0  0  0  0  0
    4.3172    1.2313    4.4321 C   0  0  0  0  0  0  0  0  0  0  0  0
    5.5672    0.4574    5.3320 S   0  0  0  0  0  0  0  0  0  0  0  0
    6.6390    1.8285    5.0422 C   0  0  0  0  0  0  0  0  0  0  0  0
    6.0305    2.8069    4.2097 C   0  0  0  0  0  0  0  0  0  0  0  0
    6.6387    3.9602    3.7713 N   0  0  0  0  0  0  0  0  0  0  0  0
    7.9882    3.9702    3.3813 C   0  0  0  0  0  0  0  0  0  0  0  0
    8.8045    5.0682    3.6564 C   0  0  0  0  0  0  0  0  0  0  0  0
   10.1344    5.0447    3.3018 C   0  0  0  0  0  0  0  0  0  0  0  0
   10.6835    3.9279    2.6746 C   0  0  0  0  0  0  0  0  0  0  0  0
   12.4059    4.0031    2.3051 S   0  0  0  0  0  0  0  0  0  0  0  0
   12.7951    2.3419    1.6831 C   0  0  0  0  0  0  0  0  0  0  0  0
    9.8667    2.8442    2.3753 C   0  0  0  0  0  0  0  0  0  0  0  0
    8.5302    2.8711    2.7190 C   0  0  0  0  0  0  0  0  0  0  0  0
    5.9008    5.1537    3.7585 C   0  0  0  0  0  0  0  0  0  0  0  0
    5.0046    5.4319    4.7882 C   0  0  0  0  0  0  0  0  0  0  0  0
    4.3515    6.6457    4.8420 C   0  0  0  0  0  0  0  0  0  0  0  0
    4.5969    7.6050    3.8692 C   0  0  0  0  0  0  0  0  0  0  0  0
    3.8717    9.2180    3.9153 S   0  0  0  0  0  0  0  0  0  0  0  0
    3.6292    9.4893    5.6966 C   0  0  0  0  0  0  0  0  0  0  0  0
    5.4430    7.3095    2.8044 C   0  0  0  0  0  0  0  0  0  0  0  0
    6.0872    6.0936    2.7459 C   0  0  0  0  0  0  0  0  0  0  0  0
    4.7249    2.4380    3.8684 C   0  0  0  0  0  0  0  0  0  0  0  0
    3.5124    3.0900    2.8030 S   0  0  0  0  0  0  0  0  0  0  0  0
    7.8921    1.9797    5.6263 C   0  0  0  0  0  0  0  0  0  0  0  0
    8.6570    1.0703    6.3310 C   0  0  0  0  0  0  0  0  0  0  0  0
    8.3819   -0.3568    6.4668 C   0  0  0  0  0  0  0  0  0  0  0  0
    7.3957   -0.9774    6.1028 O   0  0  0  0  0  0  0  0  0  0  0  0
    9.5821   -0.9464    7.0933 C   0  0  0  0  0  0  0  0  0  0  0  0
    9.8145   -2.2689    7.4042 C   0  0  0  0  0  0  0  0  0  0  0  0
   11.0473   -2.5856    7.9661 C   0  0  0  0  0  0  0  0  0  0  0  0
   11.3810   -3.8768    8.3374 O   0  0  0  0  0  0  0  0  0  0  0  0
   11.0616   -4.9293    7.5567 C   0  0  0  0  0  0  0  0  0  0  0  0
   10.5528   -4.8393    6.4734 O   0  0  0  0  0  0  0  0  0  0  0  0
   11.4436   -6.2130    8.2361 C   0  0  0  0  0  0  0  0  0  0  0  0
   11.9879   -1.5933    8.2268 C   0  0  0  0  0  0  0  0  0  0  0  0
   11.7345   -0.2633    7.9251 C   0  0  0  0  0  0  0  0  0  0  0  0
   10.5214    0.0673    7.3413 C   0  0  0  0  0  0  0  0  0  0  0  0
    9.9544    1.3438    6.9010 C   0  0  0  0  0  0  0  0  0  0  0  0
   10.5590    2.5700    7.0442 C   0  0  0  0  0  0  0  0  0  0  0  0
    9.9749    3.8092    6.7199 C   0  0  0  0  0  0  0  0  0  0  0  0
    9.5594    4.8592    6.5027 N   0  0  0  0  0  0  0  0  0  0  0  0
   11.8514    2.7515    7.5749 C   0  0  0  0  0  0  0  0  0  0  0  0
   12.9027    2.9616    7.9871 N   0  0  0  0  0  0  0  0  0  0  0  0
   -4.3638   -5.5215   -6.0897 H   0  0  0  0  0  0  0  0  0  0  0  0
   -9.3228   -6.4117   -7.8375 H   0  0  0  0  0  0  0  0  0  0  0  0
   -8.8565   -1.3729   -7.5333 H   0  0  0  0  0  0  0  0  0  0  0  0
  -11.8753   -2.2004   -8.9326 H   0  0  0  0  0  0  0  0  0  0  0  0
  -12.2667   -1.5294   -6.3856 H   0  0  0  0  0  0  0  0  0  0  0  0
  -14.6011   -1.9971   -7.5087 H   0  0  0  0  0  0  0  0  0  0  0  0
  -14.8894   -4.6267   -7.7516 H   0  0  0  0  0  0  0  0  0  0  0  0
  -12.7442   -5.7793   -6.7664 H   0  0  0  0  0  0  0  0  0  0  0  0
  -12.8698   -3.7543   -5.0728 H   0  0  0  0  0  0  0  0  0  0  0  0
  -11.1948   -3.8853   -5.6654 H   0  0  0  0  0  0  0  0  0  0  0  0
  -12.1240   -4.7836   -9.1580 H   0  0  0  0  0  0  0  0  0  0  0  0
   -2.8231   -5.4084   -2.2644 H   0  0  0  0  0  0  0  0  0  0  0  0
   -1.4379   -6.1977   -0.4033 H   0  0  0  0  0  0  0  0  0  0  0  0
   -0.1848   -6.4766    1.4755 H   0  0  0  0  0  0  0  0  0  0  0  0
    0.9992   -7.7540    1.8036 H   0  0  0  0  0  0  0  0  0  0  0  0
   -0.3133   -8.0664    0.6448 H   0  0  0  0  0  0  0  0  0  0  0  0
    2.0069   -6.1083   -2.9296 H   0  0  0  0  0  0  0  0  0  0  0  0
    0.6043   -5.3483   -4.8131 H   0  0  0  0  0  0  0  0  0  0  0  0
   -1.9312   -3.6108   -7.0854 H   0  0  0  0  0  0  0  0  0  0  0  0
   -1.5882   -4.6657   -9.2694 H   0  0  0  0  0  0  0  0  0  0  0  0
   -1.1632   -9.5087  -10.8798 H   0  0  0  0  0  0  0  0  0  0  0  0
   -2.1448   -9.3825   -9.4031 H   0  0  0  0  0  0  0  0  0  0  0  0
   -0.3526   -9.4066   -9.3029 H   0  0  0  0  0  0  0  0  0  0  0  0
   -1.2757   -8.4943   -7.3798 H   0  0  0  0  0  0  0  0  0  0  0  0
   -1.6256   -7.4463   -5.2079 H   0  0  0  0  0  0  0  0  0  0  0  0
   -1.7291    1.0619   -4.1310 H   0  0  0  0  0  0  0  0  0  0  0  0
   -0.8830    3.2990   -4.6506 H   0  0  0  0  0  0  0  0  0  0  0  0
   -0.6841    5.1908   -6.0536 H   0  0  0  0  0  0  0  0  0  0  0  0
   -2.4373    5.0414   -6.3753 H   0  0  0  0  0  0  0  0  0  0  0  0
   -1.6525    6.6380   -6.4178 H   0  0  0  0  0  0  0  0  0  0  0  0
   -4.1906    5.0442   -2.5842 H   0  0  0  0  0  0  0  0  0  0  0  0
   -5.0314    2.7866   -2.0320 H   0  0  0  0  0  0  0  0  0  0  0  0
   -5.4495    1.8027   -4.7451 H   0  0  0  0  0  0  0  0  0  0  0  0
   -7.7517    1.2676   -5.4070 H   0  0  0  0  0  0  0  0  0  0  0  0
   -9.6577   -2.7948   -3.4955 H   0  0  0  0  0  0  0  0  0  0  0  0
  -11.2682   -2.0746   -3.7120 H   0  0  0  0  0  0  0  0  0  0  0  0
  -10.2277   -1.5037   -2.3899 H   0  0  0  0  0  0  0  0  0  0  0  0
   -7.9130   -1.7643   -2.3873 H   0  0  0  0  0  0  0  0  0  0  0  0
   -5.6291   -1.2246   -1.7382 H   0  0  0  0  0  0  0  0  0  0  0  0
   -2.0556   -3.4440    2.7120 H   0  0  0  0  0  0  0  0  0  0  0  0
   -0.4726   -4.8305    3.9961 H   0  0  0  0  0  0  0  0  0  0  0  0
    3.4553   -6.1244    1.7724 H   0  0  0  0  0  0  0  0  0  0  0  0
    4.2169   -4.7175    2.5898 H   0  0  0  0  0  0  0  0  0  0  0  0
    4.3488   -6.3367    3.3033 H   0  0  0  0  0  0  0  0  0  0  0  0
    2.6217   -3.8879    1.2004 H   0  0  0  0  0  0  0  0  0  0  0  0
    1.0428   -2.5424   -0.0888 H   0  0  0  0  0  0  0  0  0  0  0  0
   -2.6284   -4.3751    0.0768 H   0  0  0  0  0  0  0  0  0  0  0  0
   -5.0612   -4.8039   -0.0473 H   0  0  0  0  0  0  0  0  0  0  0  0
   -7.8242   -1.4561    1.8110 H   0  0  0  0  0  0  0  0  0  0  0  0
   -7.9952   -0.8555    0.1283 H   0  0  0  0  0  0  0  0  0  0  0  0
   -9.2183   -1.9439    0.8238 H   0  0  0  0  0  0  0  0  0  0  0  0
   -5.8008   -0.6811    0.8229 H   0  0  0  0  0  0  0  0  0  0  0  0
   -3.4116   -0.2669    0.9180 H   0  0  0  0  0  0  0  0  0  0  0  0
   -0.0538    5.6166   -0.1523 H   0  0  0  0  0  0  0  0  0  0  0  0
    0.2218    6.3660   -2.4506 H   0  0  0  0  0  0  0  0  0  0  0  0
    0.4629    7.2342   -4.5341 H   0  0  0  0  0  0  0  0  0  0  0  0
    2.1102    7.3993   -3.8492 H   0  0  0  0  0  0  0  0  0  0  0  0
    1.8716    7.3535   -5.6127 H   0  0  0  0  0  0  0  0  0  0  0  0
    2.6312    2.9341   -3.2902 H   0  0  0  0  0  0  0  0  0  0  0  0
    2.3904    2.2007   -0.9496 H   0  0  0  0  0  0  0  0  0  0  0  0
    2.2166    5.8245    1.0444 H   0  0  0  0  0  0  0  0  0  0  0  0
    1.9909    7.4817    2.8173 H   0  0  0  0  0  0  0  0  0  0  0  0
   -0.1489    9.6547    5.1715 H   0  0  0  0  0  0  0  0  0  0  0  0
   -0.5783    8.7256    3.7146 H   0  0  0  0  0  0  0  0  0  0  0  0
    1.0978    9.3009    3.9535 H   0  0  0  0  0  0  0  0  0  0  0  0
   -0.4337    4.7693    5.0567 H   0  0  0  0  0  0  0  0  0  0  0  0
   -0.2728    3.1219    3.2426 H   0  0  0  0  0  0  0  0  0  0  0  0
    1.2239    1.8546    5.4994 H   0  0  0  0  0  0  0  0  0  0  0  0
   -1.0480    2.0060    6.3386 H   0  0  0  0  0  0  0  0  0  0  0  0
   -3.3219    2.3259    6.6771 H   0  0  0  0  0  0  0  0  0  0  0  0
   -2.5698    1.6597    8.1632 H   0  0  0  0  0  0  0  0  0  0  0  0
   -4.3209    1.5064    7.8955 H   0  0  0  0  0  0  0  0  0  0  0  0
   -1.5954   -2.1787    5.6374 H   0  0  0  0  0  0  0  0  0  0  0  0
    0.6954   -2.3258    4.7564 H   0  0  0  0  0  0  0  0  0  0  0  0
    4.2212   -1.1854    2.8369 H   0  0  0  0  0  0  0  0  0  0  0  0
    5.8616   -2.9608    3.2269 H   0  0  0  0  0  0  0  0  0  0  0  0
    7.7651   -3.0329    4.9066 H   0  0  0  0  0  0  0  0  0  0  0  0
    7.7371   -4.3241    3.6607 H   0  0  0  0  0  0  0  0  0  0  0  0
    8.5823   -4.5927    5.1977 H   0  0  0  0  0  0  0  0  0  0  0  0
    4.0183   -3.8318    6.9817 H   0  0  0  0  0  0  0  0  0  0  0  0
    2.4203   -1.9941    6.6272 H   0  0  0  0  0  0  0  0  0  0  0  0
    8.3998    5.9245    4.1712 H   0  0  0  0  0  0  0  0  0  0  0  0
   10.7705    5.8851    3.5303 H   0  0  0  0  0  0  0  0  0  0  0  0
   13.8689    2.3358    1.5242 H   0  0  0  0  0  0  0  0  0  0  0  0
   12.5285    1.5965    2.4268 H   0  0  0  0  0  0  0  0  0  0  0  0
   12.2838    2.1635    0.7415 H   0  0  0  0  0  0  0  0  0  0  0  0
   10.2551    1.9757    1.8684 H   0  0  0  0  0  0  0  0  0  0  0  0
    7.9007    2.0258    2.4827 H   0  0  0  0  0  0  0  0  0  0  0  0
    4.8412    4.7027    5.5678 H   0  0  0  0  0  0  0  0  0  0  0  0
    3.6667    6.8398    5.6517 H   0  0  0  0  0  0  0  0  0  0  0  0
    2.7834    8.9129    6.0603 H   0  0  0  0  0  0  0  0  0  0  0  0
    3.4297   10.5503    5.8106 H   0  0  0  0  0  0  0  0  0  0  0  0
    4.5410    9.2215    6.2210 H   0  0  0  0  0  0  0  0  0  0  0  0
    5.6012    8.0488    2.0343 H   0  0  0  0  0  0  0  0  0  0  0  0
    6.7571    5.8729    1.9287 H   0  0  0  0  0  0  0  0  0  0  0  0
    8.3360    2.9560    5.4817 H   0  0  0  0  0  0  0  0  0  0  0  0
    9.0620   -3.0170    7.2154 H   0  0  0  0  0  0  0  0  0  0  0  0
   12.2965   -6.0585    8.8896 H   0  0  0  0  0  0  0  0  0  0  0  0
   10.5989   -6.5472    8.8370 H   0  0  0  0  0  0  0  0  0  0  0  0
   11.6580   -6.9715    7.4892 H   0  0  0  0  0  0  0  0  0  0  0  0
   12.9275   -1.8785    8.6736 H   0  0  0  0  0  0  0  0  0  0  0  0
   12.4831    0.4815    8.1395 H   0  0  0  0  0  0  0  0  0  0  0  0
  1  2  2  0  0  0  0
  2  3  1  0  0  0  0
  3  4  2  0  0  0  0
  3  5  1  0  0  0  0
  5  6  2  0  0  0  0
  6  7  1  0  0  0  0
  7  8  2  0  0  0  0
  8  9  1  0  0  0  0
  9 10  2  0  0  0  0
 10 11  1  0  0  0  0
 11 12  2  0  0  0  0
 12 13  1  0  0  0  0
 13 14  3  0  0  0  0
 12 15  1  0  0  0  0
 15 16  3  0  0  0  0
  8 17  1  0  0  0  0
 17 18  1  0  0  0  0
 18 19  1  0  0  0  0
 19 20  2  0  0  0  0
 20 21  1  0  0  0  0
 21 22  1  0  0  0  0
 21 23  1  0  0  0  0
  1 24  1  0  0  0  0
 24 25  2  0  0  0  0
 25 26  1  0  0  0  0
 26 27  1  0  0  0  0
 27 28  2  0  0  0  0
 28 29  1  0  0  0  0
 29 30  2  0  0  0  0
 30 31  1  0  0  0  0
 31 32  1  0  0  0  0
 30 33  1  0  0  0  0
 33 34  2  0  0  0  0
 26 35  1  0  0  0  0
 35 36  2  0  0  0  0
 36 37  1  0  0  0  0
 37 38  2  0  0  0  0
 38 39  1  0  0  0  0
 39 40  1  0  0  0  0
 38 41  1  0  0  0  0
 41 42  2  0  0  0  0
 25 43  1  0  0  0  0
 43 44  1  0  0  0  0
 44 45  1  0  0  0  0
 45 46  2  0  0  0  0
 46 47  1  0  0  0  0
 47 48  1  0  0  0  0
 48 49  2  0  0  0  0
 49 50  1  0  0  0  0
 50 51  2  0  0  0  0
 51 52  1  0  0  0  0
 52 53  1  0  0  0  0
 51 54  1  0  0  0  0
 54 55  2  0  0  0  0
 47 56  1  0  0  0  0
 56 57  2  0  0  0  0
 57 58  1  0  0  0  0
 58 59  2  0  0  0  0
 59 60  1  0  0  0  0
 60 61  1  0  0  0  0
 59 62  1  0  0  0  0
 62 63  2  0  0  0  0
 46 64  1  0  0  0  0
 64 65  1  0  0  0  0
 45 66  1  0  0  0  0
 66 67  2  0  0  0  0
 67 68  1  0  0  0  0
 68 69  1  0  0  0  0
 69 70  2  0  0  0  0
 70 71  1  0  0  0  0
 71 72  2  0  0  0  0
 72 73  1  0  0  0  0
 73 74  1  0  0  0  0
 72 75  1  0  0  0  0
 75 76  2  0  0  0  0
 68 77  1  0  0  0  0
 77 78  2  0  0  0  0
 78 79  1  0  0  0  0
 79 80  2  0  0  0  0
 80 81  1  0  0  0  0
 81 82  1  0  0  0  0
 80 83  1  0  0  0  0
 83 84  2  0  0  0  0
 67 85  1  0  0  0  0
 85 86  1  0  0  0  0
 86 87  1  0  0  0  0
 87 88  2  0  0  0  0
 88 89  1  0  0  0  0
 89 90  1  0  0  0  0
 90 91  2  0  0  0  0
 91 92  1  0  0  0  0
 92 93  2  0  0  0  0
 93 94  1  0  0  0  0
 94 95  1  0  0  0  0
 93 96  1  0  0  0  0
 96 97  2  0  0  0  0
 89 98  1  0  0  0  0
 98 99  2  0  0  0  0
 99100  1  0  0  0  0
100101  2  0  0  0  0
101102  1  0  0  0  0
102103  1  0  0  0  0
101104  1  0  0  0  0
104105  2  0  0  0  0
 88106  1  0  0  0  0
106107  1  0  0  0  0
 87108  1  0  0  0  0
108109  2  0  0  0  0
109110  1  0  0  0  0
110111  1  0  0  0  0
111112  2  0  0  0  0
112113  1  0  0  0  0
113114  2  0  0  0  0
114115  1  0  0  0  0
115116  1  0  0  0  0
114117  1  0  0  0  0
117118  2  0  0  0  0
110119  1  0  0  0  0
119120  2  0  0  0  0
120121  1  0  0  0  0
121122  2  0  0  0  0
122123  1  0  0  0  0
123124  1  0  0  0  0
122125  1  0  0  0  0
125126  2  0  0  0  0
109127  1  0  0  0  0
127128  1  0  0  0  0
128129  1  0  0  0  0
129130  2  0  0  0  0
130131  1  0  0  0  0
131132  1  0  0  0  0
132133  2  0  0  0  0
133134  1  0  0  0  0
134135  2  0  0  0  0
135136  1  0  0  0  0
136137  1  0  0  0  0
135138  1  0  0  0  0
138139  2  0  0  0  0
131140  1  0  0  0  0
140141  2  0  0  0  0
141142  1  0  0  0  0
142143  2  0  0  0  0
143144  1  0  0  0  0
144145  1  0  0  0  0
143146  1  0  0  0  0
146147  2  0  0  0  0
130148  1  0  0  0  0
148149  1  0  0  0  0
129150  1  0  0  0  0
150151  2  0  0  0  0
151152  1  0  0  0  0
152153  2  0  0  0  0
152154  1  0  0  0  0
154155  2  0  0  0  0
155156  1  0  0  0  0
156157  1  0  0  0  0
157158  1  0  0  0  0
158159  2  0  0  0  0
158160  1  0  0  0  0
156161  2  0  0  0  0
161162  1  0  0  0  0
162163  2  0  0  0  0
163164  1  0  0  0  0
164165  2  0  0  0  0
165166  1  0  0  0  0
166167  3  0  0  0  0
165168  1  0  0  0  0
168169  3  0  0  0  0
 11  2  1  0  0  0  0
 23 17  1  0  0  0  0
 65 24  1  0  0  0  0
107 66  1  0  0  0  0
149108  1  0  0  0  0
164151  1  0  0  0  0
 10  5  1  0  0  0  0
 22 18  1  0  0  0  0
 34 27  1  0  0  0  0
 42 35  1  0  0  0  0
 64 43  2  0  0  0  0
 76 69  1  0  0  0  0
 84 77  1  0  0  0  0
106 85  2  0  0  0  0
118111  1  0  0  0  0
126119  1  0  0  0  0
148127  2  0  0  0  0
163154  1  0  0  0  0
 23  7  1  0  0  0  0
 55 48  1  0  0  0  0
 63 56  1  0  0  0  0
 97 90  1  0  0  0  0
105 98  1  0  0  0  0
139132  1  0  0  0  0
147140  1  0  0  0  0
  1170  1  0  0  0  0
  6171  1  0  0  0  0
  9172  1  0  0  0  0
 17173  1  0  0  0  0
 18174  1  0  0  0  0
 19175  1  0  0  0  0
 20176  1  0  0  0  0
 21177  1  0  0  0  0
 22178  1  0  0  0  0
 22179  1  0  0  0  0
 23180  1  0  0  0  0
 28181  1  0  0  0  0
 29182  1  0  0  0  0
 32183  1  0  0  0  0
 32184  1  0  0  0  0
 32185  1  0  0  0  0
 33186  1  0  0  0  0
 34187  1  0  0  0  0
 36188  1  0  0  0  0
 37189  1  0  0  0  0
 40190  1  0  0  0  0
 40191  1  0  0  0  0
 40192  1  0  0  0  0
 41193  1  0  0  0  0
 42194  1  0  0  0  0
 49195  1  0  0  0  0
 50196  1  0  0  0  0
 53197  1  0  0  0  0
 53198  1  0  0  0  0
 53199  1  0  0  0  0
 54200  1  0  0  0  0
 55201  1  0  0  0  0
 57202  1  0  0  0  0
 58203  1  0  0  0  0
 61204  1  0  0  0  0
 61205  1  0  0  0  0
 61206  1  0  0  0  0
 62207  1  0  0  0  0
 63208  1  0  0  0  0
 70209  1  0  0  0  0
 71210  1  0  0  0  0
 74211  1  0  0  0  0
 74212  1  0  0  0  0
 74213  1  0  0  0  0
 75214  1  0  0  0  0
 76215  1  0  0  0  0
 78216  1  0  0  0  0
 79217  1  0  0  0  0
 82218  1  0  0  0  0
 82219  1  0  0  0  0
 82220  1  0  0  0  0
 83221  1  0  0  0  0
 84222  1  0  0  0  0
 91223  1  0  0  0  0
 92224  1  0  0  0  0
 95225  1  0  0  0  0
 95226  1  0  0  0  0
 95227  1  0  0  0  0
 96228  1  0  0  0  0
 97229  1  0  0  0  0
 99230  1  0  0  0  0
100231  1  0  0  0  0
103232  1  0  0  0  0
103233  1  0  0  0  0
103234  1  0  0  0  0
104235  1  0  0  0  0
105236  1  0  0  0  0
112237  1  0  0  0  0
113238  1  0  0  0  0
116239  1  0  0  0  0
116240  1  0  0  0  0
116241  1  0  0  0  0
117242  1  0  0  0  0
118243  1  0  0  0  0
120244  1  0  0  0  0
121245  1  0  0  0  0
124246  1  0  0  0  0
124247  1  0  0  0  0
124248  1  0  0  0  0
125249  1  0  0  0  0
126250  1  0  0  0  0
133251  1  0  0  0  0
134252  1  0  0  0  0
137253  1  0  0  0  0
137254  1  0  0  0  0
137255  1  0  0  0  0
138256  1  0  0  0  0
139257  1  0  0  0  0
141258  1  0  0  0  0
142259  1  0  0  0  0
145260  1  0  0  0  0
145261  1  0  0  0  0
145262  1  0  0  0  0
146263  1  0  0  0  0
147264  1  0  0  0  0
150265  1  0  0  0  0
155266  1  0  0  0  0
160267  1  0  0  0  0
160268  1  0  0  0  0
160269  1  0  0  0  0
161270  1  0  0  0  0
162271  1  0  0  0  0
M  END
