
  xtb     02062204263D
 energy: -311.570048909057 gnorm: 0.000337197828 xtb: 6.4.1 (unknown)
193214  0     0  0            999 V2000
   -6.3101    1.4908   -8.2802 C   0  0  0  0  0  0  0  0  0  0  0  0
   -5.4723    1.5181   -9.3466 C   0  0  0  0  0  0  0  0  0  0  0  0
   -6.0181    1.4320  -10.7283 C   0  0  0  0  0  0  0  0  0  0  0  0
   -7.1756    1.5550  -11.0598 O   0  0  0  0  0  0  0  0  0  0  0  0
   -4.8610    1.1075  -11.5862 C   0  0  0  0  0  0  0  0  0  0  0  0
   -4.8779    0.8196  -12.9498 C   0  0  0  0  0  0  0  0  0  0  0  0
   -3.6423    0.5306  -13.4774 C   0  0  0  0  0  0  0  0  0  0  0  0
   -2.4711    0.5248  -12.7073 C   0  0  0  0  0  0  0  0  0  0  0  0
   -2.4364    0.8138  -11.3644 C   0  0  0  0  0  0  0  0  0  0  0  0
   -3.6835    1.1148  -10.8085 C   0  0  0  0  0  0  0  0  0  0  0  0
   -4.0266    1.5102   -9.4453 C   0  0  0  0  0  0  0  0  0  0  0  0
   -3.1456    1.9740   -8.5035 C   0  0  0  0  0  0  0  0  0  0  0  0
   -1.7438    1.9251   -8.6342 C   0  0  0  0  0  0  0  0  0  0  0  0
   -0.5969    1.8740   -8.6661 N   0  0  0  0  0  0  0  0  0  0  0  0
   -3.5291    2.6364   -7.3191 C   0  0  0  0  0  0  0  0  0  0  0  0
   -3.7654    3.2489   -6.3772 N   0  0  0  0  0  0  0  0  0  0  0  0
   -1.6050    0.1398  -13.8804 C   0  0  0  0  0  0  0  0  0  0  0  0
   -1.1559   -1.3349  -13.9534 C   0  0  0  0  0  0  0  0  0  0  0  0
   -0.7540   -1.5192  -15.3989 C   0  0  0  0  0  0  0  0  0  0  0  0
   -1.8616   -1.5121  -16.1295 C   0  0  0  0  0  0  0  0  0  0  0  0
   -3.0309   -1.3236  -15.1901 C   0  0  0  0  0  0  0  0  0  0  0  0
   -2.5024   -2.0702  -13.9585 C   0  0  0  0  0  0  0  0  0  0  0  0
   -2.9097    0.1479  -14.7399 C   0  0  0  0  0  0  0  0  0  0  0  0
   -6.0019    1.2705   -6.8987 C   0  0  0  0  0  0  0  0  0  0  0  0
   -4.9993    0.3885   -6.4416 C   0  0  0  0  0  0  0  0  0  0  0  0
   -4.2241   -0.5378   -7.1943 C   0  0  0  0  0  0  0  0  0  0  0  0
   -3.3405   -1.2461   -6.4523 C   0  0  0  0  0  0  0  0  0  0  0  0
   -2.3676   -2.2724   -6.9178 C   0  0  0  0  0  0  0  0  0  0  0  0
   -2.5441   -3.6000   -6.1817 C   0  0  0  0  0  0  0  0  0  0  0  0
   -3.4152   -0.8217   -4.7654 S   0  0  0  0  0  0  0  0  0  0  0  0
   -4.6929    0.3250   -5.0672 C   0  0  0  0  0  0  0  0  0  0  0  0
   -5.3647    1.0587   -4.0897 C   0  0  0  0  0  0  0  0  0  0  0  0
   -6.4056    1.8932   -4.5368 C   0  0  0  0  0  0  0  0  0  0  0  0
   -6.7109    1.9612   -5.9115 C   0  0  0  0  0  0  0  0  0  0  0  0
   -7.9782    3.1040   -6.2223 S   0  0  0  0  0  0  0  0  0  0  0  0
   -8.0980    3.4909   -4.5221 C   0  0  0  0  0  0  0  0  0  0  0  0
   -9.1087    4.4835   -4.0643 C   0  0  0  0  0  0  0  0  0  0  0  0
  -10.5305    3.9425   -4.2265 C   0  0  0  0  0  0  0  0  0  0  0  0
   -7.2163    2.7878   -3.7780 C   0  0  0  0  0  0  0  0  0  0  0  0
   -5.0161    0.9625   -2.6918 C   0  0  0  0  0  0  0  0  0  0  0  0
   -3.3393    0.9089   -2.2073 S   0  0  0  0  0  0  0  0  0  0  0  0
   -3.8092    0.7712   -0.5576 C   0  0  0  0  0  0  0  0  0  0  0  0
   -3.0220    0.5891    0.6062 C   0  0  0  0  0  0  0  0  0  0  0  0
   -3.7046    0.3864    1.7958 C   0  0  0  0  0  0  0  0  0  0  0  0
   -5.5549    0.6132    1.4651 Si  0  0  0  0  0  4  0  0  0  0  0  0
   -6.7053   -0.8220    1.9425 C   0  0  0  0  0  0  0  0  0  0  0  0
   -8.1776   -0.4616    1.7837 C   0  0  0  0  0  0  0  0  0  0  0  0
   -6.1286    2.3023    2.1567 C   0  0  0  0  0  0  0  0  0  0  0  0
   -5.1650    3.4391    1.8293 C   0  0  0  0  0  0  0  0  0  0  0  0
   -5.1852    0.7660   -0.3854 C   0  0  0  0  0  0  0  0  0  0  0  0
   -5.8569    0.8856   -1.6056 C   0  0  0  0  0  0  0  0  0  0  0  0
   -2.8309    0.1322    2.8553 C   0  0  0  0  0  0  0  0  0  0  0  0
   -1.5045    0.1442    2.4858 C   0  0  0  0  0  0  0  0  0  0  0  0
   -1.3147    0.5132    0.7877 S   0  0  0  0  0  0  0  0  0  0  0  0
   -0.3565   -0.2086    3.2651 C   0  0  0  0  0  0  0  0  0  0  0  0
   -0.2087   -1.3234    4.0777 C   0  0  0  0  0  0  0  0  0  0  0  0
   -1.1560   -2.3217    4.2434 N   0  0  0  0  0  0  0  0  0  0  0  0
   -1.9811   -2.6808    3.1699 C   0  0  0  0  0  0  0  0  0  0  0  0
   -3.3235   -2.9965    3.3794 C   0  0  0  0  0  0  0  0  0  0  0  0
   -4.1568   -3.2290    2.3088 C   0  0  0  0  0  0  0  0  0  0  0  0
   -3.6790   -3.1313    1.0039 C   0  0  0  0  0  0  0  0  0  0  0  0
   -4.8598   -3.3194   -0.2962 S   0  0  0  0  0  0  0  0  0  0  0  0
   -3.9414   -2.8587   -1.7895 C   0  0  0  0  0  0  0  0  0  0  0  0
   -2.3293   -2.8902    0.7917 C   0  0  0  0  0  0  0  0  0  0  0  0
   -1.4894   -2.6795    1.8668 C   0  0  0  0  0  0  0  0  0  0  0  0
   -1.2581   -2.9712    5.4798 C   0  0  0  0  0  0  0  0  0  0  0  0
   -1.0693   -2.2653    6.6687 C   0  0  0  0  0  0  0  0  0  0  0  0
   -1.1483   -2.9127    7.8810 C   0  0  0  0  0  0  0  0  0  0  0  0
   -1.4289   -4.2760    7.9384 C   0  0  0  0  0  0  0  0  0  0  0  0
   -1.5159   -4.9924    9.5498 S   0  0  0  0  0  0  0  0  0  0  0  0
   -1.7456   -6.7645    9.2302 C   0  0  0  0  0  0  0  0  0  0  0  0
   -1.6306   -4.9798    6.7586 C   0  0  0  0  0  0  0  0  0  0  0  0
   -1.5395   -4.3330    5.5421 C   0  0  0  0  0  0  0  0  0  0  0  0
    1.0868   -1.3641    4.6454 C   0  0  0  0  0  0  0  0  0  0  0  0
    1.9100   -2.5045    5.6421 S   0  0  0  0  0  0  0  0  0  0  0  0
    3.3997   -1.5488    5.5513 C   0  0  0  0  0  0  0  0  0  0  0  0
    3.2545   -0.4296    4.7052 C   0  0  0  0  0  0  0  0  0  0  0  0
    4.2449    0.3981    4.2528 N   0  0  0  0  0  0  0  0  0  0  0  0
    3.9079    1.7102    3.8639 C   0  0  0  0  0  0  0  0  0  0  0  0
    3.0814    2.4894    4.6662 C   0  0  0  0  0  0  0  0  0  0  0  0
    2.7349    3.7689    4.2796 C   0  0  0  0  0  0  0  0  0  0  0  0
    3.2134    4.2861    3.0825 C   0  0  0  0  0  0  0  0  0  0  0  0
    2.8358    5.9001    2.4820 S   0  0  0  0  0  0  0  0  0  0  0  0
    1.5360    6.4886    3.6052 C   0  0  0  0  0  0  0  0  0  0  0  0
    4.0616    3.5137    2.2898 C   0  0  0  0  0  0  0  0  0  0  0  0
    4.4071    2.2380    2.6743 C   0  0  0  0  0  0  0  0  0  0  0  0
    5.5779   -0.0074    4.1296 C   0  0  0  0  0  0  0  0  0  0  0  0
    6.6085    0.8894    4.4236 C   0  0  0  0  0  0  0  0  0  0  0  0
    7.9217    0.4813    4.3694 C   0  0  0  0  0  0  0  0  0  0  0  0
    8.2443   -0.8285    4.0155 C   0  0  0  0  0  0  0  0  0  0  0  0
    9.9493   -1.2584    4.0719 S   0  0  0  0  0  0  0  0  0  0  0  0
    9.9913   -2.9979    3.5594 C   0  0  0  0  0  0  0  0  0  0  0  0
    7.2252   -1.7053    3.6590 C   0  0  0  0  0  0  0  0  0  0  0  0
    5.9085   -1.2967    3.7172 C   0  0  0  0  0  0  0  0  0  0  0  0
    1.9208   -0.3307    4.2432 C   0  0  0  0  0  0  0  0  0  0  0  0
    1.1157    0.7389    3.1434 S   0  0  0  0  0  0  0  0  0  0  0  0
    4.5023   -2.0438    6.2509 C   0  0  0  0  0  0  0  0  0  0  0  0
    5.6067   -1.3188    6.6460 C   0  0  0  0  0  0  0  0  0  0  0  0
    5.5913    0.1234    6.9345 C   0  0  0  0  0  0  0  0  0  0  0  0
    4.6442    0.8841    6.8460 O   0  0  0  0  0  0  0  0  0  0  0  0
    6.9316    0.4371    7.4756 C   0  0  0  0  0  0  0  0  0  0  0  0
    7.4089    1.6829    7.8708 C   0  0  0  0  0  0  0  0  0  0  0  0
    8.7217    1.6755    8.2810 C   0  0  0  0  0  0  0  0  0  0  0  0
    9.5013    0.5132    8.3051 C   0  0  0  0  0  0  0  0  0  0  0  0
    9.0393   -0.7257    7.9280 C   0  0  0  0  0  0  0  0  0  0  0  0
    7.7088   -0.7370    7.5051 C   0  0  0  0  0  0  0  0  0  0  0  0
    6.9017   -1.8362    6.9826 C   0  0  0  0  0  0  0  0  0  0  0  0
    7.3547   -3.1007    6.6892 C   0  0  0  0  0  0  0  0  0  0  0  0
    6.6022   -4.0596    5.9843 C   0  0  0  0  0  0  0  0  0  0  0  0
    6.0783   -4.8720    5.3621 N   0  0  0  0  0  0  0  0  0  0  0  0
    8.6498   -3.5753    6.9636 C   0  0  0  0  0  0  0  0  0  0  0  0
    9.6870   -4.0376    7.1423 N   0  0  0  0  0  0  0  0  0  0  0  0
   10.7196    1.2425    8.8151 C   0  0  0  0  0  0  0  0  0  0  0  0
   11.0467    1.0810   10.3142 C   0  0  0  0  0  0  0  0  0  0  0  0
   11.9571    2.2497   10.6141 C   0  0  0  0  0  0  0  0  0  0  0  0
   11.2192    3.3522   10.5912 C   0  0  0  0  0  0  0  0  0  0  0  0
    9.7974    2.9468   10.2759 C   0  0  0  0  0  0  0  0  0  0  0  0
    9.7523    1.5794   10.9698 C   0  0  0  0  0  0  0  0  0  0  0  0
    9.8501    2.5405    8.7880 C   0  0  0  0  0  0  0  0  0  0  0  0
   -7.3590    1.6585   -8.5105 H   0  0  0  0  0  0  0  0  0  0  0  0
   -5.8008    0.8383  -13.5079 H   0  0  0  0  0  0  0  0  0  0  0  0
   -1.5302    0.8052  -10.7814 H   0  0  0  0  0  0  0  0  0  0  0  0
   -0.8105    0.8397  -14.1317 H   0  0  0  0  0  0  0  0  0  0  0  0
   -0.4273   -1.6265  -13.2018 H   0  0  0  0  0  0  0  0  0  0  0  0
    0.2644   -1.5767  -15.7355 H   0  0  0  0  0  0  0  0  0  0  0  0
   -1.9531   -1.5628  -17.1986 H   0  0  0  0  0  0  0  0  0  0  0  0
   -4.0107   -1.6065  -15.5655 H   0  0  0  0  0  0  0  0  0  0  0  0
   -3.0957   -1.9166  -13.0587 H   0  0  0  0  0  0  0  0  0  0  0  0
   -2.3882   -3.1374  -14.1417 H   0  0  0  0  0  0  0  0  0  0  0  0
   -2.9849    0.8533  -15.5653 H   0  0  0  0  0  0  0  0  0  0  0  0
   -4.3486   -0.6950   -8.2511 H   0  0  0  0  0  0  0  0  0  0  0  0
   -2.4996   -2.4185   -7.9922 H   0  0  0  0  0  0  0  0  0  0  0  0
   -1.3515   -1.9028   -6.7499 H   0  0  0  0  0  0  0  0  0  0  0  0
   -1.8260   -4.3299   -6.5463 H   0  0  0  0  0  0  0  0  0  0  0  0
   -2.3892   -3.4611   -5.1142 H   0  0  0  0  0  0  0  0  0  0  0  0
   -3.5472   -3.9904   -6.3380 H   0  0  0  0  0  0  0  0  0  0  0  0
   -9.0075    5.4018   -4.6481 H   0  0  0  0  0  0  0  0  0  0  0  0
   -8.9189    4.7208   -3.0155 H   0  0  0  0  0  0  0  0  0  0  0  0
  -10.7308    3.7188   -5.2718 H   0  0  0  0  0  0  0  0  0  0  0  0
  -10.6577    3.0308   -3.6470 H   0  0  0  0  0  0  0  0  0  0  0  0
  -11.2541    4.6771   -3.8830 H   0  0  0  0  0  0  0  0  0  0  0  0
   -7.1124    2.9193   -2.7166 H   0  0  0  0  0  0  0  0  0  0  0  0
   -6.5172   -1.1105    2.9763 H   0  0  0  0  0  0  0  0  0  0  0  0
   -6.4848   -1.6914    1.3246 H   0  0  0  0  0  0  0  0  0  0  0  0
   -8.4439    0.3713    2.4296 H   0  0  0  0  0  0  0  0  0  0  0  0
   -8.8091   -1.3089    2.0436 H   0  0  0  0  0  0  0  0  0  0  0  0
   -8.3948   -0.1805    0.7566 H   0  0  0  0  0  0  0  0  0  0  0  0
   -6.2453    2.2319    3.2387 H   0  0  0  0  0  0  0  0  0  0  0  0
   -7.1129    2.5428    1.7537 H   0  0  0  0  0  0  0  0  0  0  0  0
   -5.5326    4.3833    2.2265 H   0  0  0  0  0  0  0  0  0  0  0  0
   -4.1849    3.2450    2.2580 H   0  0  0  0  0  0  0  0  0  0  0  0
   -5.0463    3.5433    0.7534 H   0  0  0  0  0  0  0  0  0  0  0  0
   -6.9274    0.8584   -1.7037 H   0  0  0  0  0  0  0  0  0  0  0  0
   -3.1454   -0.0529    3.8668 H   0  0  0  0  0  0  0  0  0  0  0  0
   -3.7117   -3.0354    4.3861 H   0  0  0  0  0  0  0  0  0  0  0  0
   -5.1962   -3.4660    2.4722 H   0  0  0  0  0  0  0  0  0  0  0  0
   -4.6779   -2.8063   -2.5852 H   0  0  0  0  0  0  0  0  0  0  0  0
   -3.4797   -1.8860   -1.6531 H   0  0  0  0  0  0  0  0  0  0  0  0
   -3.2006   -3.6178   -2.0242 H   0  0  0  0  0  0  0  0  0  0  0  0
   -1.9167   -2.8581   -0.2036 H   0  0  0  0  0  0  0  0  0  0  0  0
   -0.4406   -2.4914    1.6909 H   0  0  0  0  0  0  0  0  0  0  0  0
   -0.8639   -1.2055    6.6360 H   0  0  0  0  0  0  0  0  0  0  0  0
   -0.9985   -2.3683    8.8007 H   0  0  0  0  0  0  0  0  0  0  0  0
   -0.9192   -7.1423    8.6354 H   0  0  0  0  0  0  0  0  0  0  0  0
   -1.7449   -7.2390   10.2065 H   0  0  0  0  0  0  0  0  0  0  0  0
   -2.6991   -6.9364    8.7390 H   0  0  0  0  0  0  0  0  0  0  0  0
   -1.8502   -6.0350    6.7688 H   0  0  0  0  0  0  0  0  0  0  0  0
   -1.6834   -4.8893    4.6278 H   0  0  0  0  0  0  0  0  0  0  0  0
    2.7391    2.0927    5.6091 H   0  0  0  0  0  0  0  0  0  0  0  0
    2.1005    4.3534    4.9257 H   0  0  0  0  0  0  0  0  0  0  0  0
    0.7129    5.7804    3.6149 H   0  0  0  0  0  0  0  0  0  0  0  0
    1.9400    6.6416    4.6018 H   0  0  0  0  0  0  0  0  0  0  0  0
    1.2036    7.4372    3.1952 H   0  0  0  0  0  0  0  0  0  0  0  0
    4.4361    3.9262    1.3657 H   0  0  0  0  0  0  0  0  0  0  0  0
    5.0566    1.6391    2.0532 H   0  0  0  0  0  0  0  0  0  0  0  0
    6.3662    1.8996    4.7161 H   0  0  0  0  0  0  0  0  0  0  0  0
    8.7162    1.1654    4.6246 H   0  0  0  0  0  0  0  0  0  0  0  0
    9.4356   -3.6111    4.2625 H   0  0  0  0  0  0  0  0  0  0  0  0
   11.0393   -3.2796    3.5830 H   0  0  0  0  0  0  0  0  0  0  0  0
    9.6038   -3.0974    2.5497 H   0  0  0  0  0  0  0  0  0  0  0  0
    7.4398   -2.7143    3.3465 H   0  0  0  0  0  0  0  0  0  0  0  0
    5.1291   -1.9932    3.4469 H   0  0  0  0  0  0  0  0  0  0  0  0
    4.4525   -3.0935    6.5162 H   0  0  0  0  0  0  0  0  0  0  0  0
    6.7797    2.5584    7.8276 H   0  0  0  0  0  0  0  0  0  0  0  0
    9.6494   -1.6133    7.9498 H   0  0  0  0  0  0  0  0  0  0  0  0
   11.6007    1.1927    8.1782 H   0  0  0  0  0  0  0  0  0  0  0  0
   11.4054    0.0954   10.5984 H   0  0  0  0  0  0  0  0  0  0  0  0
   13.0191    2.1633   10.7510 H   0  0  0  0  0  0  0  0  0  0  0  0
   11.5418    4.3707   10.7051 H   0  0  0  0  0  0  0  0  0  0  0  0
    9.0180    3.6618   10.5264 H   0  0  0  0  0  0  0  0  0  0  0  0
    8.8737    0.9863   10.7231 H   0  0  0  0  0  0  0  0  0  0  0  0
    9.8440    1.6632   12.0515 H   0  0  0  0  0  0  0  0  0  0  0  0
   10.1543    3.3563    8.1344 H   0  0  0  0  0  0  0  0  0  0  0  0
  1  2  2  0  0  0  0
  2  3  1  0  0  0  0
  3  4  2  0  0  0  0
  3  5  1  0  0  0  0
  5  6  2  0  0  0  0
  6  7  1  0  0  0  0
  7  8  2  0  0  0  0
  8  9  1  0  0  0  0
  9 10  2  0  0  0  0
 10 11  1  0  0  0  0
 11 12  2  0  0  0  0
 12 13  1  0  0  0  0
 13 14  3  0  0  0  0
 12 15  1  0  0  0  0
 15 16  3  0  0  0  0
  8 17  1  0  0  0  0
 17 18  1  0  0  0  0
 18 19  1  0  0  0  0
 19 20  2  0  0  0  0
 20 21  1  0  0  0  0
 21 22  1  0  0  0  0
 21 23  1  0  0  0  0
  1 24  1  0  0  0  0
 24 25  2  0  0  0  0
 25 26  1  0  0  0  0
 26 27  2  0  0  0  0
 27 28  1  0  0  0  0
 28 29  1  0  0  0  0
 27 30  1  0  0  0  0
 30 31  1  0  0  0  0
 31 32  2  0  0  0  0
 32 33  1  0  0  0  0
 33 34  2  0  0  0  0
 34 35  1  0  0  0  0
 35 36  1  0  0  0  0
 36 37  1  0  0  0  0
 37 38  1  0  0  0  0
 36 39  2  0  0  0  0
 32 40  1  0  0  0  0
 40 41  1  0  0  0  0
 41 42  1  0  0  0  0
 42 43  1  0  0  0  0
 43 44  2  0  0  0  0
 44 45  1  0  0  0  0
 45 46  1  0  0  0  0
 46 47  1  0  0  0  0
 45 48  1  0  0  0  0
 48 49  1  0  0  0  0
 45 50  1  0  0  0  0
 50 51  1  0  0  0  0
 44 52  1  0  0  0  0
 52 53  2  0  0  0  0
 53 54  1  0  0  0  0
 53 55  1  0  0  0  0
 55 56  2  0  0  0  0
 56 57  1  0  0  0  0
 57 58  1  0  0  0  0
 58 59  2  0  0  0  0
 59 60  1  0  0  0  0
 60 61  2  0  0  0  0
 61 62  1  0  0  0  0
 62 63  1  0  0  0  0
 61 64  1  0  0  0  0
 64 65  2  0  0  0  0
 57 66  1  0  0  0  0
 66 67  2  0  0  0  0
 67 68  1  0  0  0  0
 68 69  2  0  0  0  0
 69 70  1  0  0  0  0
 70 71  1  0  0  0  0
 69 72  1  0  0  0  0
 72 73  2  0  0  0  0
 56 74  1  0  0  0  0
 74 75  1  0  0  0  0
 75 76  1  0  0  0  0
 76 77  2  0  0  0  0
 77 78  1  0  0  0  0
 78 79  1  0  0  0  0
 79 80  2  0  0  0  0
 80 81  1  0  0  0  0
 81 82  2  0  0  0  0
 82 83  1  0  0  0  0
 83 84  1  0  0  0  0
 82 85  1  0  0  0  0
 85 86  2  0  0  0  0
 78 87  1  0  0  0  0
 87 88  2  0  0  0  0
 88 89  1  0  0  0  0
 89 90  2  0  0  0  0
 90 91  1  0  0  0  0
 91 92  1  0  0  0  0
 90 93  1  0  0  0  0
 93 94  2  0  0  0  0
 77 95  1  0  0  0  0
 95 96  1  0  0  0  0
 76 97  1  0  0  0  0
 97 98  2  0  0  0  0
 98 99  1  0  0  0  0
 99100  2  0  0  0  0
 99101  1  0  0  0  0
101102  2  0  0  0  0
102103  1  0  0  0  0
103104  2  0  0  0  0
104105  1  0  0  0  0
105106  2  0  0  0  0
106107  1  0  0  0  0
107108  2  0  0  0  0
108109  1  0  0  0  0
109110  3  0  0  0  0
108111  1  0  0  0  0
111112  3  0  0  0  0
104113  1  0  0  0  0
113114  1  0  0  0  0
114115  1  0  0  0  0
115116  2  0  0  0  0
116117  1  0  0  0  0
117118  1  0  0  0  0
117119  1  0  0  0  0
 11  2  1  0  0  0  0
 23 17  1  0  0  0  0
 34 24  1  0  0  0  0
 51 40  2  0  0  0  0
 96 55  1  0  0  0  0
107 98  1  0  0  0  0
119113  1  0  0  0  0
 10  5  1  0  0  0  0
 22 18  1  0  0  0  0
 31 25  1  0  0  0  0
 39 33  1  0  0  0  0
 50 42  2  0  0  0  0
 65 58  1  0  0  0  0
 73 66  1  0  0  0  0
 95 74  2  0  0  0  0
106101  1  0  0  0  0
118114  1  0  0  0  0
 23  7  1  0  0  0  0
 54 43  1  0  0  0  0
 86 79  1  0  0  0  0
 94 87  1  0  0  0  0
119103  1  0  0  0  0
  1120  1  0  0  0  0
  6121  1  0  0  0  0
  9122  1  0  0  0  0
 17123  1  0  0  0  0
 18124  1  0  0  0  0
 19125  1  0  0  0  0
 20126  1  0  0  0  0
 21127  1  0  0  0  0
 22128  1  0  0  0  0
 22129  1  0  0  0  0
 23130  1  0  0  0  0
 26131  1  0  0  0  0
 28132  1  0  0  0  0
 28133  1  0  0  0  0
 29134  1  0  0  0  0
 29135  1  0  0  0  0
 29136  1  0  0  0  0
 37137  1  0  0  0  0
 37138  1  0  0  0  0
 38139  1  0  0  0  0
 38140  1  0  0  0  0
 38141  1  0  0  0  0
 39142  1  0  0  0  0
 46143  1  0  0  0  0
 46144  1  0  0  0  0
 47145  1  0  0  0  0
 47146  1  0  0  0  0
 47147  1  0  0  0  0
 48148  1  0  0  0  0
 48149  1  0  0  0  0
 49150  1  0  0  0  0
 49151  1  0  0  0  0
 49152  1  0  0  0  0
 51153  1  0  0  0  0
 52154  1  0  0  0  0
 59155  1  0  0  0  0
 60156  1  0  0  0  0
 63157  1  0  0  0  0
 63158  1  0  0  0  0
 63159  1  0  0  0  0
 64160  1  0  0  0  0
 65161  1  0  0  0  0
 67162  1  0  0  0  0
 68163  1  0  0  0  0
 71164  1  0  0  0  0
 71165  1  0  0  0  0
 71166  1  0  0  0  0
 72167  1  0  0  0  0
 73168  1  0  0  0  0
 80169  1  0  0  0  0
 81170  1  0  0  0  0
 84171  1  0  0  0  0
 84172  1  0  0  0  0
 84173  1  0  0  0  0
 85174  1  0  0  0  0
 86175  1  0  0  0  0
 88176  1  0  0  0  0
 89177  1  0  0  0  0
 92178  1  0  0  0  0
 92179  1  0  0  0  0
 92180  1  0  0  0  0
 93181  1  0  0  0  0
 94182  1  0  0  0  0
 97183  1  0  0  0  0
102184  1  0  0  0  0
105185  1  0  0  0  0
113186  1  0  0  0  0
114187  1  0  0  0  0
115188  1  0  0  0  0
116189  1  0  0  0  0
117190  1  0  0  0  0
118191  1  0  0  0  0
118192  1  0  0  0  0
119193  1  0  0  0  0
M  END
