162

C          2.01670        1.36080        9.04780
C          2.27040        0.17470        9.65040
C          2.58870       -1.07850        8.91460
O          2.56300       -1.26670        7.71730
C          3.05780       -2.02990        9.93990
C          3.49780       -3.33470        9.72520
C          3.87610       -3.99420       10.86910
C          3.83740       -3.39540       12.13610
C          3.41830       -2.10630       12.36140
C          3.01320       -1.42150       11.21120
C          2.49390       -0.06640       11.06400
C          2.17900        0.79320       12.08170
C          2.37490        0.51730       13.45130
N          2.50810        0.35690       14.58020
C          1.57820        2.05860       11.90510
N          1.06570        3.08440       11.85190
C          4.34690       -4.63610       12.82530
C          3.31740       -5.50710       13.58770
C          1.98200       -5.26930       12.92740
C          2.01630       -5.83650       11.72900
C          3.37590       -6.46800       11.55720
C          3.66460       -6.88740       13.00740
C          4.38760       -5.30370       11.41470
C          1.69800        1.51490        7.65130
C          0.73890        0.73420        6.99820
O          0.03150       -0.10830        7.77760
C         -0.47130       -1.33960        7.26410
C         -0.61250       -2.29770        8.43700
C          0.46870        0.93580        5.61870
O         -0.58380        0.26110        5.02880
C         -1.82700        0.94860        5.17990
C         -2.91270        0.14570        4.48660
C          1.20450        1.81450        4.82410
C          2.15640        2.63550        5.48420
C          2.35260        2.51550        6.90200
N          3.25860        3.37780        7.35980
S          3.79950        4.26110        6.12940
N          2.92700        3.58550        4.95990
C          1.00340        1.89310        3.40600
C          1.59490        2.76570        2.53530
C          1.24570        2.55440        1.18260
C          1.66960        3.28100        0.04750
C          2.50630        4.45580        0.14700
C          3.48270        4.86600       -0.72100
C          4.08870        6.06910       -0.32740
F          5.09530        6.61410       -1.03500
C          3.57590        6.62330        0.81570
S          4.01660        8.07030        1.69450
C          4.38240        9.24110        0.33370
C          3.16590        9.50530       -0.53000
S          2.31380        5.61340        1.43930
C          1.23190        2.81190       -1.18930
C          0.37450        1.69320       -1.32820
C         -0.10330        1.00990       -0.19020
C         -1.06150       -0.06360       -0.31510
S         -0.96580       -1.47690        0.70200
C         -2.37020       -2.18220       -0.03270
S         -3.02980       -3.74100        0.39250
C         -1.97370       -4.23380        1.80010
C         -2.31950       -3.50210        3.08220
C         -2.85420       -1.34320       -1.00350
C         -2.12590       -0.15520       -1.17080
F         -3.94220       -1.62350       -1.74310
C          0.37820        1.44250        1.04000
S         -0.02740        0.74760        2.58360
C          0.11680        1.39000       -2.68280
C          0.68980        2.26150       -3.56750
S          1.62050        3.49610       -2.74590
C          0.62440        2.25920       -5.00310
C         -0.15820        1.37670       -5.75330
O         -0.92960        0.45750       -5.09680
C         -2.33610        0.47760       -5.36500
C         -2.94780        1.85580       -5.15990
C         -0.15560        1.39530       -7.17500
O         -0.79800        0.40800       -7.87180
C         -0.33060       -0.92540       -7.67380
C         -1.13020       -1.82140       -8.60510
C          0.49730        2.39190       -7.90240
C          1.28560        3.30290       -7.16420
C          1.36640        3.21980       -5.73610
N          2.16750        4.15410       -5.23100
S          2.75720        5.04540       -6.43520
N          2.02520        4.29580       -7.65230
C          0.49680        2.42440       -9.33910
C         -0.57440        2.07720      -10.08850
C         -1.96050        1.90880       -9.56100
O         -2.43340        2.40690       -8.56480
C         -2.67500        1.13620      -10.59420
C         -3.94150        0.56420      -10.49240
C         -4.33280       -0.13320      -11.60950
C         -3.53160       -0.23930      -12.75550
C         -2.29170        0.33810      -12.88000
C         -1.86730        1.04220      -11.74700
C         -0.60480        1.73320      -11.50130
C          0.37010        1.98500      -12.42720
C          1.57960        2.66210      -12.15920
N          2.58590        3.19520      -12.01550
C          0.28590        1.62990      -13.79030
N          0.27780        1.36890      -14.90820
C         -4.53600       -1.10310      -13.47590
C         -4.22310       -2.61390      -13.53200
C         -5.55790       -3.24680      -13.85180
C         -6.32190       -3.14400      -12.77180
C         -5.51560       -2.44150      -11.70330
C         -4.11450       -2.96650      -12.04260
C         -5.43090       -0.98260      -12.20090
H          2.12540        2.28500        9.60160
H          3.51960       -3.75580        8.73200
H          3.40550       -1.65520       13.33960
H          5.28390       -4.53120       13.36820
H          3.34490       -5.39590       14.66820
H          1.19490       -4.68210       13.36320
H          1.26320       -5.81740       10.96280
H          3.45660       -7.23300       10.78930
H          4.69960       -7.18140       13.17630
H          2.99720       -7.67230       13.35950
H          5.35200       -5.63570       11.03500
H          0.22030       -1.73710        6.51590
H         -1.45160       -1.18600        6.80060
H         -1.22360       -1.84390        9.21290
H         -1.08650       -3.21620        8.10130
H          0.36080       -2.53540        8.85620
H         -1.74820        1.94880        4.73210
H         -2.05460        1.07100        6.24800
H         -2.68120        0.05090        3.43010
H         -3.86660        0.65250        4.59970
H         -2.98460       -0.84870        4.91890
H          2.27760        3.51860        2.87920
H          3.80480        4.31810       -1.58610
H          4.70330       10.14300        0.85400
H          5.21540        8.84640       -0.24420
H          3.40560       10.25880       -1.27720
H          2.85280        8.59930       -1.04510
H          2.33700        9.86410        0.07650
H         -2.15580       -5.30380        1.89820
H         -0.93710       -4.06950        1.50710
H         -3.37330       -3.62950        3.31920
H         -1.72480       -3.90340        3.90000
H         -2.10260       -2.44090        2.99420
H         -2.41780        0.61210       -1.86290
H         -0.43950        0.52940       -2.99610
H         -2.54790        0.13300       -6.38170
H         -2.73980       -0.24530       -4.65070
H         -2.62040        2.28400       -4.21410
H         -2.65750        2.51970       -5.97140
H         -4.03070        1.77040       -5.15410
H          0.73900       -0.96950       -7.92170
H         -0.45830       -1.23770       -6.63160
H         -0.99000       -1.50660       -9.63660
H         -0.80100       -2.85060       -8.49740
H         -2.18910       -1.75860       -8.36690
H          1.43550        2.70340       -9.79870
H         -4.52740        0.67300       -9.59310
H         -1.68890        0.25190      -13.76870
H         -4.91320       -0.71140      -14.41830
H         -3.38770       -2.88170      -14.17300
H         -5.81930       -3.64020      -14.81650
H         -7.34930       -3.43470      -12.65430
H         -5.85900       -2.55460      -10.67850
H         -4.02660       -4.03950      -11.87980
H         -3.30920       -2.45260      -11.52050
H         -6.40490       -0.50550      -12.29140
