173

C         -3.94020       -5.71880        1.59080
C         -3.75330       -6.91220        0.93490
C         -2.76680       -7.19900       -0.11120
O         -1.76810       -6.55810       -0.39610
C         -3.19820       -8.45590       -0.74800
C         -2.62260       -9.08060       -1.85180
C         -3.24660      -10.24840       -2.22050
C         -4.36370      -10.75630       -1.54500
C         -4.94770      -10.14410       -0.46060
C         -4.32700       -8.95540       -0.06770
C         -4.65320       -8.03930        1.02330
C         -5.64210       -8.23460        1.95620
C         -6.57430       -9.29050        1.93640
N         -7.39220      -10.09570        1.99160
C         -5.86310       -7.43340        3.09190
N         -6.10340       -6.86570        4.06300
C         -4.46650      -11.95730       -2.45210
C         -3.94430      -13.29550       -1.88780
C         -3.72670      -14.14620       -3.11820
C         -2.66950      -13.66510       -3.75960
C         -2.15470      -12.48110       -2.97330
C         -2.48970      -12.94410       -1.54950
C         -3.22110      -11.39000       -3.20640
C         -3.27380       -4.49880        1.45440
C         -3.74680       -3.27130        1.98040
N         -4.97900       -3.07520        2.54950
C         -6.11130       -3.80700        2.14120
C         -6.30640       -4.12290        0.79480
C         -7.35450       -4.93130        0.42210
C         -8.24600       -5.41980        1.37850
S         -9.49800       -6.52200        0.80710
C        -10.07720       -7.32510        2.32760
C         -8.10930       -5.02580        2.70230
C         -7.04340       -4.23240        3.08190
C         -5.15080       -2.03500        3.47790
C         -6.28290       -1.22220        3.42520
C         -6.42880       -0.18290        4.31540
C         -5.44860        0.07000        5.27340
S         -5.71780        1.44560        6.34450
C         -4.05570        1.78970        6.99190
C         -4.33890       -0.76050        5.35290
C         -4.19410       -1.80580        4.46280
C         -2.80810       -2.24100        1.77050
S         -2.73340       -0.55490        2.17910
C         -1.22100       -0.39960        1.32130
C         -0.76560       -1.60010        0.80590
N          0.45420       -1.78970        0.17530
C          0.54490       -2.81690       -0.77930
C          1.59220       -3.73240       -0.73540
C          1.60560       -4.81140       -1.59400
C          0.57260       -4.99050       -2.50500
S          0.49790       -6.40860       -3.55970
C          1.03250       -7.71260       -2.40760
C         -0.43590       -4.04070       -2.60180
C         -0.45000       -2.96080       -1.74520
C          1.58730       -1.07150        0.56500
C          2.50360       -0.64250       -0.39210
C          3.57330        0.15610       -0.03750
C          3.74190        0.54520        1.28340
S          5.04770        1.60250        1.83170
C          5.54600        2.47530        0.32040
C          2.86220        0.07110        2.25400
C          1.80280       -0.73350        1.90280
C         -1.68320       -2.64810        1.06400
S         -1.72640       -4.31590        0.62810
C         -0.51930        0.86480        1.25700
C          0.02170        1.32580        0.07340
C          0.84450        2.44900        0.03970
C          1.18300        3.14130        1.18420
C          0.59340        2.73410        2.41110
N          0.84070        3.42510        3.54090
C          0.29390        3.00520        4.64930
C         -0.52800        1.86380        4.68530
N         -0.81080        1.18720        3.60540
C         -0.27410        1.60560        2.44380
C          2.15040        4.23750        1.13380
C          2.09490        5.17620        0.09640
C          3.02810        6.18720       -0.01690
C          4.07790        6.24300        0.89610
C          5.13930        7.18580        1.12010
C          5.83870        6.72300        2.36930
O          6.87140        7.11330        2.85490
N          5.15360        5.60720        2.80380
C          5.51320        4.86090        3.97850
C          4.09520        5.32450        1.97330
C          3.14620        4.33420        2.10730
C          5.51080        8.28570        0.40070
C          6.13380        9.50790        1.00730
O          6.41380        9.74510        2.15540
N          6.19650       10.44870       -0.00620
C          6.72410       11.77170        0.18370
C          5.73160        9.93360       -1.19210
C          5.68380       10.52480       -2.43230
C          5.17610        9.77980       -3.51230
C          4.86320        8.42390       -3.32960
C          4.93370        7.83160       -2.08590
C          5.29250        8.60160       -0.98430
C          5.07380       10.43090       -4.78830
C          4.16470       10.20830       -5.77560
C          2.88380        9.46030       -5.64130
O          2.50050        8.77260       -4.72180
C          2.10970        9.79320       -6.85480
C          0.82950        9.39270       -7.19060
C          0.29130        9.83220       -8.38870
C          1.04040       10.66250       -9.21370
Br         0.27570       11.26160      -10.84620
C          2.32720       11.07540       -8.89070
C          2.86530       10.62890       -7.69420
C          4.16510       10.86880       -7.07250
C          5.21410       11.52960       -7.65080
C          5.16420       12.13000       -8.92780
N          5.18320       12.64010       -9.95540
C          6.49590       11.68130       -7.07750
N          7.56560       11.83540       -6.69060
H         -4.77310       -5.69190        2.28090
H         -1.77320       -8.64770       -2.35550
H         -5.81520      -10.53940        0.04120
H         -5.40280      -12.06170       -2.99670
H         -4.55340      -13.72460       -1.09690
H         -4.37610      -14.94860       -3.41530
H         -2.25940      -13.98510       -4.69950
H         -1.13240      -12.16990       -3.17200
H         -2.38510      -12.16750       -0.79400
H         -1.91290      -13.81920       -1.25470
H         -3.32720      -11.11510       -4.25420
H         -5.61340       -3.75640        0.05230
H         -7.49560       -5.20230       -0.61290
H        -10.68400       -6.63840        2.91070
H         -9.22460       -7.68370        2.89640
H        -10.68140       -8.16590        2.00160
H         -8.80550       -5.35500        3.45540
H         -6.91690       -3.96630        4.11970
H         -7.03490       -1.40130        2.67160
H         -7.29610        0.45730        4.26980
H         -3.77030        1.04080        7.72520
H         -4.11910        2.76280        7.46910
H         -3.35380        1.82440        6.16390
H         -3.58420       -0.61060        6.10740
H         -3.33560       -2.45660        4.53560
H          2.37930       -3.60640       -0.00650
H          2.41390       -5.52320       -1.53530
H          2.10860       -7.68220       -2.26520
H          0.50660       -7.57230       -1.46770
H          0.75590       -8.65730       -2.86580
H         -1.21730       -4.17030       -3.33420
H         -1.24970       -2.23620       -1.79770
H          2.36470       -0.92820       -1.42450
H          4.26140        0.47960       -0.80210
H          6.09420        1.80830       -0.33860
H          6.19590        3.28280        0.64360
H          4.66430        2.88090       -0.16710
H          3.02240        0.34200        3.28680
H          1.12410       -1.09390        2.66120
H         -0.17940        0.79150       -0.84310
H          1.27090        2.75130       -0.90560
H          0.50360        3.57950        5.54180
H         -0.95560        1.50430        5.61210
H          1.28210        5.12610       -0.61220
H          2.92630        6.92820       -0.79300
H          6.43100        5.29630        4.37180
H          5.68170        3.81210        3.72620
H          4.72630        4.92780        4.73250
H          3.17520        3.63870        2.92770
H          7.00710       11.85870        1.23220
H          5.96880       12.52420       -0.05160
H          7.60290       11.93220       -0.44440
H          5.99930       11.54600       -2.58000
H          4.59320        7.82640       -4.18370
H          4.72970        6.77860       -1.97800
H          5.78700       11.23300       -4.94150
H          0.27100        8.75070       -6.52740
H         -0.70320        9.53820       -8.68640
H          2.86900       11.72510       -9.55850
