
  xtb     02162206533D
 energy: -409.642466641551 gnorm: 0.000375477622 xtb: 6.4.1 (unknown)
250276  0     0  0            999 V2000
   -5.3525    7.5725    0.1871 C   0  0  0  0  0  0  0  0  0  0  0  0
   -5.1607    8.8384    0.6828 C   0  0  0  0  0  0  0  0  0  0  0  0
   -3.8816    9.4670    1.0504 C   0  0  0  0  0  0  0  0  0  0  0  0
   -2.7698    9.2223    0.6181 O   0  0  0  0  0  0  0  0  0  0  0  0
   -4.2161   10.5145    2.0331 C   0  0  0  0  0  0  0  0  0  0  0  0
   -3.3264   11.2731    2.7897 C   0  0  0  0  0  0  0  0  0  0  0  0
   -3.9375   12.1843    3.6178 C   0  0  0  0  0  0  0  0  0  0  0  0
   -5.3288   12.3336    3.6882 C   0  0  0  0  0  0  0  0  0  0  0  0
   -6.2180   11.5886    2.9494 C   0  0  0  0  0  0  0  0  0  0  0  0
   -5.6172   10.6519    2.1045 C   0  0  0  0  0  0  0  0  0  0  0  0
   -6.2164    9.6947    1.1785 C   0  0  0  0  0  0  0  0  0  0  0  0
   -7.5247    9.6877    0.7644 C   0  0  0  0  0  0  0  0  0  0  0  0
   -8.5310   10.5210    1.2916 C   0  0  0  0  0  0  0  0  0  0  0  0
   -9.3975   11.1604    1.6909 N   0  0  0  0  0  0  0  0  0  0  0  0
   -7.9980    8.9460   -0.3329 C   0  0  0  0  0  0  0  0  0  0  0  0
   -8.4364    8.4496   -1.2722 N   0  0  0  0  0  0  0  0  0  0  0  0
   -5.2401   13.4163    4.7353 C   0  0  0  0  0  0  0  0  0  0  0  0
   -5.5563   12.9981    6.1867 C   0  0  0  0  0  0  0  0  0  0  0  0
   -4.9322   14.0919    7.0230 C   0  0  0  0  0  0  0  0  0  0  0  0
   -3.6147   13.9486    6.9567 C   0  0  0  0  0  0  0  0  0  0  0  0
   -3.3258   12.7559    6.0741 C   0  0  0  0  0  0  0  0  0  0  0  0
   -4.5353   11.8762    6.4163 C   0  0  0  0  0  0  0  0  0  0  0  0
   -3.6886   13.2488    4.6572 C   0  0  0  0  0  0  0  0  0  0  0  0
   -4.3970    6.6161   -0.1848 C   0  0  0  0  0  0  0  0  0  0  0  0
   -4.6354    5.2286   -0.2814 C   0  0  0  0  0  0  0  0  0  0  0  0
   -5.8134    4.5639   -0.0100 N   0  0  0  0  0  0  0  0  0  0  0  0
   -5.7053    3.3232    0.6460 C   0  0  0  0  0  0  0  0  0  0  0  0
   -6.4289    2.2065    0.2280 C   0  0  0  0  0  0  0  0  0  0  0  0
   -6.2296    0.9862    0.8334 C   0  0  0  0  0  0  0  0  0  0  0  0
   -5.3058    0.8451    1.8690 C   0  0  0  0  0  0  0  0  0  0  0  0
   -5.0861   -0.7805    2.5137 S   0  0  0  0  0  0  0  0  0  0  0  0
   -3.8309   -0.5850    3.8086 C   0  0  0  0  0  0  0  0  0  0  0  0
   -4.6201    1.9651    2.3213 C   0  0  0  0  0  0  0  0  0  0  0  0
   -4.8252    3.1895    1.7182 C   0  0  0  0  0  0  0  0  0  0  0  0
   -7.0359    4.9545   -0.5729 C   0  0  0  0  0  0  0  0  0  0  0  0
   -8.2272    4.7174    0.1130 C   0  0  0  0  0  0  0  0  0  0  0  0
   -9.4315    5.0654   -0.4563 C   0  0  0  0  0  0  0  0  0  0  0  0
   -9.4714    5.6600   -1.7156 C   0  0  0  0  0  0  0  0  0  0  0  0
  -11.0557    6.0637   -2.3686 S   0  0  0  0  0  0  0  0  0  0  0  0
  -10.6686    7.3977   -3.5387 C   0  0  0  0  0  0  0  0  0  0  0  0
   -8.2856    5.8868   -2.4051 C   0  0  0  0  0  0  0  0  0  0  0  0
   -7.0787    5.5395   -1.8367 C   0  0  0  0  0  0  0  0  0  0  0  0
   -3.4480    4.5371   -0.5813 C   0  0  0  0  0  0  0  0  0  0  0  0
   -3.0781    2.8690   -0.8228 S   0  0  0  0  0  0  0  0  0  0  0  0
   -1.3925    3.2719   -1.1470 C   0  0  0  0  0  0  0  0  0  0  0  0
   -1.1455    4.6217   -1.0436 C   0  0  0  0  0  0  0  0  0  0  0  0
    0.1014    5.2260   -1.1123 N   0  0  0  0  0  0  0  0  0  0  0  0
    0.9998    4.9642   -2.1506 C   0  0  0  0  0  0  0  0  0  0  0  0
    0.5499    4.7059   -3.4409 C   0  0  0  0  0  0  0  0  0  0  0  0
    1.4464    4.5117   -4.4739 C   0  0  0  0  0  0  0  0  0  0  0  0
    2.8108    4.5736   -4.2313 C   0  0  0  0  0  0  0  0  0  0  0  0
    4.0413    4.3449   -5.4778 S   0  0  0  0  0  0  0  0  0  0  0  0
    3.1034    4.3070   -7.0296 C   0  0  0  0  0  0  0  0  0  0  0  0
    3.2663    4.8183   -2.9373 C   0  0  0  0  0  0  0  0  0  0  0  0
    2.3730    5.0128   -1.9074 C   0  0  0  0  0  0  0  0  0  0  0  0
    0.2915    6.3490   -0.2846 C   0  0  0  0  0  0  0  0  0  0  0  0
   -0.0848    6.2861    1.0568 C   0  0  0  0  0  0  0  0  0  0  0  0
   -0.0351    7.4136    1.8465 C   0  0  0  0  0  0  0  0  0  0  0  0
    0.3995    8.6212    1.3119 C   0  0  0  0  0  0  0  0  0  0  0  0
    0.3671   10.0438    2.3575 S   0  0  0  0  0  0  0  0  0  0  0  0
    0.1478   11.3902    1.1542 C   0  0  0  0  0  0  0  0  0  0  0  0
    0.8444    8.6707   -0.0018 C   0  0  0  0  0  0  0  0  0  0  0  0
    0.7861    7.5438   -0.7960 C   0  0  0  0  0  0  0  0  0  0  0  0
   -2.3371    5.3441   -0.7541 C   0  0  0  0  0  0  0  0  0  0  0  0
   -2.7023    7.0072   -0.4980 S   0  0  0  0  0  0  0  0  0  0  0  0
   -0.4698    2.1617   -1.2339 C   0  0  0  0  0  0  0  0  0  0  0  0
   -0.0744    1.3821   -2.2981 C   0  0  0  0  0  0  0  0  0  0  0  0
   -0.3418    1.6302   -3.6392 N   0  0  0  0  0  0  0  0  0  0  0  0
    0.6705    1.3827   -4.5695 C   0  0  0  0  0  0  0  0  0  0  0  0
    0.3761    0.9897   -5.8756 C   0  0  0  0  0  0  0  0  0  0  0  0
    1.3923    0.7446   -6.7727 C   0  0  0  0  0  0  0  0  0  0  0  0
    2.7269    0.8592   -6.3868 C   0  0  0  0  0  0  0  0  0  0  0  0
    3.9445    0.5288   -7.6241 S   0  0  0  0  0  0  0  0  0  0  0  0
    5.5154    0.8815   -6.7867 C   0  0  0  0  0  0  0  0  0  0  0  0
    3.0258    1.2308   -5.0839 C   0  0  0  0  0  0  0  0  0  0  0  0
    2.0075    1.5061   -4.1939 C   0  0  0  0  0  0  0  0  0  0  0  0
   -1.6470    1.9737   -4.0227 C   0  0  0  0  0  0  0  0  0  0  0  0
   -2.7339    1.3657   -3.4035 C   0  0  0  0  0  0  0  0  0  0  0  0
   -4.0287    1.7537   -3.6923 C   0  0  0  0  0  0  0  0  0  0  0  0
   -4.2588    2.7647   -4.6130 C   0  0  0  0  0  0  0  0  0  0  0  0
   -5.8572    3.4112   -4.9947 S   0  0  0  0  0  0  0  0  0  0  0  0
   -6.9376    2.6257   -3.7682 C   0  0  0  0  0  0  0  0  0  0  0  0
   -3.1777    3.3254   -5.2923 C   0  0  0  0  0  0  0  0  0  0  0  0
   -1.8895    2.9314   -5.0089 C   0  0  0  0  0  0  0  0  0  0  0  0
    0.6575    0.2477   -1.8531 C   0  0  0  0  0  0  0  0  0  0  0  0
    1.3160   -1.1434   -2.6411 S   0  0  0  0  0  0  0  0  0  0  0  0
    1.6929   -1.8662   -1.0906 C   0  0  0  0  0  0  0  0  0  0  0  0
    1.3572   -1.0525   -0.0301 C   0  0  0  0  0  0  0  0  0  0  0  0
    1.6230   -1.3350    1.3212 N   0  0  0  0  0  0  0  0  0  0  0  0
    0.7084   -2.0692    2.0712 C   0  0  0  0  0  0  0  0  0  0  0  0
    1.1225   -2.7464    3.2185 C   0  0  0  0  0  0  0  0  0  0  0  0
    0.2182   -3.4398    3.9960 C   0  0  0  0  0  0  0  0  0  0  0  0
   -1.1194   -3.4907    3.6288 C   0  0  0  0  0  0  0  0  0  0  0  0
   -2.3779   -4.2502    4.6155 S   0  0  0  0  0  0  0  0  0  0  0  0
   -1.4425   -5.2572    5.7994 C   0  0  0  0  0  0  0  0  0  0  0  0
   -1.5279   -2.8780    2.4479 C   0  0  0  0  0  0  0  0  0  0  0  0
   -0.6281   -2.1728    1.6786 C   0  0  0  0  0  0  0  0  0  0  0  0
    2.6484   -0.5831    1.9096 C   0  0  0  0  0  0  0  0  0  0  0  0
    3.8005   -0.3055    1.1779 C   0  0  0  0  0  0  0  0  0  0  0  0
    4.8232    0.4489    1.7204 C   0  0  0  0  0  0  0  0  0  0  0  0
    4.7134    0.9405    3.0128 C   0  0  0  0  0  0  0  0  0  0  0  0
    5.9528    1.9053    3.8220 S   0  0  0  0  0  0  0  0  0  0  0  0
    7.2954    2.0057    2.6044 C   0  0  0  0  0  0  0  0  0  0  0  0
    3.5569    0.6775    3.7450 C   0  0  0  0  0  0  0  0  0  0  0  0
    2.5345   -0.0663    3.2014 C   0  0  0  0  0  0  0  0  0  0  0  0
    0.7780    0.1554   -0.4788 C   0  0  0  0  0  0  0  0  0  0  0  0
    0.0392    1.4910    0.3198 S   0  0  0  0  0  0  0  0  0  0  0  0
    2.2659   -3.1758   -1.0118 C   0  0  0  0  0  0  0  0  0  0  0  0
    1.9567   -4.1434   -0.1062 C   0  0  0  0  0  0  0  0  0  0  0  0
    2.7017   -5.3346   -0.2744 C   0  0  0  0  0  0  0  0  0  0  0  0
    2.5729   -6.5313    0.4535 C   0  0  0  0  0  0  0  0  0  0  0  0
    1.4908   -6.7538    1.3905 C   0  0  0  0  0  0  0  0  0  0  0  0
    1.4896   -7.4765    2.5504 C   0  0  0  0  0  0  0  0  0  0  0  0
    0.2080   -7.6166    3.1191 C   0  0  0  0  0  0  0  0  0  0  0  0
   -0.7788   -7.0177    2.3968 C   0  0  0  0  0  0  0  0  0  0  0  0
   -2.2512   -7.0529    2.6173 C   0  0  0  0  0  0  0  0  0  0  0  0
   -2.9153   -8.0631    1.6790 C   0  0  0  0  0  0  0  0  0  0  0  0
   -0.1281   -6.2258    1.0022 S   0  0  0  0  0  0  0  0  0  0  0  0
    3.4889   -7.5378    0.1551 C   0  0  0  0  0  0  0  0  0  0  0  0
    4.4561   -7.4142   -0.8779 C   0  0  0  0  0  0  0  0  0  0  0  0
    4.5133   -6.2473   -1.6806 C   0  0  0  0  0  0  0  0  0  0  0  0
    5.3952   -6.1556   -2.8215 C   0  0  0  0  0  0  0  0  0  0  0  0
    5.7006   -7.1238   -3.7398 C   0  0  0  0  0  0  0  0  0  0  0  0
    6.5644   -6.6758   -4.7570 C   0  0  0  0  0  0  0  0  0  0  0  0
    6.9328   -5.3719   -4.6212 C   0  0  0  0  0  0  0  0  0  0  0  0
    7.8039   -4.5512   -5.5080 C   0  0  0  0  0  0  0  0  0  0  0  0
    7.0100   -3.4346   -6.1889 C   0  0  0  0  0  0  0  0  0  0  0  0
    6.1996   -4.6627   -3.2212 S   0  0  0  0  0  0  0  0  0  0  0  0
    3.6479   -5.2229   -1.3244 C   0  0  0  0  0  0  0  0  0  0  0  0
    3.5162   -3.6783   -2.1264 S   0  0  0  0  0  0  0  0  0  0  0  0
    5.2641   -8.5585   -0.9562 C   0  0  0  0  0  0  0  0  0  0  0  0
    4.9266   -9.5551   -0.0585 C   0  0  0  0  0  0  0  0  0  0  0  0
    3.5746   -9.0829    0.9484 S   0  0  0  0  0  0  0  0  0  0  0  0
    5.6238  -10.7810   -0.0178 C   0  0  0  0  0  0  0  0  0  0  0  0
    5.4430  -11.8828    0.7688 C   0  0  0  0  0  0  0  0  0  0  0  0
    4.4437  -12.0366    1.8420 C   0  0  0  0  0  0  0  0  0  0  0  0
    3.6079  -11.2302    2.2026 O   0  0  0  0  0  0  0  0  0  0  0  0
    4.6574  -13.3759    2.4140 C   0  0  0  0  0  0  0  0  0  0  0  0
    3.9459  -13.9583    3.4604 C   0  0  0  0  0  0  0  0  0  0  0  0
    4.3642  -15.2264    3.7830 C   0  0  0  0  0  0  0  0  0  0  0  0
    5.4186  -15.8659    3.1168 C   0  0  0  0  0  0  0  0  0  0  0  0
    6.1305  -15.3008    2.0859 C   0  0  0  0  0  0  0  0  0  0  0  0
    5.7168  -14.0116    1.7358 C   0  0  0  0  0  0  0  0  0  0  0  0
    6.2180  -13.1103    0.7005 C   0  0  0  0  0  0  0  0  0  0  0  0
    7.2298  -13.4019   -0.1778 C   0  0  0  0  0  0  0  0  0  0  0  0
    7.7162  -12.5566   -1.1972 C   0  0  0  0  0  0  0  0  0  0  0  0
    8.1755  -11.9425   -2.0532 N   0  0  0  0  0  0  0  0  0  0  0  0
    7.9435  -14.6191   -0.2007 C   0  0  0  0  0  0  0  0  0  0  0  0
    8.5694  -15.5781   -0.2847 N   0  0  0  0  0  0  0  0  0  0  0  0
    5.2913  -17.1167    3.9495 C   0  0  0  0  0  0  0  0  0  0  0  0
    4.5988  -18.3428    3.3045 C   0  0  0  0  0  0  0  0  0  0  0  0
    3.6564  -17.8018    2.2580 C   0  0  0  0  0  0  0  0  0  0  0  0
    2.6573  -17.1971    2.8866 C   0  0  0  0  0  0  0  0  0  0  0  0
    2.9061  -17.3181    4.3698 C   0  0  0  0  0  0  0  0  0  0  0  0
    3.5969  -18.6903    4.4172 C   0  0  0  0  0  0  0  0  0  0  0  0
    4.1156  -16.4049    4.6903 C   0  0  0  0  0  0  0  0  0  0  0  0
   -6.3775    7.2144    0.1681 H   0  0  0  0  0  0  0  0  0  0  0  0
   -2.2617   11.1194    2.7180 H   0  0  0  0  0  0  0  0  0  0  0  0
   -7.2869   11.7063    3.0178 H   0  0  0  0  0  0  0  0  0  0  0  0
   -5.6754   14.3761    4.4640 H   0  0  0  0  0  0  0  0  0  0  0  0
   -6.6019   12.7722    6.3776 H   0  0  0  0  0  0  0  0  0  0  0  0
   -5.4932   14.8648    7.5149 H   0  0  0  0  0  0  0  0  0  0  0  0
   -2.8553   14.5780    7.3825 H   0  0  0  0  0  0  0  0  0  0  0  0
   -2.3396   12.3081    6.1613 H   0  0  0  0  0  0  0  0  0  0  0  0
   -4.5195   11.5398    7.4517 H   0  0  0  0  0  0  0  0  0  0  0  0
   -4.6610   11.0194    5.7570 H   0  0  0  0  0  0  0  0  0  0  0  0
   -3.0887   14.0983    4.3357 H   0  0  0  0  0  0  0  0  0  0  0  0
   -7.1401    2.2967   -0.5796 H   0  0  0  0  0  0  0  0  0  0  0  0
   -6.7763    0.1182    0.4985 H   0  0  0  0  0  0  0  0  0  0  0  0
   -3.6799   -1.5791    4.2196 H   0  0  0  0  0  0  0  0  0  0  0  0
   -4.1980    0.0823    4.5828 H   0  0  0  0  0  0  0  0  0  0  0  0
   -2.9031   -0.2228    3.3748 H   0  0  0  0  0  0  0  0  0  0  0  0
   -3.9193    1.8984    3.1374 H   0  0  0  0  0  0  0  0  0  0  0  0
   -4.2837    4.0551    2.0718 H   0  0  0  0  0  0  0  0  0  0  0  0
   -8.1967    4.2677    1.0945 H   0  0  0  0  0  0  0  0  0  0  0  0
  -10.3554    4.8923    0.0734 H   0  0  0  0  0  0  0  0  0  0  0  0
  -10.2777    6.9876   -4.4657 H   0  0  0  0  0  0  0  0  0  0  0  0
   -9.9597    8.0706   -3.0671 H   0  0  0  0  0  0  0  0  0  0  0  0
  -11.6068    7.9089   -3.7301 H   0  0  0  0  0  0  0  0  0  0  0  0
   -8.2919    6.3260   -3.3886 H   0  0  0  0  0  0  0  0  0  0  0  0
   -6.1598    5.7116   -2.3778 H   0  0  0  0  0  0  0  0  0  0  0  0
   -0.5123    4.6819   -3.6337 H   0  0  0  0  0  0  0  0  0  0  0  0
    1.0723    4.3290   -5.4684 H   0  0  0  0  0  0  0  0  0  0  0  0
    3.8455    4.2411   -7.8195 H   0  0  0  0  0  0  0  0  0  0  0  0
    2.5327    5.2250   -7.1347 H   0  0  0  0  0  0  0  0  0  0  0  0
    2.4607    3.4312   -7.0578 H   0  0  0  0  0  0  0  0  0  0  0  0
    4.3293    4.8583   -2.7538 H   0  0  0  0  0  0  0  0  0  0  0  0
    2.7271    5.2164   -0.9078 H   0  0  0  0  0  0  0  0  0  0  0  0
   -0.4431    5.3517    1.4646 H   0  0  0  0  0  0  0  0  0  0  0  0
   -0.3501    7.3743    2.8780 H   0  0  0  0  0  0  0  0  0  0  0  0
   -0.6365   11.1056    0.4587 H   0  0  0  0  0  0  0  0  0  0  0  0
   -0.1494   12.2650    1.7250 H   0  0  0  0  0  0  0  0  0  0  0  0
    1.0810   11.5963    0.6378 H   0  0  0  0  0  0  0  0  0  0  0  0
    1.2176    9.5893   -0.4254 H   0  0  0  0  0  0  0  0  0  0  0  0
    1.1016    7.5942   -1.8278 H   0  0  0  0  0  0  0  0  0  0  0  0
   -0.6519    0.8709   -6.1827 H   0  0  0  0  0  0  0  0  0  0  0  0
    1.1628    0.4480   -7.7849 H   0  0  0  0  0  0  0  0  0  0  0  0
    5.6694    0.1749   -5.9762 H   0  0  0  0  0  0  0  0  0  0  0  0
    6.2840    0.7486   -7.5417 H   0  0  0  0  0  0  0  0  0  0  0  0
    5.5214    1.9065   -6.4268 H   0  0  0  0  0  0  0  0  0  0  0  0
    4.0446    1.3282   -4.7484 H   0  0  0  0  0  0  0  0  0  0  0  0
    2.2583    1.8306   -3.1950 H   0  0  0  0  0  0  0  0  0  0  0  0
   -2.5649    0.5873   -2.6736 H   0  0  0  0  0  0  0  0  0  0  0  0
   -4.8402    1.2651   -3.1782 H   0  0  0  0  0  0  0  0  0  0  0  0
   -7.0337    1.5639   -3.9769 H   0  0  0  0  0  0  0  0  0  0  0  0
   -7.9035    3.1116   -3.8671 H   0  0  0  0  0  0  0  0  0  0  0  0
   -6.5387    2.7999   -2.7736 H   0  0  0  0  0  0  0  0  0  0  0  0
   -3.3634    4.0870   -6.0344 H   0  0  0  0  0  0  0  0  0  0  0  0
   -1.0631    3.3718   -5.5440 H   0  0  0  0  0  0  0  0  0  0  0  0
    2.1635   -2.7207    3.5034 H   0  0  0  0  0  0  0  0  0  0  0  0
    0.5716   -3.9348    4.8860 H   0  0  0  0  0  0  0  0  0  0  0  0
   -0.9340   -4.6192    6.5168 H   0  0  0  0  0  0  0  0  0  0  0  0
   -2.1786   -5.8688    6.3121 H   0  0  0  0  0  0  0  0  0  0  0  0
   -0.7402   -5.8871    5.2612 H   0  0  0  0  0  0  0  0  0  0  0  0
   -2.5625   -2.9428    2.1475 H   0  0  0  0  0  0  0  0  0  0  0  0
   -0.9628   -1.6901    0.7730 H   0  0  0  0  0  0  0  0  0  0  0  0
    3.9027   -0.6891    0.1736 H   0  0  0  0  0  0  0  0  0  0  0  0
    5.6996    0.6386    1.1220 H   0  0  0  0  0  0  0  0  0  0  0  0
    8.0811    2.5812    3.0839 H   0  0  0  0  0  0  0  0  0  0  0  0
    7.6590    1.0095    2.3696 H   0  0  0  0  0  0  0  0  0  0  0  0
    6.9522    2.5226    1.7129 H   0  0  0  0  0  0  0  0  0  0  0  0
    3.4679    1.0763    4.7440 H   0  0  0  0  0  0  0  0  0  0  0  0
    1.6357   -0.2426    3.7726 H   0  0  0  0  0  0  0  0  0  0  0  0
    1.2065   -4.0134    0.6499 H   0  0  0  0  0  0  0  0  0  0  0  0
    2.3785   -7.8858    2.9946 H   0  0  0  0  0  0  0  0  0  0  0  0
    0.0241   -8.1663    4.0261 H   0  0  0  0  0  0  0  0  0  0  0  0
   -2.4522   -7.3321    3.6535 H   0  0  0  0  0  0  0  0  0  0  0  0
   -2.6790   -6.0649    2.4378 H   0  0  0  0  0  0  0  0  0  0  0  0
   -2.5074   -9.0582    1.8425 H   0  0  0  0  0  0  0  0  0  0  0  0
   -2.7408   -7.7843    0.6422 H   0  0  0  0  0  0  0  0  0  0  0  0
   -3.9874   -8.0907    1.8565 H   0  0  0  0  0  0  0  0  0  0  0  0
    5.2771   -8.1119   -3.7171 H   0  0  0  0  0  0  0  0  0  0  0  0
    6.9002   -7.3022   -5.5643 H   0  0  0  0  0  0  0  0  0  0  0  0
    8.6118   -4.1071   -4.9199 H   0  0  0  0  0  0  0  0  0  0  0  0
    8.2498   -5.2028   -6.2621 H   0  0  0  0  0  0  0  0  0  0  0  0
    6.2107   -3.8527   -6.7963 H   0  0  0  0  0  0  0  0  0  0  0  0
    6.5669   -2.7804   -5.4412 H   0  0  0  0  0  0  0  0  0  0  0  0
    7.6612   -2.8447   -6.8291 H   0  0  0  0  0  0  0  0  0  0  0  0
    6.0936   -8.6589   -1.6334 H   0  0  0  0  0  0  0  0  0  0  0  0
    6.4236  -10.8273   -0.7473 H   0  0  0  0  0  0  0  0  0  0  0  0
    3.1429  -13.4265    3.9463 H   0  0  0  0  0  0  0  0  0  0  0  0
    6.9396  -15.8083    1.5884 H   0  0  0  0  0  0  0  0  0  0  0  0
    6.1680  -17.3936    4.5314 H   0  0  0  0  0  0  0  0  0  0  0  0
    5.2788  -19.1255    2.9794 H   0  0  0  0  0  0  0  0  0  0  0  0
    3.8373  -17.8627    1.2008 H   0  0  0  0  0  0  0  0  0  0  0  0
    1.8365  -16.6512    2.4595 H   0  0  0  0  0  0  0  0  0  0  0  0
    2.0442  -17.1689    5.0150 H   0  0  0  0  0  0  0  0  0  0  0  0
    4.0691  -18.9059    5.3747 H   0  0  0  0  0  0  0  0  0  0  0  0
    2.9304  -19.5068    4.1435 H   0  0  0  0  0  0  0  0  0  0  0  0
    4.2233  -16.2183    5.7571 H   0  0  0  0  0  0  0  0  0  0  0  0
  1  2  2  0  0  0  0
  2  3  1  0  0  0  0
  3  4  2  0  0  0  0
  3  5  1  0  0  0  0
  5  6  2  0  0  0  0
  6  7  1  0  0  0  0
  7  8  2  0  0  0  0
  8  9  1  0  0  0  0
  9 10  2  0  0  0  0
 10 11  1  0  0  0  0
 11 12  2  0  0  0  0
 12 13  1  0  0  0  0
 13 14  3  0  0  0  0
 12 15  1  0  0  0  0
 15 16  3  0  0  0  0
  8 17  1  0  0  0  0
 17 18  1  0  0  0  0
 18 19  1  0  0  0  0
 19 20  2  0  0  0  0
 20 21  1  0  0  0  0
 21 22  1  0  0  0  0
 21 23  1  0  0  0  0
  1 24  1  0  0  0  0
 24 25  2  0  0  0  0
 25 26  1  0  0  0  0
 26 27  1  0  0  0  0
 27 28  2  0  0  0  0
 28 29  1  0  0  0  0
 29 30  2  0  0  0  0
 30 31  1  0  0  0  0
 31 32  1  0  0  0  0
 30 33  1  0  0  0  0
 33 34  2  0  0  0  0
 26 35  1  0  0  0  0
 35 36  2  0  0  0  0
 36 37  1  0  0  0  0
 37 38  2  0  0  0  0
 38 39  1  0  0  0  0
 39 40  1  0  0  0  0
 38 41  1  0  0  0  0
 41 42  2  0  0  0  0
 25 43  1  0  0  0  0
 43 44  1  0  0  0  0
 44 45  1  0  0  0  0
 45 46  2  0  0  0  0
 46 47  1  0  0  0  0
 47 48  1  0  0  0  0
 48 49  2  0  0  0  0
 49 50  1  0  0  0  0
 50 51  2  0  0  0  0
 51 52  1  0  0  0  0
 52 53  1  0  0  0  0
 51 54  1  0  0  0  0
 54 55  2  0  0  0  0
 47 56  1  0  0  0  0
 56 57  2  0  0  0  0
 57 58  1  0  0  0  0
 58 59  2  0  0  0  0
 59 60  1  0  0  0  0
 60 61  1  0  0  0  0
 59 62  1  0  0  0  0
 62 63  2  0  0  0  0
 46 64  1  0  0  0  0
 64 65  1  0  0  0  0
 45 66  1  0  0  0  0
 66 67  2  0  0  0  0
 67 68  1  0  0  0  0
 68 69  1  0  0  0  0
 69 70  2  0  0  0  0
 70 71  1  0  0  0  0
 71 72  2  0  0  0  0
 72 73  1  0  0  0  0
 73 74  1  0  0  0  0
 72 75  1  0  0  0  0
 75 76  2  0  0  0  0
 68 77  1  0  0  0  0
 77 78  2  0  0  0  0
 78 79  1  0  0  0  0
 79 80  2  0  0  0  0
 80 81  1  0  0  0  0
 81 82  1  0  0  0  0
 80 83  1  0  0  0  0
 83 84  2  0  0  0  0
 67 85  1  0  0  0  0
 85 86  1  0  0  0  0
 86 87  1  0  0  0  0
 87 88  2  0  0  0  0
 88 89  1  0  0  0  0
 89 90  1  0  0  0  0
 90 91  2  0  0  0  0
 91 92  1  0  0  0  0
 92 93  2  0  0  0  0
 93 94  1  0  0  0  0
 94 95  1  0  0  0  0
 93 96  1  0  0  0  0
 96 97  2  0  0  0  0
 89 98  1  0  0  0  0
 98 99  2  0  0  0  0
 99100  1  0  0  0  0
100101  2  0  0  0  0
101102  1  0  0  0  0
102103  1  0  0  0  0
101104  1  0  0  0  0
104105  2  0  0  0  0
 88106  1  0  0  0  0
106107  1  0  0  0  0
 87108  1  0  0  0  0
108109  2  0  0  0  0
109110  1  0  0  0  0
110111  2  0  0  0  0
111112  1  0  0  0  0
112113  2  0  0  0  0
113114  1  0  0  0  0
114115  2  0  0  0  0
115116  1  0  0  0  0
116117  1  0  0  0  0
115118  1  0  0  0  0
111119  1  0  0  0  0
119120  2  0  0  0  0
120121  1  0  0  0  0
121122  1  0  0  0  0
122123  2  0  0  0  0
123124  1  0  0  0  0
124125  2  0  0  0  0
125126  1  0  0  0  0
126127  1  0  0  0  0
125128  1  0  0  0  0
121129  2  0  0  0  0
129130  1  0  0  0  0
120131  1  0  0  0  0
131132  2  0  0  0  0
132133  1  0  0  0  0
132134  1  0  0  0  0
134135  2  0  0  0  0
135136  1  0  0  0  0
136137  2  0  0  0  0
136138  1  0  0  0  0
138139  2  0  0  0  0
139140  1  0  0  0  0
140141  2  0  0  0  0
141142  1  0  0  0  0
142143  2  0  0  0  0
143144  1  0  0  0  0
144145  2  0  0  0  0
145146  1  0  0  0  0
146147  3  0  0  0  0
145148  1  0  0  0  0
148149  3  0  0  0  0
141150  1  0  0  0  0
150151  1  0  0  0  0
151152  1  0  0  0  0
152153  2  0  0  0  0
153154  1  0  0  0  0
154155  1  0  0  0  0
154156  1  0  0  0  0
 11  2  1  0  0  0  0
 23 17  1  0  0  0  0
 65 24  1  0  0  0  0
107 66  1  0  0  0  0
130108  1  0  0  0  0
144135  1  0  0  0  0
156150  1  0  0  0  0
 10  5  1  0  0  0  0
 22 18  1  0  0  0  0
 34 27  1  0  0  0  0
 42 35  1  0  0  0  0
 64 43  2  0  0  0  0
 76 69  1  0  0  0  0
 84 77  1  0  0  0  0
106 85  2  0  0  0  0
129110  1  0  0  0  0
143138  1  0  0  0  0
155151  1  0  0  0  0
 23  7  1  0  0  0  0
 55 48  1  0  0  0  0
 63 56  1  0  0  0  0
 97 90  1  0  0  0  0
105 98  1  0  0  0  0
118112  1  0  0  0  0
133119  1  0  0  0  0
156140  1  0  0  0  0
128122  1  0  0  0  0
  1157  1  0  0  0  0
  6158  1  0  0  0  0
  9159  1  0  0  0  0
 17160  1  0  0  0  0
 18161  1  0  0  0  0
 19162  1  0  0  0  0
 20163  1  0  0  0  0
 21164  1  0  0  0  0
 22165  1  0  0  0  0
 22166  1  0  0  0  0
 23167  1  0  0  0  0
 28168  1  0  0  0  0
 29169  1  0  0  0  0
 32170  1  0  0  0  0
 32171  1  0  0  0  0
 32172  1  0  0  0  0
 33173  1  0  0  0  0
 34174  1  0  0  0  0
 36175  1  0  0  0  0
 37176  1  0  0  0  0
 40177  1  0  0  0  0
 40178  1  0  0  0  0
 40179  1  0  0  0  0
 41180  1  0  0  0  0
 42181  1  0  0  0  0
 49182  1  0  0  0  0
 50183  1  0  0  0  0
 53184  1  0  0  0  0
 53185  1  0  0  0  0
 53186  1  0  0  0  0
 54187  1  0  0  0  0
 55188  1  0  0  0  0
 57189  1  0  0  0  0
 58190  1  0  0  0  0
 61191  1  0  0  0  0
 61192  1  0  0  0  0
 61193  1  0  0  0  0
 62194  1  0  0  0  0
 63195  1  0  0  0  0
 70196  1  0  0  0  0
 71197  1  0  0  0  0
 74198  1  0  0  0  0
 74199  1  0  0  0  0
 74200  1  0  0  0  0
 75201  1  0  0  0  0
 76202  1  0  0  0  0
 78203  1  0  0  0  0
 79204  1  0  0  0  0
 82205  1  0  0  0  0
 82206  1  0  0  0  0
 82207  1  0  0  0  0
 83208  1  0  0  0  0
 84209  1  0  0  0  0
 91210  1  0  0  0  0
 92211  1  0  0  0  0
 95212  1  0  0  0  0
 95213  1  0  0  0  0
 95214  1  0  0  0  0
 96215  1  0  0  0  0
 97216  1  0  0  0  0
 99217  1  0  0  0  0
100218  1  0  0  0  0
103219  1  0  0  0  0
103220  1  0  0  0  0
103221  1  0  0  0  0
104222  1  0  0  0  0
105223  1  0  0  0  0
109224  1  0  0  0  0
113225  1  0  0  0  0
114226  1  0  0  0  0
116227  1  0  0  0  0
116228  1  0  0  0  0
117229  1  0  0  0  0
117230  1  0  0  0  0
117231  1  0  0  0  0
123232  1  0  0  0  0
124233  1  0  0  0  0
126234  1  0  0  0  0
126235  1  0  0  0  0
127236  1  0  0  0  0
127237  1  0  0  0  0
127238  1  0  0  0  0
131239  1  0  0  0  0
134240  1  0  0  0  0
139241  1  0  0  0  0
142242  1  0  0  0  0
150243  1  0  0  0  0
151244  1  0  0  0  0
152245  1  0  0  0  0
153246  1  0  0  0  0
154247  1  0  0  0  0
155248  1  0  0  0  0
155249  1  0  0  0  0
156250  1  0  0  0  0
M  END
