
  xtb     02062207223D
 energy: -315.319064525886 gnorm: 0.000496769986 xtb: 6.4.1 (unknown)
190211  0     0  0            999 V2000
   -6.1409   -2.1952   -3.0226 C   0  0  0  0  0  0  0  0  0  0  0  0
   -7.1625   -3.0840   -2.9895 C   0  0  0  0  0  0  0  0  0  0  0  0
   -8.4795   -2.6725   -3.5562 C   0  0  0  0  0  0  0  0  0  0  0  0
   -8.6960   -1.7076   -4.2544 O   0  0  0  0  0  0  0  0  0  0  0  0
   -9.4488   -3.6536   -3.0367 C   0  0  0  0  0  0  0  0  0  0  0  0
  -10.8341   -3.6333   -3.1903 C   0  0  0  0  0  0  0  0  0  0  0  0
  -11.4806   -4.6815   -2.5811 C   0  0  0  0  0  0  0  0  0  0  0  0
  -10.8037   -5.6791   -1.8659 C   0  0  0  0  0  0  0  0  0  0  0  0
   -9.4386   -5.7165   -1.7110 C   0  0  0  0  0  0  0  0  0  0  0  0
   -8.7605   -4.6605   -2.3267 C   0  0  0  0  0  0  0  0  0  0  0  0
   -7.3278   -4.3946   -2.4064 C   0  0  0  0  0  0  0  0  0  0  0  0
   -6.3277   -5.3030   -2.1835 C   0  0  0  0  0  0  0  0  0  0  0  0
   -6.5201   -6.5873   -1.6416 C   0  0  0  0  0  0  0  0  0  0  0  0
   -6.6040   -7.6317   -1.1703 N   0  0  0  0  0  0  0  0  0  0  0  0
   -4.9798   -5.0669   -2.5210 C   0  0  0  0  0  0  0  0  0  0  0  0
   -3.8773   -4.9353   -2.8125 N   0  0  0  0  0  0  0  0  0  0  0  0
  -12.0787   -6.4054   -1.5157 C   0  0  0  0  0  0  0  0  0  0  0  0
  -12.6114   -6.2142   -0.0799 C   0  0  0  0  0  0  0  0  0  0  0  0
  -14.0634   -6.6236   -0.1753 C   0  0  0  0  0  0  0  0  0  0  0  0
  -14.7044   -5.6809   -0.8544 C   0  0  0  0  0  0  0  0  0  0  0  0
  -13.6964   -4.6186   -1.2291 C   0  0  0  0  0  0  0  0  0  0  0  0
  -12.7708   -4.6900   -0.0077 C   0  0  0  0  0  0  0  0  0  0  0  0
  -12.8332   -5.2951   -2.3152 C   0  0  0  0  0  0  0  0  0  0  0  0
   -4.9335   -2.1034   -2.2651 C   0  0  0  0  0  0  0  0  0  0  0  0
   -4.7367   -2.6660   -0.9881 C   0  0  0  0  0  0  0  0  0  0  0  0
   -5.6351   -3.4467   -0.3316 N   0  0  0  0  0  0  0  0  0  0  0  0
   -5.2154   -3.8462    0.8086 C   0  0  0  0  0  0  0  0  0  0  0  0
   -5.9744   -4.7368    1.7182 C   0  0  0  0  0  0  0  0  0  0  0  0
   -5.2557   -6.0715    1.9221 C   0  0  0  0  0  0  0  0  0  0  0  0
   -3.6114   -3.2724    1.2537 S   0  0  0  0  0  0  0  0  0  0  0  0
   -3.5574   -2.4102   -0.2508 C   0  0  0  0  0  0  0  0  0  0  0  0
   -2.5497   -1.5624   -0.6945 C   0  0  0  0  0  0  0  0  0  0  0  0
   -2.7103   -1.0543   -1.9902 C   0  0  0  0  0  0  0  0  0  0  0  0
   -3.8812   -1.3096   -2.7325 C   0  0  0  0  0  0  0  0  0  0  0  0
   -3.7999   -0.4529   -4.2395 S   0  0  0  0  0  0  0  0  0  0  0  0
   -2.2145    0.1830   -3.7385 C   0  0  0  0  0  0  0  0  0  0  0  0
   -1.4523    1.0873   -4.6317 C   0  0  0  0  0  0  0  0  0  0  0  0
   -0.2313    1.6706   -3.9296 C   0  0  0  0  0  0  0  0  0  0  0  0
   -1.8287   -0.2102   -2.5918 N   0  0  0  0  0  0  0  0  0  0  0  0
   -1.4490   -1.1086    0.1236 C   0  0  0  0  0  0  0  0  0  0  0  0
   -1.5266   -0.5158    1.3723 C   0  0  0  0  0  0  0  0  0  0  0  0
   -2.6950   -0.2726    2.0797 N   0  0  0  0  0  0  0  0  0  0  0  0
   -2.6742   -0.3579    3.4766 C   0  0  0  0  0  0  0  0  0  0  0  0
   -3.4464    0.5069    4.2466 C   0  0  0  0  0  0  0  0  0  0  0  0
   -3.4222    0.4360    5.6255 C   0  0  0  0  0  0  0  0  0  0  0  0
   -2.6136   -0.4973    6.2598 C   0  0  0  0  0  0  0  0  0  0  0  0
   -2.4919   -0.6790    8.0125 S   0  0  0  0  0  0  0  0  0  0  0  0
   -3.5531    0.6406    8.6666 C   0  0  0  0  0  0  0  0  0  0  0  0
   -1.8422   -1.3676    5.4928 C   0  0  0  0  0  0  0  0  0  0  0  0
   -1.8751   -1.3050    4.1182 C   0  0  0  0  0  0  0  0  0  0  0  0
   -3.8878    0.0055    1.3979 C   0  0  0  0  0  0  0  0  0  0  0  0
   -3.8848    0.7922    0.2491 C   0  0  0  0  0  0  0  0  0  0  0  0
   -5.0280    0.9359   -0.5137 C   0  0  0  0  0  0  0  0  0  0  0  0
   -6.1994    0.2922   -0.1394 C   0  0  0  0  0  0  0  0  0  0  0  0
   -7.6809    0.2666   -1.0976 S   0  0  0  0  0  0  0  0  0  0  0  0
   -7.2786    1.2327   -2.5796 C   0  0  0  0  0  0  0  0  0  0  0  0
   -6.2309   -0.4169    1.0606 C   0  0  0  0  0  0  0  0  0  0  0  0
   -5.0948   -0.5523    1.8248 C   0  0  0  0  0  0  0  0  0  0  0  0
   -0.2448   -0.0813    1.7974 C   0  0  0  0  0  0  0  0  0  0  0  0
    0.3581    0.7559    3.1920 S   0  0  0  0  0  0  0  0  0  0  0  0
    1.9480    0.8049    2.4860 C   0  0  0  0  0  0  0  0  0  0  0  0
    2.0202    0.1756    1.2673 C   0  0  0  0  0  0  0  0  0  0  0  0
    3.2195    0.0569    0.5439 N   0  0  0  0  0  0  0  0  0  0  0  0
    4.2362   -0.6731    1.1833 C   0  0  0  0  0  0  0  0  0  0  0  0
    5.5356   -0.1826    1.3141 C   0  0  0  0  0  0  0  0  0  0  0  0
    6.4957   -0.9350    1.9535 C   0  0  0  0  0  0  0  0  0  0  0  0
    6.1802   -2.1819    2.4885 C   0  0  0  0  0  0  0  0  0  0  0  0
    7.4928   -3.0475    3.3015 S   0  0  0  0  0  0  0  0  0  0  0  0
    6.8178   -4.7151    3.5535 C   0  0  0  0  0  0  0  0  0  0  0  0
    4.8823   -2.6590    2.3905 C   0  0  0  0  0  0  0  0  0  0  0  0
    3.9217   -1.9088    1.7408 C   0  0  0  0  0  0  0  0  0  0  0  0
    3.4358    0.8351   -0.5848 C   0  0  0  0  0  0  0  0  0  0  0  0
    2.5120    1.8113   -0.9658 C   0  0  0  0  0  0  0  0  0  0  0  0
    2.7631    2.6335   -2.0412 C   0  0  0  0  0  0  0  0  0  0  0  0
    3.9409    2.5062   -2.7678 C   0  0  0  0  0  0  0  0  0  0  0  0
    4.2271    3.7082   -4.0425 S   0  0  0  0  0  0  0  0  0  0  0  0
    5.6303    3.0254   -4.9714 C   0  0  0  0  0  0  0  0  0  0  0  0
    4.8240    1.4859   -2.4509 C   0  0  0  0  0  0  0  0  0  0  0  0
    4.5613    0.6482   -1.3869 C   0  0  0  0  0  0  0  0  0  0  0  0
    0.7578   -0.3241    0.8713 C   0  0  0  0  0  0  0  0  0  0  0  0
    0.1602   -1.0735   -0.5594 S   0  0  0  0  0  0  0  0  0  0  0  0
    3.0779    1.5776    3.0014 C   0  0  0  0  0  0  0  0  0  0  0  0
    4.0915    1.0416    3.7959 C   0  0  0  0  0  0  0  0  0  0  0  0
    4.0328   -0.1606    4.4328 N   0  0  0  0  0  0  0  0  0  0  0  0
    5.1089   -0.4435    5.0556 C   0  0  0  0  0  0  0  0  0  0  0  0
    5.3223   -1.6520    5.8842 C   0  0  0  0  0  0  0  0  0  0  0  0
    5.4423   -1.2880    7.3651 C   0  0  0  0  0  0  0  0  0  0  0  0
    6.3997    0.7628    4.9129 S   0  0  0  0  0  0  0  0  0  0  0  0
    5.3291    1.7245    3.9512 C   0  0  0  0  0  0  0  0  0  0  0  0
    5.6131    2.9143    3.2914 C   0  0  0  0  0  0  0  0  0  0  0  0
    4.5345    3.5211    2.6290 C   0  0  0  0  0  0  0  0  0  0  0  0
    3.2976    2.8562    2.5029 C   0  0  0  0  0  0  0  0  0  0  0  0
    2.2098    3.8386    1.5735 S   0  0  0  0  0  0  0  0  0  0  0  0
    3.4861    5.0499    1.4460 C   0  0  0  0  0  0  0  0  0  0  0  0
    3.2616    6.3136    0.7036 C   0  0  0  0  0  0  0  0  0  0  0  0
    2.8396    6.0478   -0.7404 C   0  0  0  0  0  0  0  0  0  0  0  0
    4.5817    4.7393    2.0244 N   0  0  0  0  0  0  0  0  0  0  0  0
    6.9220    3.5222    3.2156 C   0  0  0  0  0  0  0  0  0  0  0  0
    7.3708    4.0438    2.0523 C   0  0  0  0  0  0  0  0  0  0  0  0
    6.7140    3.8277    0.7263 C   0  0  0  0  0  0  0  0  0  0  0  0
    5.9667    2.9281    0.4074 O   0  0  0  0  0  0  0  0  0  0  0  0
    7.2998    4.8290   -0.1735 C   0  0  0  0  0  0  0  0  0  0  0  0
    6.8938    5.1165   -1.4756 C   0  0  0  0  0  0  0  0  0  0  0  0
    7.6393    6.0936   -2.0873 C   0  0  0  0  0  0  0  0  0  0  0  0
    8.7179    6.7306   -1.4552 C   0  0  0  0  0  0  0  0  0  0  0  0
    9.1297    6.4544   -0.1736 C   0  0  0  0  0  0  0  0  0  0  0  0
    8.3802    5.4641    0.4732 C   0  0  0  0  0  0  0  0  0  0  0  0
    8.5102    4.9219    1.8229 C   0  0  0  0  0  0  0  0  0  0  0  0
    9.5163    5.1952    2.7077 C   0  0  0  0  0  0  0  0  0  0  0  0
   10.6084    6.0469    2.4368 C   0  0  0  0  0  0  0  0  0  0  0  0
   11.5221    6.7235    2.2791 N   0  0  0  0  0  0  0  0  0  0  0  0
    9.6218    4.6342    3.9989 C   0  0  0  0  0  0  0  0  0  0  0  0
    9.7705    4.2178    5.0581 N   0  0  0  0  0  0  0  0  0  0  0  0
    9.0168    7.5898   -2.6588 C   0  0  0  0  0  0  0  0  0  0  0  0
   10.2155    7.1594   -3.5315 C   0  0  0  0  0  0  0  0  0  0  0  0
    9.9761    7.8655   -4.8465 C   0  0  0  0  0  0  0  0  0  0  0  0
    8.9501    7.2715   -5.4426 C   0  0  0  0  0  0  0  0  0  0  0  0
    8.4798    6.1531   -4.5412 C   0  0  0  0  0  0  0  0  0  0  0  0
    9.8192    5.7301   -3.9243 C   0  0  0  0  0  0  0  0  0  0  0  0
    7.8104    6.8853   -3.3591 C   0  0  0  0  0  0  0  0  0  0  0  0
   -6.3055   -1.3640   -3.7050 H   0  0  0  0  0  0  0  0  0  0  0  0
  -11.3184   -2.8493   -3.7510 H   0  0  0  0  0  0  0  0  0  0  0  0
   -8.9264   -6.4878   -1.1594 H   0  0  0  0  0  0  0  0  0  0  0  0
  -12.1477   -7.4350   -1.8617 H   0  0  0  0  0  0  0  0  0  0  0  0
  -12.0177   -6.6941    0.6935 H   0  0  0  0  0  0  0  0  0  0  0  0
  -14.4507   -7.5529    0.1992 H   0  0  0  0  0  0  0  0  0  0  0  0
  -15.7342   -5.6656   -1.1600 H   0  0  0  0  0  0  0  0  0  0  0  0
  -14.0913   -3.6437   -1.5022 H   0  0  0  0  0  0  0  0  0  0  0  0
  -11.8392   -4.1395   -0.1245 H   0  0  0  0  0  0  0  0  0  0  0  0
  -13.2703   -4.3714    0.9058 H   0  0  0  0  0  0  0  0  0  0  0  0
  -13.4053   -5.5851   -3.1946 H   0  0  0  0  0  0  0  0  0  0  0  0
   -6.0913   -4.2389    2.6846 H   0  0  0  0  0  0  0  0  0  0  0  0
   -6.9632   -4.9007    1.2862 H   0  0  0  0  0  0  0  0  0  0  0  0
   -5.1666   -6.6051    0.9790 H   0  0  0  0  0  0  0  0  0  0  0  0
   -5.8173   -6.6914    2.6155 H   0  0  0  0  0  0  0  0  0  0  0  0
   -4.2597   -5.9072    2.3276 H   0  0  0  0  0  0  0  0  0  0  0  0
   -1.1432    0.5183   -5.5142 H   0  0  0  0  0  0  0  0  0  0  0  0
   -2.1152    1.8840   -4.9814 H   0  0  0  0  0  0  0  0  0  0  0  0
   -0.5369    2.2564   -3.0673 H   0  0  0  0  0  0  0  0  0  0  0  0
    0.4205    0.8754   -3.5797 H   0  0  0  0  0  0  0  0  0  0  0  0
    0.3241    2.3098   -4.6107 H   0  0  0  0  0  0  0  0  0  0  0  0
   -4.0685    1.2428    3.7588 H   0  0  0  0  0  0  0  0  0  0  0  0
   -4.0329    1.1218    6.1902 H   0  0  0  0  0  0  0  0  0  0  0  0
   -3.4731    0.5703    9.7470 H   0  0  0  0  0  0  0  0  0  0  0  0
   -4.5831    0.4772    8.3630 H   0  0  0  0  0  0  0  0  0  0  0  0
   -3.1899    1.6080    8.3320 H   0  0  0  0  0  0  0  0  0  0  0  0
   -1.2231   -2.0977    5.9908 H   0  0  0  0  0  0  0  0  0  0  0  0
   -1.2903   -1.9971    3.5313 H   0  0  0  0  0  0  0  0  0  0  0  0
   -2.9711    1.2761   -0.0636 H   0  0  0  0  0  0  0  0  0  0  0  0
   -4.9861    1.5449   -1.4026 H   0  0  0  0  0  0  0  0  0  0  0  0
   -8.1073    1.0693   -3.2620 H   0  0  0  0  0  0  0  0  0  0  0  0
   -7.1998    2.2864   -2.3268 H   0  0  0  0  0  0  0  0  0  0  0  0
   -6.3604    0.8672   -3.0282 H   0  0  0  0  0  0  0  0  0  0  0  0
   -7.1537   -0.8856    1.3667 H   0  0  0  0  0  0  0  0  0  0  0  0
   -5.1220   -1.1234    2.7411 H   0  0  0  0  0  0  0  0  0  0  0  0
    5.7789    0.7962    0.9316 H   0  0  0  0  0  0  0  0  0  0  0  0
    7.5019   -0.5571    2.0601 H   0  0  0  0  0  0  0  0  0  0  0  0
    7.6437   -5.3106    3.9300 H   0  0  0  0  0  0  0  0  0  0  0  0
    6.0163   -4.6933    4.2863 H   0  0  0  0  0  0  0  0  0  0  0  0
    6.4737   -5.1160    2.6049 H   0  0  0  0  0  0  0  0  0  0  0  0
    4.6034   -3.6105    2.8133 H   0  0  0  0  0  0  0  0  0  0  0  0
    2.9129   -2.2860    1.6649 H   0  0  0  0  0  0  0  0  0  0  0  0
    1.5954    1.9363   -0.4108 H   0  0  0  0  0  0  0  0  0  0  0  0
    2.0518    3.3960   -2.3192 H   0  0  0  0  0  0  0  0  0  0  0  0
    5.7554    3.6729   -5.8340 H   0  0  0  0  0  0  0  0  0  0  0  0
    5.3961    2.0165   -5.2979 H   0  0  0  0  0  0  0  0  0  0  0  0
    6.5300    3.0416   -4.3617 H   0  0  0  0  0  0  0  0  0  0  0  0
    5.7272    1.3300   -3.0192 H   0  0  0  0  0  0  0  0  0  0  0  0
    5.2506   -0.1525   -1.1704 H   0  0  0  0  0  0  0  0  0  0  0  0
    4.4766   -2.3227    5.7258 H   0  0  0  0  0  0  0  0  0  0  0  0
    6.2423   -2.1452    5.5614 H   0  0  0  0  0  0  0  0  0  0  0  0
    4.5348   -0.7979    7.7096 H   0  0  0  0  0  0  0  0  0  0  0  0
    6.2837   -0.6169    7.5222 H   0  0  0  0  0  0  0  0  0  0  0  0
    5.5991   -2.1862    7.9564 H   0  0  0  0  0  0  0  0  0  0  0  0
    4.1902    6.8862    0.7324 H   0  0  0  0  0  0  0  0  0  0  0  0
    2.4815    6.8901    1.2089 H   0  0  0  0  0  0  0  0  0  0  0  0
    1.8923    5.5143   -0.7633 H   0  0  0  0  0  0  0  0  0  0  0  0
    2.7243    6.9868   -1.2750 H   0  0  0  0  0  0  0  0  0  0  0  0
    3.5866    5.4458   -1.2513 H   0  0  0  0  0  0  0  0  0  0  0  0
    7.5048    3.5688    4.1258 H   0  0  0  0  0  0  0  0  0  0  0  0
    6.0558    4.6035   -1.9210 H   0  0  0  0  0  0  0  0  0  0  0  0
    9.9553    6.9594    0.2997 H   0  0  0  0  0  0  0  0  0  0  0  0
    8.9731    8.6652   -2.4981 H   0  0  0  0  0  0  0  0  0  0  0  0
   11.1885    7.3007   -3.0694 H   0  0  0  0  0  0  0  0  0  0  0  0
   10.5238    8.7306   -5.1712 H   0  0  0  0  0  0  0  0  0  0  0  0
    8.4690    7.5417   -6.3643 H   0  0  0  0  0  0  0  0  0  0  0  0
    7.8700    5.3800   -5.0004 H   0  0  0  0  0  0  0  0  0  0  0  0
   10.4969    5.3043   -4.6627 H   0  0  0  0  0  0  0  0  0  0  0  0
    9.7249    5.0482   -3.0810 H   0  0  0  0  0  0  0  0  0  0  0  0
    6.9556    7.4872   -3.6606 H   0  0  0  0  0  0  0  0  0  0  0  0
  1  2  2  0  0  0  0
  2  3  1  0  0  0  0
  3  4  2  0  0  0  0
  3  5  1  0  0  0  0
  5  6  2  0  0  0  0
  6  7  1  0  0  0  0
  7  8  2  0  0  0  0
  8  9  1  0  0  0  0
  9 10  2  0  0  0  0
 10 11  1  0  0  0  0
 11 12  2  0  0  0  0
 12 13  1  0  0  0  0
 13 14  3  0  0  0  0
 12 15  1  0  0  0  0
 15 16  3  0  0  0  0
  8 17  1  0  0  0  0
 17 18  1  0  0  0  0
 18 19  1  0  0  0  0
 19 20  2  0  0  0  0
 20 21  1  0  0  0  0
 21 22  1  0  0  0  0
 21 23  1  0  0  0  0
  1 24  1  0  0  0  0
 24 25  2  0  0  0  0
 25 26  1  0  0  0  0
 26 27  2  0  0  0  0
 27 28  1  0  0  0  0
 28 29  1  0  0  0  0
 27 30  1  0  0  0  0
 30 31  1  0  0  0  0
 31 32  2  0  0  0  0
 32 33  1  0  0  0  0
 33 34  2  0  0  0  0
 34 35  1  0  0  0  0
 35 36  1  0  0  0  0
 36 37  1  0  0  0  0
 37 38  1  0  0  0  0
 36 39  2  0  0  0  0
 32 40  1  0  0  0  0
 40 41  2  0  0  0  0
 41 42  1  0  0  0  0
 42 43  1  0  0  0  0
 43 44  2  0  0  0  0
 44 45  1  0  0  0  0
 45 46  2  0  0  0  0
 46 47  1  0  0  0  0
 47 48  1  0  0  0  0
 46 49  1  0  0  0  0
 49 50  2  0  0  0  0
 42 51  1  0  0  0  0
 51 52  2  0  0  0  0
 52 53  1  0  0  0  0
 53 54  2  0  0  0  0
 54 55  1  0  0  0  0
 55 56  1  0  0  0  0
 54 57  1  0  0  0  0
 57 58  2  0  0  0  0
 41 59  1  0  0  0  0
 59 60  1  0  0  0  0
 60 61  1  0  0  0  0
 61 62  2  0  0  0  0
 62 63  1  0  0  0  0
 63 64  1  0  0  0  0
 64 65  2  0  0  0  0
 65 66  1  0  0  0  0
 66 67  2  0  0  0  0
 67 68  1  0  0  0  0
 68 69  1  0  0  0  0
 67 70  1  0  0  0  0
 70 71  2  0  0  0  0
 63 72  1  0  0  0  0
 72 73  2  0  0  0  0
 73 74  1  0  0  0  0
 74 75  2  0  0  0  0
 75 76  1  0  0  0  0
 76 77  1  0  0  0  0
 75 78  1  0  0  0  0
 78 79  2  0  0  0  0
 62 80  1  0  0  0  0
 80 81  1  0  0  0  0
 61 82  1  0  0  0  0
 82 83  2  0  0  0  0
 83 84  1  0  0  0  0
 84 85  2  0  0  0  0
 85 86  1  0  0  0  0
 86 87  1  0  0  0  0
 85 88  1  0  0  0  0
 88 89  1  0  0  0  0
 89 90  2  0  0  0  0
 90 91  1  0  0  0  0
 91 92  2  0  0  0  0
 92 93  1  0  0  0  0
 93 94  1  0  0  0  0
 94 95  1  0  0  0  0
 95 96  1  0  0  0  0
 94 97  2  0  0  0  0
 90 98  1  0  0  0  0
 98 99  2  0  0  0  0
 99100  1  0  0  0  0
100101  2  0  0  0  0
100102  1  0  0  0  0
102103  2  0  0  0  0
103104  1  0  0  0  0
104105  2  0  0  0  0
105106  1  0  0  0  0
106107  2  0  0  0  0
107108  1  0  0  0  0
108109  2  0  0  0  0
109110  1  0  0  0  0
110111  3  0  0  0  0
109112  1  0  0  0  0
112113  3  0  0  0  0
105114  1  0  0  0  0
114115  1  0  0  0  0
115116  1  0  0  0  0
116117  2  0  0  0  0
117118  1  0  0  0  0
118119  1  0  0  0  0
118120  1  0  0  0  0
 11  2  1  0  0  0  0
 23 17  1  0  0  0  0
 34 24  1  0  0  0  0
 81 40  1  0  0  0  0
 92 82  1  0  0  0  0
108 99  1  0  0  0  0
120114  1  0  0  0  0
 10  5  1  0  0  0  0
 22 18  1  0  0  0  0
 31 25  1  0  0  0  0
 39 33  1  0  0  0  0
 50 43  1  0  0  0  0
 58 51  1  0  0  0  0
 80 59  2  0  0  0  0
 89 83  1  0  0  0  0
 97 91  1  0  0  0  0
107102  1  0  0  0  0
119115  1  0  0  0  0
 23  7  1  0  0  0  0
 71 64  1  0  0  0  0
 79 72  1  0  0  0  0
120104  1  0  0  0  0
  1121  1  0  0  0  0
  6122  1  0  0  0  0
  9123  1  0  0  0  0
 17124  1  0  0  0  0
 18125  1  0  0  0  0
 19126  1  0  0  0  0
 20127  1  0  0  0  0
 21128  1  0  0  0  0
 22129  1  0  0  0  0
 22130  1  0  0  0  0
 23131  1  0  0  0  0
 28132  1  0  0  0  0
 28133  1  0  0  0  0
 29134  1  0  0  0  0
 29135  1  0  0  0  0
 29136  1  0  0  0  0
 37137  1  0  0  0  0
 37138  1  0  0  0  0
 38139  1  0  0  0  0
 38140  1  0  0  0  0
 38141  1  0  0  0  0
 44142  1  0  0  0  0
 45143  1  0  0  0  0
 48144  1  0  0  0  0
 48145  1  0  0  0  0
 48146  1  0  0  0  0
 49147  1  0  0  0  0
 50148  1  0  0  0  0
 52149  1  0  0  0  0
 53150  1  0  0  0  0
 56151  1  0  0  0  0
 56152  1  0  0  0  0
 56153  1  0  0  0  0
 57154  1  0  0  0  0
 58155  1  0  0  0  0
 65156  1  0  0  0  0
 66157  1  0  0  0  0
 69158  1  0  0  0  0
 69159  1  0  0  0  0
 69160  1  0  0  0  0
 70161  1  0  0  0  0
 71162  1  0  0  0  0
 73163  1  0  0  0  0
 74164  1  0  0  0  0
 77165  1  0  0  0  0
 77166  1  0  0  0  0
 77167  1  0  0  0  0
 78168  1  0  0  0  0
 79169  1  0  0  0  0
 86170  1  0  0  0  0
 86171  1  0  0  0  0
 87172  1  0  0  0  0
 87173  1  0  0  0  0
 87174  1  0  0  0  0
 95175  1  0  0  0  0
 95176  1  0  0  0  0
 96177  1  0  0  0  0
 96178  1  0  0  0  0
 96179  1  0  0  0  0
 98180  1  0  0  0  0
103181  1  0  0  0  0
106182  1  0  0  0  0
114183  1  0  0  0  0
115184  1  0  0  0  0
116185  1  0  0  0  0
117186  1  0  0  0  0
118187  1  0  0  0  0
119188  1  0  0  0  0
119189  1  0  0  0  0
120190  1  0  0  0  0
M  END
