
  xtb     02132213393D
 energy: -318.912430312648 gnorm: 0.000387176728 xtb: 6.4.1 (unknown)
185204  0     0  0            999 V2000
    0.5793   -3.4318   -6.6505 C   0  0  0  0  0  0  0  0  0  0  0  0
   -0.3663   -3.0043   -7.5573 C   0  0  0  0  0  0  0  0  0  0  0  0
   -1.7337   -2.5950   -7.1968 C   0  0  0  0  0  0  0  0  0  0  0  0
   -2.2312   -2.5974   -6.0851 O   0  0  0  0  0  0  0  0  0  0  0  0
   -2.4226   -2.3224   -8.4743 C   0  0  0  0  0  0  0  0  0  0  0  0
   -3.7331   -1.8871   -8.6482 C   0  0  0  0  0  0  0  0  0  0  0  0
   -4.0895   -1.6923   -9.9615 C   0  0  0  0  0  0  0  0  0  0  0  0
   -3.2151   -1.9332  -11.0283 C   0  0  0  0  0  0  0  0  0  0  0  0
   -1.9239   -2.3779  -10.8714 C   0  0  0  0  0  0  0  0  0  0  0  0
   -1.5370   -2.5655   -9.5420 C   0  0  0  0  0  0  0  0  0  0  0  0
   -0.2520   -2.9872   -8.9898 C   0  0  0  0  0  0  0  0  0  0  0  0
    0.9142   -3.1480   -9.6987 C   0  0  0  0  0  0  0  0  0  0  0  0
    1.0344   -2.9787  -11.0892 C   0  0  0  0  0  0  0  0  0  0  0  0
    1.2180   -2.8160  -12.2125 N   0  0  0  0  0  0  0  0  0  0  0  0
    2.1702   -3.3962   -9.1107 C   0  0  0  0  0  0  0  0  0  0  0  0
    3.2336   -3.5516   -8.7041 N   0  0  0  0  0  0  0  0  0  0  0  0
   -4.2398   -1.5385  -12.0636 C   0  0  0  0  0  0  0  0  0  0  0  0
   -4.0762   -0.1444  -12.7045 C   0  0  0  0  0  0  0  0  0  0  0  0
   -5.4413    0.1517  -13.2816 C   0  0  0  0  0  0  0  0  0  0  0  0
   -6.2648    0.3890  -12.2686 C   0  0  0  0  0  0  0  0  0  0  0  0
   -5.4700    0.2553  -10.9895 C   0  0  0  0  0  0  0  0  0  0  0  0
   -4.1068    0.7665  -11.4715 C   0  0  0  0  0  0  0  0  0  0  0  0
   -5.2127   -1.2621  -10.8726 C   0  0  0  0  0  0  0  0  0  0  0  0
    0.6752   -3.0306   -5.3137 C   0  0  0  0  0  0  0  0  0  0  0  0
    0.2140   -1.8798   -4.6484 C   0  0  0  0  0  0  0  0  0  0  0  0
   -0.4878   -0.8093   -5.1433 N   0  0  0  0  0  0  0  0  0  0  0  0
   -0.4074   -0.3173   -6.4393 C   0  0  0  0  0  0  0  0  0  0  0  0
   -1.5067    0.3511   -6.9896 C   0  0  0  0  0  0  0  0  0  0  0  0
   -1.4696    0.8030   -8.2866 C   0  0  0  0  0  0  0  0  0  0  0  0
   -0.3390    0.5995   -9.0800 C   0  0  0  0  0  0  0  0  0  0  0  0
   -0.4450    1.1422  -10.7512 S   0  0  0  0  0  0  0  0  0  0  0  0
    1.1896    0.7889  -11.4522 C   0  0  0  0  0  0  0  0  0  0  0  0
    0.7761   -0.0117   -8.5216 C   0  0  0  0  0  0  0  0  0  0  0  0
    0.7415   -0.4632   -7.2162 C   0  0  0  0  0  0  0  0  0  0  0  0
   -1.3137   -0.1493   -4.1973 C   0  0  0  0  0  0  0  0  0  0  0  0
   -2.2963   -0.8782   -3.5318 C   0  0  0  0  0  0  0  0  0  0  0  0
   -2.9846   -0.3074   -2.4840 C   0  0  0  0  0  0  0  0  0  0  0  0
   -2.6796    0.9869   -2.0771 C   0  0  0  0  0  0  0  0  0  0  0  0
   -3.4553    1.5972   -0.6058 S   0  0  0  0  0  0  0  0  0  0  0  0
   -2.0974    2.5484    0.1409 C   0  0  0  0  0  0  0  0  0  0  0  0
   -1.7752    1.7487   -2.8048 C   0  0  0  0  0  0  0  0  0  0  0  0
   -1.0971    1.1843   -3.8688 C   0  0  0  0  0  0  0  0  0  0  0  0
    0.6295   -1.8959   -3.2946 C   0  0  0  0  0  0  0  0  0  0  0  0
    0.5131   -0.7336   -2.0221 S   0  0  0  0  0  0  0  0  0  0  0  0
    1.4788   -1.7505   -0.9807 C   0  0  0  0  0  0  0  0  0  0  0  0
    1.8313   -2.9522   -1.5604 C   0  0  0  0  0  0  0  0  0  0  0  0
    2.5091   -3.9801   -0.9446 N   0  0  0  0  0  0  0  0  0  0  0  0
    2.9974   -3.7718    0.3800 C   0  0  0  0  0  0  0  0  0  0  0  0
    2.1177   -3.8382    1.4586 C   0  0  0  0  0  0  0  0  0  0  0  0
    2.5607   -3.5502    2.7304 C   0  0  0  0  0  0  0  0  0  0  0  0
    3.8970   -3.2139    2.9462 C   0  0  0  0  0  0  0  0  0  0  0  0
    4.3405   -2.8086    4.6042 S   0  0  0  0  0  0  0  0  0  0  0  0
    6.0245   -2.1426    4.4526 C   0  0  0  0  0  0  0  0  0  0  0  0
    4.7875   -3.2116    1.8809 C   0  0  0  0  0  0  0  0  0  0  0  0
    4.3343   -3.4858    0.6015 C   0  0  0  0  0  0  0  0  0  0  0  0
    2.2536   -5.3211   -1.2934 C   0  0  0  0  0  0  0  0  0  0  0  0
    3.2689   -6.2594   -1.1434 C   0  0  0  0  0  0  0  0  0  0  0  0
    3.0588   -7.5868   -1.4618 C   0  0  0  0  0  0  0  0  0  0  0  0
    1.8217   -7.9991   -1.9376 C   0  0  0  0  0  0  0  0  0  0  0  0
    1.4313   -9.6614   -2.3860 S   0  0  0  0  0  0  0  0  0  0  0  0
    2.9678  -10.5750   -2.0704 C   0  0  0  0  0  0  0  0  0  0  0  0
    0.7950   -7.0669   -2.0674 C   0  0  0  0  0  0  0  0  0  0  0  0
    1.0027   -5.7454   -1.7405 C   0  0  0  0  0  0  0  0  0  0  0  0
    1.3772   -2.9964   -2.9100 C   0  0  0  0  0  0  0  0  0  0  0  0
    1.6396   -4.0642   -4.2417 S   0  0  0  0  0  0  0  0  0  0  0  0
    1.7358   -1.1997    0.3432 C   0  0  0  0  0  0  0  0  0  0  0  0
    2.9659   -0.7406    0.7553 C   0  0  0  0  0  0  0  0  0  0  0  0
    4.0227   -0.8072   -0.0736 F   0  0  0  0  0  0  0  0  0  0  0  0
    3.1586   -0.2054    2.0386 C   0  0  0  0  0  0  0  0  0  0  0  0
    4.4093    0.1257    2.4026 F   0  0  0  0  0  0  0  0  0  0  0  0
    2.1173   -0.0469    2.9217 C   0  0  0  0  0  0  0  0  0  0  0  0
    0.8196   -0.4208    2.4925 C   0  0  0  0  0  0  0  0  0  0  0  0
   -0.2486   -0.1625    3.2674 N   0  0  0  0  0  0  0  0  0  0  0  0
   -1.4338   -0.5413    2.8658 C   0  0  0  0  0  0  0  0  0  0  0  0
   -2.5738   -0.2108    3.7799 C   0  0  0  0  0  0  0  0  0  0  0  0
   -2.7416   -1.3159    4.8262 C   0  0  0  0  0  0  0  0  0  0  0  0
   -1.5995   -1.2547    1.6390 C   0  0  0  0  0  0  0  0  0  0  0  0
   -0.5771   -1.4492    0.8471 N   0  0  0  0  0  0  0  0  0  0  0  0
    0.6382   -1.0179    1.2245 C   0  0  0  0  0  0  0  0  0  0  0  0
   -2.9268   -1.7735    1.1779 C   0  0  0  0  0  0  0  0  0  0  0  0
   -2.7796   -2.8366    0.0956 C   0  0  0  0  0  0  0  0  0  0  0  0
    2.2835    0.5005    4.2700 C   0  0  0  0  0  0  0  0  0  0  0  0
    1.8431   -0.2455    5.3882 C   0  0  0  0  0  0  0  0  0  0  0  0
    1.3628   -1.4996    5.2167 N   0  0  0  0  0  0  0  0  0  0  0  0
    0.9852   -2.1582    6.2661 C   0  0  0  0  0  0  0  0  0  0  0  0
    1.0747   -1.6016    7.5801 C   0  0  0  0  0  0  0  0  0  0  0  0
    0.7032   -2.3541    8.6048 O   0  0  0  0  0  0  0  0  0  0  0  0
    0.8346   -1.7895    9.9122 C   0  0  0  0  0  0  0  0  0  0  0  0
   -0.2681   -0.7877   10.2208 C   0  0  0  0  0  0  0  0  0  0  0  0
    1.5277   -0.3858    7.7684 N   0  0  0  0  0  0  0  0  0  0  0  0
    1.9240    0.3130    6.6865 C   0  0  0  0  0  0  0  0  0  0  0  0
    2.3876    1.6400    6.8734 C   0  0  0  0  0  0  0  0  0  0  0  0
    2.8519    2.3227    5.7678 C   0  0  0  0  0  0  0  0  0  0  0  0
    2.8102    1.7560    4.4869 C   0  0  0  0  0  0  0  0  0  0  0  0
    3.2463    2.4894    3.4523 F   0  0  0  0  0  0  0  0  0  0  0  0
    3.3895    3.5425    5.9081 F   0  0  0  0  0  0  0  0  0  0  0  0
    2.3449    2.2057    8.2105 C   0  0  0  0  0  0  0  0  0  0  0  0
    1.8075    3.4040    8.5035 C   0  0  0  0  0  0  0  0  0  0  0  0
    1.1111    4.2965    7.5250 C   0  0  0  0  0  0  0  0  0  0  0  0
    0.7080    4.0007    6.4242 O   0  0  0  0  0  0  0  0  0  0  0  0
    0.9352    5.5796    8.2237 C   0  0  0  0  0  0  0  0  0  0  0  0
    0.4222    6.7573    7.6840 C   0  0  0  0  0  0  0  0  0  0  0  0
    0.3822    7.8071    8.5682 C   0  0  0  0  0  0  0  0  0  0  0  0
    0.8187    7.6969    9.8973 C   0  0  0  0  0  0  0  0  0  0  0  0
    1.3116    6.5389   10.4477 C   0  0  0  0  0  0  0  0  0  0  0  0
    1.3591    5.4540    9.5645 C   0  0  0  0  0  0  0  0  0  0  0  0
    1.7904    4.0817    9.7964 C   0  0  0  0  0  0  0  0  0  0  0  0
    2.0549    3.5096   11.0093 C   0  0  0  0  0  0  0  0  0  0  0  0
    2.3404    2.1411   11.2091 C   0  0  0  0  0  0  0  0  0  0  0  0
    2.5427    1.0381   11.4554 N   0  0  0  0  0  0  0  0  0  0  0  0
    2.0089    4.1980   12.2413 C   0  0  0  0  0  0  0  0  0  0  0  0
    1.9906    4.6982   13.2738 N   0  0  0  0  0  0  0  0  0  0  0  0
    0.5083    9.1408   10.2009 C   0  0  0  0  0  0  0  0  0  0  0  0
    1.6926   10.1382   10.2495 C   0  0  0  0  0  0  0  0  0  0  0  0
    2.7689    9.5728    9.3559 C   0  0  0  0  0  0  0  0  0  0  0  0
    2.3504    9.6763    8.1016 C   0  0  0  0  0  0  0  0  0  0  0  0
    0.9829   10.3138    8.1243 C   0  0  0  0  0  0  0  0  0  0  0  0
    1.1373   11.2443    9.3377 C   0  0  0  0  0  0  0  0  0  0  0  0
    0.0174    9.2614    8.7236 C   0  0  0  0  0  0  0  0  0  0  0  0
    1.3312   -4.1397   -6.9782 H   0  0  0  0  0  0  0  0  0  0  0  0
   -4.3797   -1.7209   -7.8006 H   0  0  0  0  0  0  0  0  0  0  0  0
   -1.2656   -2.5749  -11.7013 H   0  0  0  0  0  0  0  0  0  0  0  0
   -4.5068   -2.3101  -12.7835 H   0  0  0  0  0  0  0  0  0  0  0  0
   -3.2269   -0.0474  -13.3746 H   0  0  0  0  0  0  0  0  0  0  0  0
   -5.6739    0.1057  -14.3295 H   0  0  0  0  0  0  0  0  0  0  0  0
   -7.3218    0.5795  -12.3012 H   0  0  0  0  0  0  0  0  0  0  0  0
   -5.8937    0.7154  -10.1005 H   0  0  0  0  0  0  0  0  0  0  0  0
   -4.1301    1.8213  -11.7391 H   0  0  0  0  0  0  0  0  0  0  0  0
   -3.2889    0.5865  -10.7780 H   0  0  0  0  0  0  0  0  0  0  0  0
   -6.1299   -1.8446  -10.8035 H   0  0  0  0  0  0  0  0  0  0  0  0
   -2.3961    0.4869   -6.3936 H   0  0  0  0  0  0  0  0  0  0  0  0
   -2.3247    1.3067   -8.7101 H   0  0  0  0  0  0  0  0  0  0  0  0
    1.3604   -0.2829  -11.4909 H   0  0  0  0  0  0  0  0  0  0  0  0
    1.1615    1.1882  -12.4613 H   0  0  0  0  0  0  0  0  0  0  0  0
    1.9578    1.2970  -10.8770 H   0  0  0  0  0  0  0  0  0  0  0  0
    1.6787   -0.1556   -9.0943 H   0  0  0  0  0  0  0  0  0  0  0  0
    1.6212   -0.9276   -6.7967 H   0  0  0  0  0  0  0  0  0  0  0  0
   -2.4922   -1.8921   -3.8431 H   0  0  0  0  0  0  0  0  0  0  0  0
   -3.7404   -0.8645   -1.9542 H   0  0  0  0  0  0  0  0  0  0  0  0
   -2.0240    3.5312   -0.3151 H   0  0  0  0  0  0  0  0  0  0  0  0
   -1.1723    1.9924    0.0212 H   0  0  0  0  0  0  0  0  0  0  0  0
   -2.3384    2.6506    1.1944 H   0  0  0  0  0  0  0  0  0  0  0  0
   -1.5755    2.7731   -2.5323 H   0  0  0  0  0  0  0  0  0  0  0  0
   -0.3695    1.7619   -4.4192 H   0  0  0  0  0  0  0  0  0  0  0  0
    1.0809   -4.0852    1.2837 H   0  0  0  0  0  0  0  0  0  0  0  0
    1.8808   -3.5492    3.5676 H   0  0  0  0  0  0  0  0  0  0  0  0
    6.2791   -1.7696    5.4398 H   0  0  0  0  0  0  0  0  0  0  0  0
    6.7164   -2.9304    4.1694 H   0  0  0  0  0  0  0  0  0  0  0  0
    6.0323   -1.3272    3.7362 H   0  0  0  0  0  0  0  0  0  0  0  0
    5.8295   -2.9781    2.0260 H   0  0  0  0  0  0  0  0  0  0  0  0
    5.0180   -3.4424   -0.2325 H   0  0  0  0  0  0  0  0  0  0  0  0
    4.2327   -5.9457   -0.7725 H   0  0  0  0  0  0  0  0  0  0  0  0
    3.8703   -8.2853   -1.3370 H   0  0  0  0  0  0  0  0  0  0  0  0
    3.7648  -10.1911   -2.7005 H   0  0  0  0  0  0  0  0  0  0  0  0
    3.2286  -10.5119   -1.0179 H   0  0  0  0  0  0  0  0  0  0  0  0
    2.7534  -11.6057   -2.3352 H   0  0  0  0  0  0  0  0  0  0  0  0
   -0.1713   -7.3954   -2.4180 H   0  0  0  0  0  0  0  0  0  0  0  0
    0.1864   -5.0427   -1.8157 H   0  0  0  0  0  0  0  0  0  0  0  0
   -3.4963   -0.0818    3.2132 H   0  0  0  0  0  0  0  0  0  0  0  0
   -2.3349    0.7220    4.2926 H   0  0  0  0  0  0  0  0  0  0  0  0
   -1.8228   -1.4214    5.3986 H   0  0  0  0  0  0  0  0  0  0  0  0
   -2.9634   -2.2710    4.3552 H   0  0  0  0  0  0  0  0  0  0  0  0
   -3.5526   -1.0682    5.5063 H   0  0  0  0  0  0  0  0  0  0  0  0
   -3.4803   -2.1764    2.0277 H   0  0  0  0  0  0  0  0  0  0  0  0
   -3.4976   -0.9250    0.7850 H   0  0  0  0  0  0  0  0  0  0  0  0
   -2.2566   -3.7048    0.4896 H   0  0  0  0  0  0  0  0  0  0  0  0
   -3.7581   -3.1515   -0.2585 H   0  0  0  0  0  0  0  0  0  0  0  0
   -2.2059   -2.4435   -0.7380 H   0  0  0  0  0  0  0  0  0  0  0  0
    0.6054   -3.1606    6.1287 H   0  0  0  0  0  0  0  0  0  0  0  0
    1.8108   -1.3042   10.0003 H   0  0  0  0  0  0  0  0  0  0  0  0
    0.7813   -2.6471   10.5853 H   0  0  0  0  0  0  0  0  0  0  0  0
   -0.1396   -0.4217   11.2349 H   0  0  0  0  0  0  0  0  0  0  0  0
   -0.2084    0.0533    9.5348 H   0  0  0  0  0  0  0  0  0  0  0  0
   -1.2452   -1.2557   10.1285 H   0  0  0  0  0  0  0  0  0  0  0  0
    2.7396    1.5677    8.9893 H   0  0  0  0  0  0  0  0  0  0  0  0
    0.1008    6.7990    6.6552 H   0  0  0  0  0  0  0  0  0  0  0  0
    1.6408    6.4675   11.4711 H   0  0  0  0  0  0  0  0  0  0  0  0
   -0.2139    9.3157   10.9957 H   0  0  0  0  0  0  0  0  0  0  0  0
    2.0009   10.4228   11.2518 H   0  0  0  0  0  0  0  0  0  0  0  0
    3.6719    9.1188    9.7197 H   0  0  0  0  0  0  0  0  0  0  0  0
    2.8333    9.3254    7.2085 H   0  0  0  0  0  0  0  0  0  0  0  0
    0.6442   10.7580    7.1921 H   0  0  0  0  0  0  0  0  0  0  0  0
    1.8535   12.0459    9.1646 H   0  0  0  0  0  0  0  0  0  0  0  0
    0.1942   11.6623    9.6870 H   0  0  0  0  0  0  0  0  0  0  0  0
   -1.0278    9.5108    8.5524 H   0  0  0  0  0  0  0  0  0  0  0  0
  1  2  2  0  0  0  0
  2  3  1  0  0  0  0
  3  4  2  0  0  0  0
  3  5  1  0  0  0  0
  5  6  2  0  0  0  0
  6  7  1  0  0  0  0
  7  8  2  0  0  0  0
  8  9  1  0  0  0  0
  9 10  2  0  0  0  0
 10 11  1  0  0  0  0
 11 12  2  0  0  0  0
 12 13  1  0  0  0  0
 13 14  3  0  0  0  0
 12 15  1  0  0  0  0
 15 16  3  0  0  0  0
  8 17  1  0  0  0  0
 17 18  1  0  0  0  0
 18 19  1  0  0  0  0
 19 20  2  0  0  0  0
 20 21  1  0  0  0  0
 21 22  1  0  0  0  0
 21 23  1  0  0  0  0
  1 24  1  0  0  0  0
 24 25  2  0  0  0  0
 25 26  1  0  0  0  0
 26 27  1  0  0  0  0
 27 28  2  0  0  0  0
 28 29  1  0  0  0  0
 29 30  2  0  0  0  0
 30 31  1  0  0  0  0
 31 32  1  0  0  0  0
 30 33  1  0  0  0  0
 33 34  2  0  0  0  0
 26 35  1  0  0  0  0
 35 36  2  0  0  0  0
 36 37  1  0  0  0  0
 37 38  2  0  0  0  0
 38 39  1  0  0  0  0
 39 40  1  0  0  0  0
 38 41  1  0  0  0  0
 41 42  2  0  0  0  0
 25 43  1  0  0  0  0
 43 44  1  0  0  0  0
 44 45  1  0  0  0  0
 45 46  2  0  0  0  0
 46 47  1  0  0  0  0
 47 48  1  0  0  0  0
 48 49  2  0  0  0  0
 49 50  1  0  0  0  0
 50 51  2  0  0  0  0
 51 52  1  0  0  0  0
 52 53  1  0  0  0  0
 51 54  1  0  0  0  0
 54 55  2  0  0  0  0
 47 56  1  0  0  0  0
 56 57  2  0  0  0  0
 57 58  1  0  0  0  0
 58 59  2  0  0  0  0
 59 60  1  0  0  0  0
 60 61  1  0  0  0  0
 59 62  1  0  0  0  0
 62 63  2  0  0  0  0
 46 64  1  0  0  0  0
 64 65  1  0  0  0  0
 45 66  1  0  0  0  0
 66 67  2  0  0  0  0
 67 68  1  0  0  0  0
 67 69  1  0  0  0  0
 69 70  1  0  0  0  0
 69 71  2  0  0  0  0
 71 72  1  0  0  0  0
 72 73  2  0  0  0  0
 73 74  1  0  0  0  0
 74 75  1  0  0  0  0
 75 76  1  0  0  0  0
 74 77  2  0  0  0  0
 77 78  1  0  0  0  0
 78 79  2  0  0  0  0
 77 80  1  0  0  0  0
 80 81  1  0  0  0  0
 71 82  1  0  0  0  0
 82 83  1  0  0  0  0
 83 84  2  0  0  0  0
 84 85  1  0  0  0  0
 85 86  2  0  0  0  0
 86 87  1  0  0  0  0
 87 88  1  0  0  0  0
 88 89  1  0  0  0  0
 86 90  1  0  0  0  0
 90 91  2  0  0  0  0
 91 92  1  0  0  0  0
 92 93  2  0  0  0  0
 93 94  1  0  0  0  0
 94 95  1  0  0  0  0
 93 96  1  0  0  0  0
 92 97  1  0  0  0  0
 97 98  2  0  0  0  0
 98 99  1  0  0  0  0
 99100  2  0  0  0  0
 99101  1  0  0  0  0
101102  2  0  0  0  0
102103  1  0  0  0  0
103104  2  0  0  0  0
104105  1  0  0  0  0
105106  2  0  0  0  0
106107  1  0  0  0  0
107108  2  0  0  0  0
108109  1  0  0  0  0
109110  3  0  0  0  0
108111  1  0  0  0  0
111112  3  0  0  0  0
104113  1  0  0  0  0
113114  1  0  0  0  0
114115  1  0  0  0  0
115116  2  0  0  0  0
116117  1  0  0  0  0
117118  1  0  0  0  0
117119  1  0  0  0  0
 11  2  1  0  0  0  0
 23 17  1  0  0  0  0
 65 24  1  0  0  0  0
 79 66  1  0  0  0  0
 94 82  2  0  0  0  0
107 98  1  0  0  0  0
119113  1  0  0  0  0
 10  5  1  0  0  0  0
 22 18  1  0  0  0  0
 34 27  1  0  0  0  0
 42 35  1  0  0  0  0
 64 43  2  0  0  0  0
 79 72  1  0  0  0  0
 91 83  1  0  0  0  0
106101  1  0  0  0  0
118114  1  0  0  0  0
 23  7  1  0  0  0  0
 55 48  1  0  0  0  0
 63 56  1  0  0  0  0
119103  1  0  0  0  0
  1120  1  0  0  0  0
  6121  1  0  0  0  0
  9122  1  0  0  0  0
 17123  1  0  0  0  0
 18124  1  0  0  0  0
 19125  1  0  0  0  0
 20126  1  0  0  0  0
 21127  1  0  0  0  0
 22128  1  0  0  0  0
 22129  1  0  0  0  0
 23130  1  0  0  0  0
 28131  1  0  0  0  0
 29132  1  0  0  0  0
 32133  1  0  0  0  0
 32134  1  0  0  0  0
 32135  1  0  0  0  0
 33136  1  0  0  0  0
 34137  1  0  0  0  0
 36138  1  0  0  0  0
 37139  1  0  0  0  0
 40140  1  0  0  0  0
 40141  1  0  0  0  0
 40142  1  0  0  0  0
 41143  1  0  0  0  0
 42144  1  0  0  0  0
 49145  1  0  0  0  0
 50146  1  0  0  0  0
 53147  1  0  0  0  0
 53148  1  0  0  0  0
 53149  1  0  0  0  0
 54150  1  0  0  0  0
 55151  1  0  0  0  0
 57152  1  0  0  0  0
 58153  1  0  0  0  0
 61154  1  0  0  0  0
 61155  1  0  0  0  0
 61156  1  0  0  0  0
 62157  1  0  0  0  0
 63158  1  0  0  0  0
 75159  1  0  0  0  0
 75160  1  0  0  0  0
 76161  1  0  0  0  0
 76162  1  0  0  0  0
 76163  1  0  0  0  0
 80164  1  0  0  0  0
 80165  1  0  0  0  0
 81166  1  0  0  0  0
 81167  1  0  0  0  0
 81168  1  0  0  0  0
 85169  1  0  0  0  0
 88170  1  0  0  0  0
 88171  1  0  0  0  0
 89172  1  0  0  0  0
 89173  1  0  0  0  0
 89174  1  0  0  0  0
 97175  1  0  0  0  0
102176  1  0  0  0  0
105177  1  0  0  0  0
113178  1  0  0  0  0
114179  1  0  0  0  0
115180  1  0  0  0  0
116181  1  0  0  0  0
117182  1  0  0  0  0
118183  1  0  0  0  0
118184  1  0  0  0  0
119185  1  0  0  0  0
M  END
