213

C         -5.36560       -1.10900        3.73100
C         -6.34420       -2.04490        3.53120
C         -7.60520       -2.00490        4.30740
O         -7.84350       -1.30430        5.26920
C         -8.51650       -2.94680        3.62260
C         -9.86220       -3.17990        3.89400
C        -10.45210       -4.09870        3.05770
C         -9.76330       -4.72970        2.01360
C         -8.43240       -4.51970        1.73910
C         -7.81420       -3.60280        2.59000
C         -6.42430       -3.15720        2.61940
C         -5.36200       -3.86550        2.11080
C         -5.47720       -5.09840        1.43930
N         -5.49080       -6.12660        0.92790
C         -4.02010       -3.54010        2.36890
N         -2.90890       -3.36020        2.60620
C        -10.97480       -5.51790        1.58300
C        -11.02870       -7.01570        1.97070
C        -10.18590       -7.16440        3.21330
C        -10.83200       -6.57790        4.21220
C        -12.12250       -6.02150        3.66320
C        -12.43500       -7.07470        2.58800
C        -11.73900       -4.82590        2.75560
C         -4.37940       -0.74150        2.79850
C         -3.07640       -0.26300        3.00110
N         -2.48250        0.02420        4.19750
C         -1.08720       -0.20080        4.32340
C         -0.23000        0.85600        4.60250
C          1.13120        0.64250        4.70740
C          1.64360       -0.64150        4.56920
S          3.35640       -1.04210        4.65520
C          4.17230        0.54860        4.94840
C          0.77240       -1.70690        4.33820
C         -0.57990       -1.49010        4.19030
C         -3.17100        0.56110        5.28690
C         -2.75990        0.26390        6.58780
C         -3.44830        0.77300        7.66510
C         -4.56390        1.58750        7.47440
S         -5.39880        2.15660        8.91790
C         -7.03240        2.63790        8.28570
C         -4.94930        1.92240        6.18260
C         -4.25590        1.41690        5.10100
C         -2.39120       -0.15610        1.76580
S         -0.79290        0.31120        1.31490
C         -1.21170        0.22130       -0.40150
C         -2.54250       -0.11400       -0.58780
N         -3.21990       -0.18110       -1.80060
C         -4.19110       -1.19620       -1.89260
C         -5.49420       -0.93620       -2.30460
C         -6.44560       -1.93760       -2.29370
C         -6.11080       -3.21580       -1.86670
S         -7.25590       -4.55370       -1.77690
C         -8.87580       -3.75010       -1.96870
C         -4.79880       -3.48880       -1.48240
C         -3.85230       -2.48970       -1.49110
C         -3.28230        0.95030       -2.62080
C         -3.60280        0.82240       -3.97160
C         -3.71650        1.93620       -4.77830
C         -3.49900        3.20380       -4.25220
S         -3.63600        4.69110       -5.19220
C         -4.78520        4.23340       -6.52400
C         -3.15070        3.33650       -2.91270
C         -3.04950        2.22660       -2.10350
C         -3.17430       -0.38730        0.64980
S         -4.76210       -0.89920        1.07760
C         -0.14490        0.49110       -1.31070
C          1.16430        0.10620       -1.04420
N          1.52550       -0.82560       -0.08390
C          2.73410       -0.60720        0.58870
C          3.64510       -1.63170        0.82500
C          4.88750       -1.35260        1.35980
C          5.24530       -0.04250        1.65110
S          6.83410        0.43950        2.24700
C          7.83540       -1.06300        2.08270
C          4.31420        0.97900        1.47230
C          3.06960        0.69760        0.95960
C          0.81990       -2.03390       -0.02660
C          0.19490       -2.54920       -1.16400
C         -0.55650       -3.69840       -1.08120
C         -0.71410       -4.36050        0.13690
S         -1.76800       -5.77280        0.11450
C         -1.71340       -6.39720        1.81340
C         -0.05810       -3.87470        1.26030
C          0.70320       -2.72570        1.17380
C          2.07460        0.70740       -1.93540
S          3.79060        0.76520       -1.99450
C          3.70450        1.79480       -3.41050
C          2.40170        2.10000       -3.79130
N          2.05360        2.98750       -4.79410
C          2.87440        4.10180       -5.04380
C          3.51220        4.74740       -3.98620
C          4.44020        5.73950       -4.22660
C          4.73630        6.11690       -5.53010
S          5.97020        7.31770       -5.91990
C          7.15870        7.09080       -4.56340
C          4.03170        5.54190       -6.58310
C          3.11190        4.54350       -6.34530
C          0.93120        2.70650       -5.58200
C          0.59980        1.38470       -5.87140
C         -0.48350        1.08460       -6.67230
C         -1.24340        2.10760       -7.21790
S         -2.60870        1.83760       -8.30890
C         -2.72870        0.03230       -8.43860
C         -0.92410        3.43210       -6.92480
C          0.14240        3.73030       -6.10740
C          1.47480        1.46760       -2.92840
S         -0.25650        1.47110       -2.76960
C          4.96500        2.32750       -3.81920
C          5.91130        2.83220       -2.93830
C          7.06510        3.19100       -3.67210
C          6.81890        2.87900       -5.06510
O          7.49090        2.99960       -6.06340
N          5.49180        2.37380       -5.07900
C          4.94440        1.73830       -6.24670
C          8.03720        3.61660       -2.76690
N          7.45300        3.62310       -1.51330
C          7.96930        4.21520       -0.30840
C          6.11730        3.17890       -1.55350
O          5.38250        3.19070       -0.58880
C          9.37410        3.94300       -3.07110
C         10.49670        3.80110       -2.29880
C         11.72630        4.56440       -2.63750
O         11.90810        5.23910       -3.62350
C         12.63190        4.36760       -1.48370
C         13.87380        4.92490       -1.22090
Cl        14.61610        5.99880       -2.33000
C         14.52070        4.59840       -0.03030
C         13.91060        3.73270        0.86110
Br        14.80150        3.32110        2.48250
C         12.66980        3.15220        0.61590
C         12.03770        3.47450       -0.57020
C         10.76260        3.01440       -1.12560
C         10.09450        1.88160       -0.72240
C         10.44820        1.11530        0.40390
N         10.66980        0.45660        1.31890
C          9.03790        1.27410       -1.43170
N          8.22340        0.67680       -1.97810
H         -5.41880       -0.56360        4.66740
H        -10.36390       -2.66890        4.70100
H         -7.90720       -5.00470        0.93190
H        -11.32960       -5.33730        0.56980
H        -10.80790       -7.70110        1.15690
H         -9.21070       -7.61450        3.22360
H        -10.50460       -6.44110        5.22630
H        -12.89970       -5.80380        4.39120
H        -13.22430       -6.77250        1.90070
H        -12.66900       -8.05070        3.01030
H        -12.59670       -4.20230        2.50940
H         -0.63220        1.85090        4.72460
H          1.77870        1.48240        4.89770
H          3.95010        1.22900        4.13210
H          5.23660        0.33540        4.96040
H          3.86390        0.95290        5.90820
H          1.17640       -2.70670        4.28600
H         -1.25210       -2.30580        3.97190
H         -1.91060       -0.38360        6.74360
H         -3.14190        0.53160        8.67100
H         -7.65920        2.77110        9.16190
H         -6.96720        3.57370        7.73800
H         -7.42650        1.84000        7.66350
H         -5.78530        2.57890        6.00450
H         -4.55210        1.69520        4.10020
H         -5.77220        0.06110       -2.61190
H         -7.44970       -1.70120       -2.60720
H         -9.60850       -4.52950       -1.78470
H         -8.99370       -3.36970       -2.97910
H         -8.98380       -2.95930       -1.23180
H         -4.53280       -4.48680       -1.16950
H         -2.84400       -2.69850       -1.16640
H         -3.77230       -0.16200       -4.38260
H         -3.97510        1.81280       -5.81740
H         -5.63630        3.71210       -6.09740
H         -5.10730        5.16920       -6.96970
H         -4.28250        3.62460       -7.26980
H         -2.97930        4.32200       -2.50840
H         -2.81430        2.34840       -1.05690
H          3.39130       -2.64720        0.56070
H          5.57620       -2.16550        1.52140
H          7.50030       -1.81500        2.79090
H          8.85490       -0.76420        2.30880
H          7.77840       -1.42380        1.05990
H          4.59240        1.99580        1.69990
H          2.35190        1.49160        0.81560
H          0.30360       -2.04900       -2.11490
H         -1.02900       -4.10580       -1.96270
H         -2.41250       -7.22750        1.83890
H         -2.03860       -5.61870        2.49700
H         -0.71080       -6.74290        2.04880
H         -0.14510       -4.37100        2.21200
H          1.20170       -2.33760        2.04670
H          3.29060        4.46290       -2.96860
H          4.92850        6.21300       -3.38970
H          7.30600        6.02770       -4.39860
H          6.80980        7.58490       -3.66090
H          8.08460        7.54820       -4.89720
H          4.23680        5.86430       -7.59170
H          2.59390        4.08330       -7.17420
H          1.20660        0.58090       -5.48140
H         -0.70600        0.04980       -6.87510
H         -3.57810       -0.15710       -9.08790
H         -1.82530       -0.36810       -8.88940
H         -2.90810       -0.40030       -7.45850
H         -1.52270        4.22660       -7.34180
H          0.37310        4.75830       -5.87510
H          5.65000        1.90820       -7.05960
H          4.83430        0.66410       -6.07880
H          3.97760        2.16100       -6.51380
H          8.35500        3.45800        0.37890
H          8.75340        4.93380       -0.54200
H          7.14070        4.72020        0.19240
H          9.53640        4.37270       -4.05480
H         15.48730        5.02180        0.19060
H         12.23020        2.48610        1.34010
