188

C          1.94890        3.03350        3.98210
C          1.41500        3.24280        5.23480
C          0.02380        3.04330        5.63680
O         -0.88460        2.55060        4.98300
C         -0.08850        3.56240        7.01290
C         -1.23280        3.61550        7.80590
C         -1.02320        4.13790        9.05980
C          0.23280        4.57690        9.49510
C          1.36860        4.53770        8.72070
C          1.17670        4.01290        7.43990
C          2.13480        3.80370        6.35340
C          3.47970        4.08230        6.42030
C          4.43370        3.77820        5.43040
N          5.28390        3.53310        4.69570
C          4.11400        4.69650        7.51860
N          4.69380        5.21620        8.36340
C         -0.28820        4.97890       10.85270
C         -0.51320        6.48740       11.08740
C         -1.45160        6.53310       12.27160
C         -2.64260        6.11880       11.85890
C         -2.52920        5.78600       10.38850
C         -1.49420        6.83410        9.96000
C         -1.69060        4.49060       10.36640
C          1.38370        2.50010        2.82760
C          2.09400        2.38060        1.60580
N          3.31280        2.93970        1.31670
C          4.12180        2.30230        0.35610
C          4.35280        0.92860        0.43960
C          5.11550        0.29540       -0.51470
C          5.67070        1.01650       -1.57100
S          6.63360        0.10080       -2.72580
C          7.06870        1.31040       -4.00460
C          5.45750        2.38710       -1.64630
C          4.68940        3.02200       -0.68990
C          3.68150        4.22050        1.76240
C          5.02190        4.50320        2.02710
C          5.39090        5.75850        2.45520
C          4.43420        6.75530        2.63780
S          5.02560        8.31710        3.20410
C          3.51330        9.26840        3.53010
C          3.10100        6.48150        2.35690
C          2.73090        5.22660        1.91580
C          1.36810        1.61820        0.68060
S          1.67140        1.14090       -0.95230
C          0.06500        0.42740       -1.06270
C         -0.66060        0.58670        0.11670
N         -1.96530        0.17480        0.32950
C         -2.99430        0.43480       -0.57440
C         -4.18650       -0.28250       -0.48400
C         -5.22520       -0.03990       -1.35820
C         -5.08200        0.90960       -2.36100
S         -6.33010        1.24950       -3.56620
C         -7.85490        0.67470       -2.76410
C         -3.89210        1.62460       -2.46150
C         -2.86470        1.40210       -1.57220
C         -2.25560       -0.20770        1.65690
C         -3.24010        0.43770        2.39760
C         -3.40700        0.13880        3.73350
C         -2.58840       -0.80320        4.34330
S         -2.69530       -1.14530        6.07440
C         -3.00230        0.52630        6.72340
C         -1.64530       -1.49360        3.59140
C         -1.47840       -1.19600        2.25620
C          0.10310        1.24140        1.11060
S         -0.22540        1.77440        2.72490
C         -0.24250       -0.34100       -2.21050
C          0.48130       -0.35590       -3.40270
N          1.43030        0.58570       -3.77350
C          1.15020        1.95220       -3.67720
C          2.17790        2.86470       -3.44310
C          1.90740        4.20780       -3.27940
C          0.59830        4.66670       -3.34170
S          0.12290        6.35070       -3.10860
C          1.68830        7.20840       -2.77850
C         -0.43030        3.76180       -3.59830
C         -0.15990        2.42250       -3.76920
C          2.60160        0.12640       -4.39270
C          3.21630       -1.03370       -3.93080
C          4.35180       -1.52500       -4.54280
C          4.90360       -0.84950       -5.62240
S          6.36510       -1.35940       -6.46710
C          6.92910       -2.80530       -5.52890
C          4.29400        0.31620       -6.08490
C          3.15260        0.79700       -5.48420
C          0.12060       -1.46040       -4.20210
S          0.74460       -2.11770       -5.67330
C         -0.42300       -3.42520       -5.59130
C         -1.21320       -3.37420       -4.44800
N         -2.08020       -4.38120       -4.05690
C         -3.31840       -4.05780       -3.49770
C         -3.90860       -4.89570       -2.55570
C         -5.14650       -4.59500       -2.02370
C         -5.81780       -3.45000       -2.42880
S         -7.41260       -2.98470       -1.82200
C         -7.95100       -4.40660       -0.83580
C         -5.22700       -2.60210       -3.36250
C         -3.99040       -2.89880       -3.88850
C         -1.70200       -5.71460       -4.28970
C         -0.37920       -6.10050       -4.08950
C          0.06020       -7.35310       -4.46850
C         -0.82630       -8.25130       -5.04770
S         -0.35340       -9.81880       -5.70540
C          1.40830       -9.96000       -5.29510
C         -2.17110       -7.90150       -5.16690
C         -2.60670       -6.64900       -4.79400
C         -0.90070       -2.23610       -3.67140
S         -1.45680       -1.61600       -2.15360
C         -0.43830       -4.46600       -6.56750
C         -1.55090       -5.05690       -7.12910
C         -1.21690       -6.15120       -7.91790
F         -2.12880       -6.89120       -8.55500
C          0.13840       -6.45110       -7.97440
S          1.02510       -5.26660       -7.05210
C          0.69490       -7.57780       -8.61420
C          1.98180       -8.01900       -8.51220
C          2.97240       -7.41480       -7.71250
N          3.79690       -6.98450       -7.03860
C          2.39860       -9.19450       -9.17370
N          2.74370      -10.15350       -9.69900
H          2.98410        3.32590        3.86110
H         -2.18520        3.26790        7.43760
H          2.32770        4.87960        9.07140
H          0.17070        4.47940       11.70360
H          0.39640        7.07720       11.16010
H         -1.14870        6.79950       13.26720
H         -3.53330        5.97000       12.44070
H         -3.45730        5.73850        9.82490
H         -1.87710        7.84980       10.04530
H         -1.09330        6.67840        8.96000
H         -2.16650        3.66650       10.89500
H          3.93110        0.36740        1.26000
H          5.29780       -0.76620       -0.45240
H          7.60700        0.75310       -4.76520
H          6.16340        1.72840       -4.43520
H          7.71030        2.08070       -3.58700
H          5.88170        2.97260       -2.44620
H          4.52070        4.08660       -0.75690
H          5.76450        3.73050        1.90970
H          6.42420        5.97540        2.67440
H          2.88590        8.73310        4.23680
H          3.84750       10.20340        3.96890
H          2.98480        9.46730        2.60220
H          2.34040        7.23780        2.46610
H          1.69380        5.02450        1.69090
H         -4.29530       -1.03870        0.27860
H         -6.13660       -0.60570       -1.25720
H         -8.66840        1.06240       -3.36930
H         -7.89510       -0.41080       -2.74470
H         -7.90810        1.08510       -1.76060
H         -3.78960        2.36950       -3.23600
H         -1.96260        1.99150       -1.63900
H         -3.85240        1.19320        1.92850
H         -4.16050        0.65920        4.30250
H         -2.42940        1.22940        6.12510
H         -4.06410        0.75580        6.69720
H         -2.65180        0.52340        7.75120
H         -1.03310       -2.24300        4.06890
H         -0.72600       -1.70460        1.67130
H          3.19320        2.50820       -3.35770
H          2.72680        4.88150       -3.08790
H          2.35140        7.11680       -3.63380
H          1.42270        8.25070       -2.63080
H          2.14750        6.81380       -1.87630
H         -1.44430        4.12570       -3.66330
H         -0.96470        1.73220       -3.97450
H          2.80200       -1.54960       -3.07710
H          4.80070       -2.42610       -4.16040
H          7.09570       -2.52460       -4.49260
H          7.86630       -3.10350       -5.98850
H          6.20470       -3.60980       -5.61660
H          4.72340        0.83170       -6.93070
H          2.67630        1.69010       -5.86030
H         -3.39160       -5.78880       -2.23800
H         -5.57160       -5.26330       -1.29230
H         -7.94050       -5.30350       -1.44810
H         -8.96740       -4.18040       -0.52840
H         -7.31760       -4.51540        0.04000
H         -5.75080       -1.71890       -3.69090
H         -3.54950       -2.24230       -4.62350
H          0.32190       -5.39950       -3.66120
H          1.09800       -7.60490       -4.32370
H          1.53730       -9.96400       -4.21670
H          1.72610      -10.91210       -5.70910
H          1.97440       -9.15460       -5.75500
H         -2.86170       -8.61390       -5.59060
H         -3.64350       -6.37630       -4.92200
H         -2.55530       -4.70580       -6.98360
H          0.00340       -8.16720       -9.20500
