
  xtb     02052222223D
 energy: -309.080427906079 gnorm: 0.000614263064 xtb: 6.4.1 (unknown)
187206  0     0  0            999 V2000
    2.4880    3.8063    0.3173 C   0  0  0  0  0  0  0  0  0  0  0  0
    2.6793    5.1639    0.4076 C   0  0  0  0  0  0  0  0  0  0  0  0
    1.7658    6.1483    1.0032 C   0  0  0  0  0  0  0  0  0  0  0  0
    0.5582    6.0646    1.1453 O   0  0  0  0  0  0  0  0  0  0  0  0
    2.6008    7.3088    1.3635 C   0  0  0  0  0  0  0  0  0  0  0  0
    2.2168    8.4251    2.1023 C   0  0  0  0  0  0  0  0  0  0  0  0
    3.2247    9.3411    2.2898 C   0  0  0  0  0  0  0  0  0  0  0  0
    4.5173    9.1630    1.7798 C   0  0  0  0  0  0  0  0  0  0  0  0
    4.9084    8.0665    1.0468 C   0  0  0  0  0  0  0  0  0  0  0  0
    3.8996    7.1207    0.8488 C   0  0  0  0  0  0  0  0  0  0  0  0
    3.9278    5.8428    0.1408 C   0  0  0  0  0  0  0  0  0  0  0  0
    4.9113    5.4215   -0.7189 C   0  0  0  0  0  0  0  0  0  0  0  0
    4.7822    4.3190   -1.5838 C   0  0  0  0  0  0  0  0  0  0  0  0
    4.7166    3.4915   -2.3789 N   0  0  0  0  0  0  0  0  0  0  0  0
    6.1197    6.1104   -0.9424 C   0  0  0  0  0  0  0  0  0  0  0  0
    7.1284    6.6168   -1.1551 N   0  0  0  0  0  0  0  0  0  0  0  0
    5.0159   10.4579    2.3717 C   0  0  0  0  0  0  0  0  0  0  0  0
    5.8716   10.3447    3.6513 C   0  0  0  0  0  0  0  0  0  0  0  0
    5.8041   11.7289    4.2552 C   0  0  0  0  0  0  0  0  0  0  0  0
    4.5791   11.9003    4.7355 C   0  0  0  0  0  0  0  0  0  0  0  0
    3.7980   10.6347    4.4648 C   0  0  0  0  0  0  0  0  0  0  0  0
    4.9216    9.5985    4.5972 C   0  0  0  0  0  0  0  0  0  0  0  0
    3.5734   10.6579    2.9380 C   0  0  0  0  0  0  0  0  0  0  0  0
    1.3686    3.0484    0.6786 C   0  0  0  0  0  0  0  0  0  0  0  0
    1.3785    1.6505    0.8734 C   0  0  0  0  0  0  0  0  0  0  0  0
    2.4516    0.7988    0.6953 N   0  0  0  0  0  0  0  0  0  0  0  0
    2.5480   -0.2897    1.5809 C   0  0  0  0  0  0  0  0  0  0  0  0
    2.3951   -0.0722    2.9512 C   0  0  0  0  0  0  0  0  0  0  0  0
    2.4687   -1.1247    3.8343 C   0  0  0  0  0  0  0  0  0  0  0  0
    2.7019   -2.4188    3.3727 C   0  0  0  0  0  0  0  0  0  0  0  0
    2.7716   -3.6885    4.5960 S   0  0  0  0  0  0  0  0  0  0  0  0
    3.3557   -5.1450    3.6813 C   0  0  0  0  0  0  0  0  0  0  0  0
    2.8528   -2.6399    2.0106 C   0  0  0  0  0  0  0  0  0  0  0  0
    2.7750   -1.5843    1.1240 C   0  0  0  0  0  0  0  0  0  0  0  0
    3.1706    0.7645   -0.5100 C   0  0  0  0  0  0  0  0  0  0  0  0
    4.4930    0.3217   -0.5141 C   0  0  0  0  0  0  0  0  0  0  0  0
    5.1817    0.2081   -1.7017 C   0  0  0  0  0  0  0  0  0  0  0  0
    4.5681    0.5447   -2.9039 C   0  0  0  0  0  0  0  0  0  0  0  0
    5.4942    0.3437   -4.3926 S   0  0  0  0  0  0  0  0  0  0  0  0
    4.8558    1.7088   -5.4093 C   0  0  0  0  0  0  0  0  0  0  0  0
    3.2552    0.9975   -2.9025 C   0  0  0  0  0  0  0  0  0  0  0  0
    2.5632    1.1091   -1.7152 C   0  0  0  0  0  0  0  0  0  0  0  0
    0.1249    1.1907    1.3005 C   0  0  0  0  0  0  0  0  0  0  0  0
   -0.5186   -0.3871    1.5883 S   0  0  0  0  0  0  0  0  0  0  0  0
   -2.1541    0.2734    1.6908 C   0  0  0  0  0  0  0  0  0  0  0  0
   -2.1725    1.6578    1.5589 C   0  0  0  0  0  0  0  0  0  0  0  0
   -3.2717    2.4979    1.5626 N   0  0  0  0  0  0  0  0  0  0  0  0
   -3.0238    3.8219    1.9871 C   0  0  0  0  0  0  0  0  0  0  0  0
   -2.3766    4.0457    3.2013 C   0  0  0  0  0  0  0  0  0  0  0  0
   -2.0083    5.3221    3.5663 C   0  0  0  0  0  0  0  0  0  0  0  0
   -2.2823    6.3961    2.7258 C   0  0  0  0  0  0  0  0  0  0  0  0
   -1.7106    7.9888    3.2221 S   0  0  0  0  0  0  0  0  0  0  0  0
   -1.5559    8.8534    1.6300 C   0  0  0  0  0  0  0  0  0  0  0  0
   -2.9867    6.1845    1.5480 C   0  0  0  0  0  0  0  0  0  0  0  0
   -3.3514    4.9061    1.1798 C   0  0  0  0  0  0  0  0  0  0  0  0
   -4.4745    2.1978    0.9196 C   0  0  0  0  0  0  0  0  0  0  0  0
   -4.5386    1.3106   -0.1524 C   0  0  0  0  0  0  0  0  0  0  0  0
   -5.7486    1.0065   -0.7475 C   0  0  0  0  0  0  0  0  0  0  0  0
   -6.9189    1.5934   -0.2876 C   0  0  0  0  0  0  0  0  0  0  0  0
   -8.5196    1.2489   -0.9483 S   0  0  0  0  0  0  0  0  0  0  0  0
   -8.2845   -0.3131   -1.8379 C   0  0  0  0  0  0  0  0  0  0  0  0
   -6.8548    2.5133    0.7594 C   0  0  0  0  0  0  0  0  0  0  0  0
   -5.6525    2.8060    1.3609 C   0  0  0  0  0  0  0  0  0  0  0  0
   -0.8604    2.1643    1.3508 C   0  0  0  0  0  0  0  0  0  0  0  0
   -0.2300    3.7324    0.9976 S   0  0  0  0  0  0  0  0  0  0  0  0
   -3.1836   -0.7125    1.6325 C   0  0  0  0  0  0  0  0  0  0  0  0
   -4.5284   -0.7130    1.9233 C   0  0  0  0  0  0  0  0  0  0  0  0
   -5.2025   -1.8775    1.4917 C   0  0  0  0  0  0  0  0  0  0  0  0
   -6.6249   -2.1209    1.7046 C   0  0  0  0  0  0  0  0  0  0  0  0
   -7.1135   -3.4188    1.8555 C   0  0  0  0  0  0  0  0  0  0  0  0
   -8.4646   -3.6463    2.0186 C   0  0  0  0  0  0  0  0  0  0  0  0
   -9.3703   -2.5923    2.0363 C   0  0  0  0  0  0  0  0  0  0  0  0
  -10.8366   -2.8401    2.2372 C   0  0  0  0  0  0  0  0  0  0  0  0
  -11.1869   -2.7955    3.7261 C   0  0  0  0  0  0  0  0  0  0  0  0
   -8.8802   -1.2978    1.9152 C   0  0  0  0  0  0  0  0  0  0  0  0
   -7.5296   -1.0621    1.7595 C   0  0  0  0  0  0  0  0  0  0  0  0
   -4.3462   -2.7776    0.8747 C   0  0  0  0  0  0  0  0  0  0  0  0
   -2.7056   -2.2212    0.9175 S   0  0  0  0  0  0  0  0  0  0  0  0
   -4.5247   -3.9132    0.0085 C   0  0  0  0  0  0  0  0  0  0  0  0
   -5.5000   -4.0070   -0.9727 C   0  0  0  0  0  0  0  0  0  0  0  0
   -6.5450   -3.1565   -0.9772 F   0  0  0  0  0  0  0  0  0  0  0  0
   -5.3453   -4.8310   -2.0954 C   0  0  0  0  0  0  0  0  0  0  0  0
   -6.2522   -4.7192   -3.0811 F   0  0  0  0  0  0  0  0  0  0  0  0
   -4.2073   -5.5886   -2.2996 C   0  0  0  0  0  0  0  0  0  0  0  0
   -3.3034   -5.6930   -1.2014 C   0  0  0  0  0  0  0  0  0  0  0  0
   -2.2834   -6.5605   -1.2582 N   0  0  0  0  0  0  0  0  0  0  0  0
   -1.3866   -6.5679   -0.3046 C   0  0  0  0  0  0  0  0  0  0  0  0
   -0.3329   -7.6292   -0.3975 C   0  0  0  0  0  0  0  0  0  0  0  0
   -0.7476   -8.8651    0.4047 C   0  0  0  0  0  0  0  0  0  0  0  0
   -1.4666   -5.6367    0.7706 C   0  0  0  0  0  0  0  0  0  0  0  0
   -2.5003   -4.8405    0.8671 N   0  0  0  0  0  0  0  0  0  0  0  0
   -3.4489   -4.8513   -0.0792 C   0  0  0  0  0  0  0  0  0  0  0  0
   -0.4023   -5.5413    1.8240 C   0  0  0  0  0  0  0  0  0  0  0  0
   -0.6064   -4.3706    2.7763 C   0  0  0  0  0  0  0  0  0  0  0  0
   -3.8102   -6.1176   -3.5835 C   0  0  0  0  0  0  0  0  0  0  0  0
   -2.5596   -5.8671   -4.0464 C   0  0  0  0  0  0  0  0  0  0  0  0
   -1.6743   -4.8095   -3.4739 C   0  0  0  0  0  0  0  0  0  0  0  0
   -1.9281   -4.0170   -2.5900 O   0  0  0  0  0  0  0  0  0  0  0  0
   -0.4613   -4.8082   -4.2986 C   0  0  0  0  0  0  0  0  0  0  0  0
    0.6617   -4.0057   -4.1040 C   0  0  0  0  0  0  0  0  0  0  0  0
    1.6403   -4.1781   -5.0502 C   0  0  0  0  0  0  0  0  0  0  0  0
    1.5016   -5.0646   -6.1288 C   0  0  0  0  0  0  0  0  0  0  0  0
    0.4017   -5.8670   -6.3259 C   0  0  0  0  0  0  0  0  0  0  0  0
   -0.6026   -5.7248   -5.3596 C   0  0  0  0  0  0  0  0  0  0  0  0
   -1.8882   -6.4060   -5.2196 C   0  0  0  0  0  0  0  0  0  0  0  0
   -2.3468   -7.4246   -6.0099 C   0  0  0  0  0  0  0  0  0  0  0  0
   -3.5629   -8.1123   -5.8070 C   0  0  0  0  0  0  0  0  0  0  0  0
   -4.5281   -8.7243   -5.7009 N   0  0  0  0  0  0  0  0  0  0  0  0
   -1.6577   -7.9421   -7.1271 C   0  0  0  0  0  0  0  0  0  0  0  0
   -1.1503   -8.4075   -8.0455 N   0  0  0  0  0  0  0  0  0  0  0  0
    2.8470   -4.6913   -6.7041 C   0  0  0  0  0  0  0  0  0  0  0  0
    2.8448   -3.7262   -7.9095 C   0  0  0  0  0  0  0  0  0  0  0  0
    4.2555   -3.1799   -7.9374 C   0  0  0  0  0  0  0  0  0  0  0  0
    4.3921   -2.3557   -6.9063 C   0  0  0  0  0  0  0  0  0  0  0  0
    3.0759   -2.3315   -6.1644 C   0  0  0  0  0  0  0  0  0  0  0  0
    2.1045   -2.5096   -7.3383 C   0  0  0  0  0  0  0  0  0  0  0  0
    3.0053   -3.7182   -5.4918 C   0  0  0  0  0  0  0  0  0  0  0  0
    3.3467    3.2169    0.0103 H   0  0  0  0  0  0  0  0  0  0  0  0
    1.2155    8.5188    2.4913 H   0  0  0  0  0  0  0  0  0  0  0  0
    5.9077    7.9371    0.6652 H   0  0  0  0  0  0  0  0  0  0  0  0
    5.4043   11.1868    1.6630 H   0  0  0  0  0  0  0  0  0  0  0  0
    6.8621    9.9241    3.5004 H   0  0  0  0  0  0  0  0  0  0  0  0
    6.6107   12.4375    4.2222 H   0  0  0  0  0  0  0  0  0  0  0  0
    4.1581   12.7808    5.1841 H   0  0  0  0  0  0  0  0  0  0  0  0
    2.8991   10.4778    5.0548 H   0  0  0  0  0  0  0  0  0  0  0  0
    4.6480    8.6016    4.2568 H   0  0  0  0  0  0  0  0  0  0  0  0
    5.3119    9.5422    5.6121 H   0  0  0  0  0  0  0  0  0  0  0  0
    2.9987   11.5202    2.6050 H   0  0  0  0  0  0  0  0  0  0  0  0
    2.2217    0.9297    3.3150 H   0  0  0  0  0  0  0  0  0  0  0  0
    2.3525   -0.9577    4.8939 H   0  0  0  0  0  0  0  0  0  0  0  0
    2.5998   -5.4739    2.9743 H   0  0  0  0  0  0  0  0  0  0  0  0
    4.2920   -4.9146    3.1820 H   0  0  0  0  0  0  0  0  0  0  0  0
    3.5163   -5.9143    4.4302 H   0  0  0  0  0  0  0  0  0  0  0  0
    3.0201   -3.6313    1.6221 H   0  0  0  0  0  0  0  0  0  0  0  0
    2.8783   -1.7682    0.0652 H   0  0  0  0  0  0  0  0  0  0  0  0
    4.9723    0.0687    0.4202 H   0  0  0  0  0  0  0  0  0  0  0  0
    6.2056   -0.1322   -1.7087 H   0  0  0  0  0  0  0  0  0  0  0  0
    4.7227    2.5744   -4.7683 H   0  0  0  0  0  0  0  0  0  0  0  0
    3.9257    1.4226   -5.8927 H   0  0  0  0  0  0  0  0  0  0  0  0
    5.6126    1.9078   -6.1615 H   0  0  0  0  0  0  0  0  0  0  0  0
    2.7610    1.2564   -3.8252 H   0  0  0  0  0  0  0  0  0  0  0  0
    1.5375    1.4476   -1.7193 H   0  0  0  0  0  0  0  0  0  0  0  0
   -2.1390    3.2066    3.8391 H   0  0  0  0  0  0  0  0  0  0  0  0
   -1.4861    5.4968    4.4944 H   0  0  0  0  0  0  0  0  0  0  0  0
   -1.0277    8.2038    0.9379 H   0  0  0  0  0  0  0  0  0  0  0  0
   -2.5347    9.1301    1.2492 H   0  0  0  0  0  0  0  0  0  0  0  0
   -0.9781    9.7516    1.8263 H   0  0  0  0  0  0  0  0  0  0  0  0
   -3.2376    7.0060    0.8970 H   0  0  0  0  0  0  0  0  0  0  0  0
   -3.8710    4.7396    0.2478 H   0  0  0  0  0  0  0  0  0  0  0  0
   -3.6340    0.8659   -0.5380 H   0  0  0  0  0  0  0  0  0  0  0  0
   -5.7643    0.3084   -1.5686 H   0  0  0  0  0  0  0  0  0  0  0  0
   -7.8022   -1.0339   -1.1854 H   0  0  0  0  0  0  0  0  0  0  0  0
   -7.7106   -0.1500   -2.7455 H   0  0  0  0  0  0  0  0  0  0  0  0
   -9.2814   -0.6575   -2.0946 H   0  0  0  0  0  0  0  0  0  0  0  0
   -7.7657    2.9774    1.1052 H   0  0  0  0  0  0  0  0  0  0  0  0
   -5.6143    3.5024    2.1854 H   0  0  0  0  0  0  0  0  0  0  0  0
   -5.0192    0.0861    2.4477 H   0  0  0  0  0  0  0  0  0  0  0  0
   -6.4241   -4.2514    1.8530 H   0  0  0  0  0  0  0  0  0  0  0  0
   -8.8252   -4.6595    2.1281 H   0  0  0  0  0  0  0  0  0  0  0  0
  -11.1065   -3.8178    1.8329 H   0  0  0  0  0  0  0  0  0  0  0  0
  -11.4147   -2.0791    1.7094 H   0  0  0  0  0  0  0  0  0  0  0  0
  -12.2497   -2.9734    3.8726 H   0  0  0  0  0  0  0  0  0  0  0  0
  -10.6290   -3.5553    4.2692 H   0  0  0  0  0  0  0  0  0  0  0  0
  -10.9359   -1.8232    4.1443 H   0  0  0  0  0  0  0  0  0  0  0  0
   -9.5660   -0.4628    1.9289 H   0  0  0  0  0  0  0  0  0  0  0  0
   -7.1739   -0.0496    1.6515 H   0  0  0  0  0  0  0  0  0  0  0  0
   -0.2260   -7.9072   -1.4469 H   0  0  0  0  0  0  0  0  0  0  0  0
    0.6234   -7.2531   -0.0319 H   0  0  0  0  0  0  0  0  0  0  0  0
   -0.8848   -8.6216    1.4558 H   0  0  0  0  0  0  0  0  0  0  0  0
   -1.6834   -9.2607    0.0181 H   0  0  0  0  0  0  0  0  0  0  0  0
    0.0149   -9.6355    0.3244 H   0  0  0  0  0  0  0  0  0  0  0  0
   -0.3863   -6.4794    2.3873 H   0  0  0  0  0  0  0  0  0  0  0  0
    0.5651   -5.4460    1.3216 H   0  0  0  0  0  0  0  0  0  0  0  0
   -1.6024   -4.4061    3.2066 H   0  0  0  0  0  0  0  0  0  0  0  0
    0.1243   -4.4046    3.5803 H   0  0  0  0  0  0  0  0  0  0  0  0
   -0.4965   -3.4279    2.2474 H   0  0  0  0  0  0  0  0  0  0  0  0
   -4.5332   -6.6790   -4.1585 H   0  0  0  0  0  0  0  0  0  0  0  0
    0.7156   -3.3257   -3.2681 H   0  0  0  0  0  0  0  0  0  0  0  0
    0.3143   -6.5475   -7.1565 H   0  0  0  0  0  0  0  0  0  0  0  0
    3.5578   -5.5075   -6.8171 H   0  0  0  0  0  0  0  0  0  0  0  0
    2.4671   -4.1542   -8.8341 H   0  0  0  0  0  0  0  0  0  0  0  0
    4.9998   -3.4824   -8.6502 H   0  0  0  0  0  0  0  0  0  0  0  0
    5.2684   -1.8291   -6.5772 H   0  0  0  0  0  0  0  0  0  0  0  0
    2.9109   -1.4953   -5.4906 H   0  0  0  0  0  0  0  0  0  0  0  0
    2.1230   -1.6619   -8.0214 H   0  0  0  0  0  0  0  0  0  0  0  0
    1.0777   -2.7136   -7.0395 H   0  0  0  0  0  0  0  0  0  0  0  0
    3.8170   -3.8887   -4.7875 H   0  0  0  0  0  0  0  0  0  0  0  0
  1  2  2  0  0  0  0
  2  3  1  0  0  0  0
  3  4  2  0  0  0  0
  3  5  1  0  0  0  0
  5  6  2  0  0  0  0
  6  7  1  0  0  0  0
  7  8  2  0  0  0  0
  8  9  1  0  0  0  0
  9 10  2  0  0  0  0
 10 11  1  0  0  0  0
 11 12  2  0  0  0  0
 12 13  1  0  0  0  0
 13 14  3  0  0  0  0
 12 15  1  0  0  0  0
 15 16  3  0  0  0  0
  8 17  1  0  0  0  0
 17 18  1  0  0  0  0
 18 19  1  0  0  0  0
 19 20  2  0  0  0  0
 20 21  1  0  0  0  0
 21 22  1  0  0  0  0
 21 23  1  0  0  0  0
  1 24  1  0  0  0  0
 24 25  2  0  0  0  0
 25 26  1  0  0  0  0
 26 27  1  0  0  0  0
 27 28  2  0  0  0  0
 28 29  1  0  0  0  0
 29 30  2  0  0  0  0
 30 31  1  0  0  0  0
 31 32  1  0  0  0  0
 30 33  1  0  0  0  0
 33 34  2  0  0  0  0
 26 35  1  0  0  0  0
 35 36  2  0  0  0  0
 36 37  1  0  0  0  0
 37 38  2  0  0  0  0
 38 39  1  0  0  0  0
 39 40  1  0  0  0  0
 38 41  1  0  0  0  0
 41 42  2  0  0  0  0
 25 43  1  0  0  0  0
 43 44  1  0  0  0  0
 44 45  1  0  0  0  0
 45 46  2  0  0  0  0
 46 47  1  0  0  0  0
 47 48  1  0  0  0  0
 48 49  2  0  0  0  0
 49 50  1  0  0  0  0
 50 51  2  0  0  0  0
 51 52  1  0  0  0  0
 52 53  1  0  0  0  0
 51 54  1  0  0  0  0
 54 55  2  0  0  0  0
 47 56  1  0  0  0  0
 56 57  2  0  0  0  0
 57 58  1  0  0  0  0
 58 59  2  0  0  0  0
 59 60  1  0  0  0  0
 60 61  1  0  0  0  0
 59 62  1  0  0  0  0
 62 63  2  0  0  0  0
 46 64  1  0  0  0  0
 64 65  1  0  0  0  0
 45 66  1  0  0  0  0
 66 67  2  0  0  0  0
 67 68  1  0  0  0  0
 68 69  1  0  0  0  0
 69 70  2  0  0  0  0
 70 71  1  0  0  0  0
 71 72  2  0  0  0  0
 72 73  1  0  0  0  0
 73 74  1  0  0  0  0
 72 75  1  0  0  0  0
 75 76  2  0  0  0  0
 68 77  2  0  0  0  0
 77 78  1  0  0  0  0
 77 79  1  0  0  0  0
 79 80  2  0  0  0  0
 80 81  1  0  0  0  0
 80 82  1  0  0  0  0
 82 83  1  0  0  0  0
 82 84  2  0  0  0  0
 84 85  1  0  0  0  0
 85 86  2  0  0  0  0
 86 87  1  0  0  0  0
 87 88  1  0  0  0  0
 88 89  1  0  0  0  0
 87 90  2  0  0  0  0
 90 91  1  0  0  0  0
 91 92  2  0  0  0  0
 90 93  1  0  0  0  0
 93 94  1  0  0  0  0
 84 95  1  0  0  0  0
 95 96  2  0  0  0  0
 96 97  1  0  0  0  0
 97 98  2  0  0  0  0
 97 99  1  0  0  0  0
 99100  2  0  0  0  0
100101  1  0  0  0  0
101102  2  0  0  0  0
102103  1  0  0  0  0
103104  2  0  0  0  0
104105  1  0  0  0  0
105106  2  0  0  0  0
106107  1  0  0  0  0
107108  3  0  0  0  0
106109  1  0  0  0  0
109110  3  0  0  0  0
102111  1  0  0  0  0
111112  1  0  0  0  0
112113  1  0  0  0  0
113114  2  0  0  0  0
114115  1  0  0  0  0
115116  1  0  0  0  0
115117  1  0  0  0  0
 11  2  1  0  0  0  0
 23 17  1  0  0  0  0
 65 24  1  0  0  0  0
 78 66  1  0  0  0  0
 92 79  1  0  0  0  0
105 96  1  0  0  0  0
117111  1  0  0  0  0
 10  5  1  0  0  0  0
 22 18  1  0  0  0  0
 34 27  1  0  0  0  0
 42 35  1  0  0  0  0
 64 43  2  0  0  0  0
 76 69  1  0  0  0  0
 92 85  1  0  0  0  0
104 99  1  0  0  0  0
116112  1  0  0  0  0
 23  7  1  0  0  0  0
 55 48  1  0  0  0  0
 63 56  1  0  0  0  0
117101  1  0  0  0  0
  1118  1  0  0  0  0
  6119  1  0  0  0  0
  9120  1  0  0  0  0
 17121  1  0  0  0  0
 18122  1  0  0  0  0
 19123  1  0  0  0  0
 20124  1  0  0  0  0
 21125  1  0  0  0  0
 22126  1  0  0  0  0
 22127  1  0  0  0  0
 23128  1  0  0  0  0
 28129  1  0  0  0  0
 29130  1  0  0  0  0
 32131  1  0  0  0  0
 32132  1  0  0  0  0
 32133  1  0  0  0  0
 33134  1  0  0  0  0
 34135  1  0  0  0  0
 36136  1  0  0  0  0
 37137  1  0  0  0  0
 40138  1  0  0  0  0
 40139  1  0  0  0  0
 40140  1  0  0  0  0
 41141  1  0  0  0  0
 42142  1  0  0  0  0
 49143  1  0  0  0  0
 50144  1  0  0  0  0
 53145  1  0  0  0  0
 53146  1  0  0  0  0
 53147  1  0  0  0  0
 54148  1  0  0  0  0
 55149  1  0  0  0  0
 57150  1  0  0  0  0
 58151  1  0  0  0  0
 61152  1  0  0  0  0
 61153  1  0  0  0  0
 61154  1  0  0  0  0
 62155  1  0  0  0  0
 63156  1  0  0  0  0
 67157  1  0  0  0  0
 70158  1  0  0  0  0
 71159  1  0  0  0  0
 73160  1  0  0  0  0
 73161  1  0  0  0  0
 74162  1  0  0  0  0
 74163  1  0  0  0  0
 74164  1  0  0  0  0
 75165  1  0  0  0  0
 76166  1  0  0  0  0
 88167  1  0  0  0  0
 88168  1  0  0  0  0
 89169  1  0  0  0  0
 89170  1  0  0  0  0
 89171  1  0  0  0  0
 93172  1  0  0  0  0
 93173  1  0  0  0  0
 94174  1  0  0  0  0
 94175  1  0  0  0  0
 94176  1  0  0  0  0
 95177  1  0  0  0  0
100178  1  0  0  0  0
103179  1  0  0  0  0
111180  1  0  0  0  0
112181  1  0  0  0  0
113182  1  0  0  0  0
114183  1  0  0  0  0
115184  1  0  0  0  0
116185  1  0  0  0  0
116186  1  0  0  0  0
117187  1  0  0  0  0
M  END
