265

C         -4.67020       -5.41740       -4.92210
C         -6.01040       -5.26760       -5.20930
C         -6.95950       -4.38020       -4.54010
O         -6.71560       -3.46750       -3.76410
C         -8.30010       -4.78010       -5.00180
C         -9.52160       -4.24640       -4.60040
C        -10.61180       -4.84420       -5.18670
C        -10.49380       -5.88890       -6.11150
C         -9.29260       -6.41720       -6.52410
C         -8.17170       -5.82930       -5.93390
C         -6.74660       -6.10090       -6.12990
C         -6.22790       -6.98870       -7.04310
C         -4.86520       -7.11230       -7.37170
N         -3.77940       -7.24350       -7.72690
C         -7.00020       -7.88260       -7.81030
N         -7.56800       -8.66180       -8.43490
C        -11.98710       -6.01540       -6.28070
C        -12.69580       -7.19250       -5.56600
C        -11.84510       -7.54260       -4.37050
C        -11.95570       -6.55520       -3.49190
C        -12.88380       -5.51980       -4.07720
C        -13.83490       -6.42790       -4.87300
C        -12.11890       -4.85240       -5.24730
C         -3.88290       -4.81480       -3.94450
C         -2.55160       -5.21810       -3.63700
N         -2.02860       -6.43160       -3.99130
C         -2.87240       -7.54700       -4.19930
C         -2.61830       -8.42600       -5.25060
C         -3.49660       -9.45350       -5.51960
C         -4.64960       -9.61310       -4.75630
S         -5.77830      -10.87840       -5.24460
C         -7.35930      -10.28460       -4.57250
C         -4.85980       -8.79000       -3.65480
C         -3.97030       -7.77470       -3.37170
C         -0.64500       -6.66490       -4.05260
C          0.22900       -5.75620       -4.64720
C          1.56130       -6.07870       -4.79750
C          2.03960       -7.31330       -4.36670
S          3.72600       -7.70320       -4.69550
C          3.76190       -9.51880       -4.59750
C          1.18460       -8.19380       -3.71660
C         -0.14530       -7.86930       -3.56200
C         -1.91990       -4.26760       -2.81360
S         -0.31210       -4.03540       -2.16870
C         -0.85050       -2.60310       -1.30490
C         -2.22130       -2.40390       -1.42730
N         -2.92980       -1.54180       -0.59650
C         -2.72170       -1.69610        0.78640
C         -2.78480       -0.59390        1.63050
C         -2.51170       -0.72100        2.97860
C         -2.16880       -1.95780        3.50670
S         -1.76590       -2.23350        5.20510
C         -1.38480       -0.56820        5.82110
C         -2.14540       -3.07320        2.67210
C         -2.41820       -2.94530        1.32840
C         -4.04160       -0.87150       -1.10530
C         -5.18990       -0.67120       -0.34080
C         -6.31280       -0.11380       -0.91330
C         -6.30870        0.24250       -2.25440
S         -7.80830        0.83060       -3.00200
C         -7.87630       -0.28840       -4.43770
C         -5.14700        0.11470       -3.00180
C         -4.01890       -0.43280       -2.42930
C         -2.79830       -3.28970       -2.35360
S         -4.39020       -3.41680       -2.99620
C          0.01070       -1.68840       -0.63920
C          1.23750       -1.86860       -0.02940
N          1.92510       -3.08670        0.08360
C          2.66040       -3.52820       -1.01860
C          3.13980       -4.83690       -1.08650
C          3.95350       -5.23730       -2.12720
C          4.28560       -4.34490       -3.13850
S          5.37210       -4.74240       -4.47840
C          6.53330       -5.91080       -3.71480
C          3.73720       -3.06780       -3.12420
C          2.93990       -2.66160       -2.07770
C          2.26160       -3.42940        1.40530
C          1.31760       -3.20430        2.40970
C          1.61690       -3.47150        3.72600
C          2.86830       -3.97410        4.07630
S          3.15490       -4.25830        5.79560
C          4.80700       -5.00980        5.84220
C          3.80820       -4.20550        3.08300
C          3.50700       -3.92980        1.76370
C          1.72810       -0.65990        0.51480
S          3.18160       -0.23130        1.34640
C          2.68750        1.45950        1.37960
C          1.47820        1.66050        0.71620
N          0.92050        2.90000        0.44560
C         -0.47840        3.02900        0.49740
C         -1.17860        3.56670       -0.57710
C         -2.55870        3.61520       -0.56260
C         -3.25790        3.13950        0.53890
S         -5.01660        3.06370        0.64320
C         -5.56730        3.44930       -1.03930
C         -2.55210        2.66470        1.64390
C         -1.17740        2.59600        1.62160
C          1.71510        3.96920        0.02760
C          2.84970        3.75810       -0.75140
C          3.66720        4.81290       -1.10510
C          3.37270        6.09860       -0.66850
S          4.42580        7.48910       -0.96080
C          5.37530        6.99180       -2.42900
C          2.22240        6.31870        0.08570
C          1.39510        5.27010        0.42080
C          0.92920        0.44290        0.26470
S         -0.50030        0.00480       -0.59690
C          3.34650        2.48110        2.12880
C          4.67920        2.82370        2.31880
N          5.77870        2.27110        1.67910
C          6.00310        0.89030        1.63200
C          6.50750        0.31580        0.46790
C          6.77710       -1.03510        0.41040
C          6.54600       -1.83510        1.52200
S          6.92230       -3.56110        1.55600
C          7.01320       -4.01230       -0.20220
C          6.03870       -1.26810        2.68700
C          5.76870        0.08300        2.74480
C          6.78350        3.15020        1.23670
C          6.43920        4.40510        0.73860
C          7.40720        5.33310        0.41380
C          8.75010        5.01180        0.55410
S         10.05630        6.14430        0.20640
C          9.23840        7.76540        0.27350
C          9.10150        3.73390        0.98520
C          8.13410        2.81660        1.33300
C          4.79030        3.98980        3.12190
S          6.13140        4.94230        3.64070
C          5.04360        6.19210        4.26310
C          3.68780        5.86980        4.02490
N          2.63220        6.73320        4.09220
C          2.80780        8.10900        3.88160
C          2.10240        9.02770        4.65520
C          2.32740       10.38450        4.51710
C          3.25990       10.84400        3.59600
S          3.70080       12.53430        3.39440
C          2.97430       13.34510        4.84650
C          3.90520        9.92790        2.76060
C          3.68530        8.57890        2.90140
C          1.32550        6.23350        4.21300
C          1.03820        5.21930        5.12110
C         -0.24160        4.70830        5.21690
C         -1.25170        5.20330        4.40140
S         -2.91810        4.63450        4.42700
C         -2.83460        3.12020        5.42710
C         -0.97010        6.23970        3.51190
C          0.30260        6.75480        3.42050
C          3.58290        4.57390        3.47230
S          2.25690        3.59240        2.97200
C          5.65070        7.32180        4.79970
C          5.06080        8.27430        5.60980
C          3.92100        8.01710        6.49300
O          3.29630        6.98000        6.62630
C          3.76080        9.25670        7.29450
C          2.84220        9.52870        8.28510
C          2.91630       10.77950        8.88270
F          2.02940       11.09370        9.84540
C          3.86750       11.72000        8.52450
C          4.78980       11.43070        7.52680
C          4.73290       10.19420        6.90470
C          5.53020        9.61210        5.82500
C          6.44010       10.28050        5.04010
C          7.06410        9.71670        3.91070
N          7.58380        9.32490        2.96320
C          6.79780       11.62770        5.23350
N          7.11330       12.72470        5.36210
H         -4.14770       -6.14760       -5.52530
H         -9.56780       -3.43880       -3.88630
H         -9.22090       -7.21840       -7.24060
H        -12.36920       -5.85000       -7.28600
H        -12.96970       -8.01740       -6.21820
H        -11.22420       -8.41770       -4.31320
H        -11.44530       -6.43950       -2.55350
H        -13.32960       -4.82230       -3.37300
H        -14.47610       -5.88390       -5.56520
H        -14.44240       -7.06590       -4.23290
H        -12.59010       -3.92840       -5.57680
H         -1.75620       -8.27390       -5.88060
H         -3.32030      -10.11430       -6.35310
H         -7.47310       -9.22730       -4.79380
H         -8.12750      -10.85400       -5.08600
H         -7.41630      -10.47050       -3.50370
H         -5.71180       -8.93660       -3.01030
H         -4.14230       -7.13600       -2.51810
H         -0.14650       -4.82020       -5.03100
H          2.23850       -5.39040       -5.27880
H          3.71930       -9.84960       -3.56350
H          4.70830       -9.81780       -5.03770
H          2.93920       -9.92840       -5.17520
H          1.54120       -9.13550       -3.33190
H         -0.81090       -8.56180       -3.06860
H         -3.03970        0.36860        1.21800
H         -2.56660        0.15370        3.60630
H         -0.92240       -0.71380        6.79240
H         -0.68390       -0.08550        5.14620
H         -2.29680        0.01210        5.93250
H         -1.90610       -4.03880        3.09080
H         -2.39140       -3.81850        0.69390
H         -5.21500       -0.99140        0.68930
H         -7.21200        0.01790       -0.33200
H         -8.91530       -0.33180       -4.74890
H         -7.52720       -1.26980       -4.12900
H         -7.26640        0.10110       -5.24790
H         -5.12580        0.43090       -4.03360
H         -3.11300       -0.53740       -3.00810
H          2.87680       -5.54010       -0.31110
H          4.32660       -6.24870       -2.14830
H          6.07300       -6.88910       -3.61880
H          6.84720       -5.52370       -2.75060
H          7.38090       -5.96910       -4.39000
H          3.96890       -2.38690       -3.92880
H          2.55570       -1.65280       -2.06470
H          0.34440       -2.81540        2.14940
H          0.88250       -3.29630        4.49720
H          4.81440       -5.92220        5.25350
H          4.99250       -5.24200        6.88630
H          5.55200       -4.30520        5.48390
H          4.79180       -4.58110        3.31310
H          4.26250       -4.08840        1.01230
H         -0.63440        3.92930       -1.43670
H         -3.07680        4.01590       -1.41860
H         -5.06670        2.79200       -1.74390
H         -6.63470        3.25130       -1.05530
H         -5.38180        4.49570       -1.26450
H         -3.10990        2.35030        2.51160
H         -0.62640        2.20600        2.46540
H          3.09770        2.75890       -1.07780
H          4.53610        4.61880       -1.71370
H          6.10180        6.22440       -2.17580
H          4.69240        6.64630       -3.19900
H          5.88810        7.88840       -2.76360
H          1.99460        7.32200        0.41280
H          0.50760        5.44000        1.01150
H          6.69450        0.94040       -0.39290
H          7.17110       -1.45140       -0.50270
H          7.93380       -3.63890       -0.64220
H          6.14150       -3.62870       -0.72620
H          7.01230       -5.09840       -0.22100
H          5.86230       -1.89410        3.54740
H          5.38030        0.52250        3.65140
H          5.39690        4.66670        0.63260
H          7.10260        6.30980        0.07460
H         10.04210        8.49510        0.26980
H          8.61230        7.91100       -0.60220
H          8.66440        7.85680        1.19050
H         10.14640        3.48070        1.07680
H          8.42200        1.84620        1.70860
H          1.38370        8.67160        5.37790
H          1.77930       11.07000        5.14290
H          3.37790       14.35270        4.84600
H          1.89230       13.38120        4.75880
H          3.28330       12.82380        5.74810
H          4.58950       10.29040        2.00950
H          4.19670        7.88410        2.25270
H          1.81950        4.86160        5.77320
H         -0.43910        3.93450        5.94070
H         -2.05550        2.47290        5.03570
H         -3.80720        2.64810        5.32420
H         -2.65470        3.36390        6.47020
H         -1.76380        6.62640        2.89090
H          0.51760        7.55470        2.72760
H          6.70390        7.43270        4.57140
H          2.09860        8.80680        8.58260
H          3.88400       12.67250        9.03070
H          5.53600       12.16220        7.26130
