179

C          5.92430       -3.08990       -0.93200
C          6.31260       -4.31670       -0.48450
C          5.70210       -4.98960        0.68500
O          4.75400       -4.60040        1.33670
C          6.58830       -6.12520        0.99810
C          6.43660       -7.05050        2.02750
C          7.43180       -7.99580        2.08750
C          8.52830       -7.99620        1.21450
C          8.69720       -7.08580        0.19930
C          7.67530       -6.13740        0.09990
C          7.50980       -5.04190       -0.84770
C          8.27590       -4.80080       -1.95890
C          7.98850       -3.79710       -2.90760
N          7.79320       -3.01940       -3.72970
C          9.41740       -5.54360       -2.32080
N         10.35660       -6.10610       -2.66750
C          9.16280       -9.19060        1.88300
C          9.07350      -10.55700        1.16280
C          7.84510      -10.49450        0.28890
C          6.78360      -10.50550        1.08360
C          7.27400      -10.57810        2.50810
C          8.54220      -11.42510        2.31470
C          7.92410       -9.20960        2.83340
C          4.62370       -2.53320       -0.79660
C          3.40670       -3.07480       -1.20030
N          3.22370       -4.32830       -1.77870
C          3.24780       -5.47230       -0.95970
C          2.57820       -5.46330        0.25780
C          2.61560       -6.56740        1.08850
C          3.33840       -7.68880        0.71270
S          3.47250       -9.14380        1.70410
C          2.67070       -8.68700        3.26720
C          4.00700       -7.70290       -0.51120
C          3.95820       -6.60660       -1.34390
C          2.66210       -4.37660       -3.05600
C          1.86040       -5.44250       -3.45600
C          1.30160       -5.47170       -4.71920
C          1.52530       -4.42820       -5.60590
S          0.84180       -4.33740       -7.23120
C          0.00480       -5.93440       -7.44560
C          2.33400       -3.36310       -5.21390
C          2.90160       -3.33940       -3.96150
C          2.37760       -2.10830       -1.13400
S          0.69670       -2.15240       -1.52480
C          0.51910       -0.51000       -0.95110
C          1.71280        0.06720       -0.54540
N          1.87310        1.38970       -0.18090
C          2.91230        1.77850        0.67490
C          3.29410        0.99150        1.76110
C          4.32260        1.39280        2.58420
C          4.99010        2.59280        2.35130
S          6.28760        3.00130        3.47650
C          6.92990        4.58030        2.85340
C          4.60570        3.38710        1.27900
C          3.58020        2.97980        0.44930
C          1.01170        2.37650       -0.69020
C          0.65620        2.39240       -2.03950
C         -0.25680        3.31160       -2.50350
C         -0.83060        4.24460       -1.63930
S         -2.03480        5.32220       -2.34380
C         -2.67440        6.25620       -0.92570
C         -0.42780        4.27400       -0.31090
C          0.48490        3.34680        0.15590
C          2.77360       -0.86980       -0.65370
S          4.47390       -0.84160       -0.34210
C         -0.77280        0.14410       -1.01120
C         -1.31290        0.76730        0.10500
O         -0.70980        0.54170        1.32570
C         -0.93870       -0.76630        1.85030
C          0.21000       -1.15530        2.76360
C         -2.44260        1.62100        0.00630
O         -2.96230        2.32420        1.02590
C         -2.35750        2.45970        2.30410
C         -2.98620        3.67440        2.96860
C         -3.10370        1.81600       -1.21990
C         -2.64020        1.07630       -2.33630
C         -1.47530        0.24240       -2.22830
N         -1.14570       -0.33020       -3.38290
S         -2.21230        0.11480       -4.49860
N         -3.13060        1.06220       -3.57440
C         -4.17970        2.75490       -1.33840
C         -4.78440        3.16570       -2.51590
C         -5.77070        4.12610       -2.32350
C         -6.54200        4.71840       -3.43490
O         -7.61560        5.26370       -3.32320
O         -5.89620        4.57630       -4.59440
C         -6.52980        5.11200       -5.75540
C         -7.54840        4.13960       -6.33320
C         -5.96050        4.45920       -0.97020
S         -4.87370        3.54460        0.03420
C         -6.82290        5.47400       -0.52580
C         -7.18880        5.81670        0.74750
C         -6.94280        5.05110        1.97680
O         -6.15140        4.13990        2.14740
C         -7.87180        5.59510        2.98460
C         -8.07000        5.12840        4.28200
C         -9.01990        5.82570        4.98870
C         -9.72260        6.91070        4.44770
C         -9.52990        7.38900        3.17310
C         -8.56880        6.69200        2.43700
C         -8.08490        6.90870        1.07680
C         -8.32720        8.00620        0.29450
C         -9.20050        9.05470        0.64770
N         -9.90450        9.93180        0.87950
C         -7.65600        8.27910       -0.91810
N         -7.09670        8.60720       -1.86560
C        -10.53000        7.11690        5.70460
C        -11.99430        6.61220        5.71250
C        -12.06250        5.47600        4.72260
C        -11.39620        4.45070        5.23640
C        -10.86480        4.87550        6.58300
C        -11.98950        5.82240        7.03120
C         -9.74510        5.91000        6.30860
H          6.64690       -2.45560       -1.43320
H          5.59560       -6.99620        2.70010
H          9.54920       -7.08990       -0.46040
H         10.13990       -9.01560        2.32930
H          9.99320      -10.87440        0.67870
H          7.87670      -10.39490       -0.78030
H          5.74690      -10.41980        0.81850
H          6.54960      -10.91820        3.24320
H          9.19520      -11.43620        3.18660
H          8.32320      -12.44600        2.00590
H          8.09480       -9.07960        3.90070
H          2.02710       -4.58530        0.55730
H          2.08610       -6.52880        2.02610
H          1.60610       -8.53570        3.11290
H          3.13950       -7.79750        3.67760
H          2.82830       -9.52950        3.93340
H          4.57460       -8.57720       -0.79260
H          4.47990       -6.61270       -2.28970
H          1.66150       -6.25180       -2.76950
H          0.68190       -6.31140       -4.98980
H         -0.82310       -6.02030       -6.74770
H         -0.37180       -5.93200       -8.46370
H          0.71650       -6.74460       -7.31730
H          2.51670       -2.55860       -5.90920
H          3.54280       -2.51770       -3.68060
H          2.77420        0.07010        1.96680
H          4.61820        0.78150        3.42290
H          7.74310        4.84780        3.52100
H          6.15500        5.34040        2.89450
H          7.30890        4.45460        1.84340
H          5.10060        4.32160        1.07010
H          3.29370        3.59840       -0.38840
H          1.09200        1.67250       -2.71630
H         -0.54180        3.32200       -3.54460
H         -3.04390        5.57060       -0.16800
H         -3.49620        6.84990       -1.31530
H         -1.90350        6.91140       -0.53010
H         -0.82560        5.00610        0.37300
H          0.79150        3.36380        1.19170
H         -1.03700       -1.49010        1.03300
H         -1.88480       -0.75610        2.41280
H         -0.04620       -2.06070        3.30670
H          0.40620       -0.35590        3.47300
H          1.10860       -1.34030        2.18150
H         -2.55630        1.56030        2.89890
H         -1.27690        2.58550        2.20190
H         -2.65780        3.73740        4.00190
H         -2.69360        4.58300        2.44920
H         -4.06910        3.59690        2.93330
H         -4.50330        2.78350       -3.47860
H         -7.01670        6.05630       -5.48980
H         -5.71610        5.29650       -6.45960
H         -8.35770        3.98510       -5.62360
H         -7.07650        3.18320       -6.54620
H         -7.95970        4.54680       -7.25230
H         -7.29230        6.02460       -1.33330
H         -7.50860        4.28900        4.66180
H        -10.07770        8.22320        2.76690
H        -10.42370        8.08700        6.18590
H        -12.74120        7.39330        5.59880
H        -12.52450        5.55100        3.75570
H        -11.19020        3.49820        4.78410
H        -10.58380        4.07520        7.26280
H        -12.92900        5.30330        7.21470
H        -11.72780        6.42730        7.89830
H         -9.12510        6.09300        7.18430
