268

C         -0.07300       -6.75220       -1.71100
C          0.71230       -6.37220       -2.75020
C          0.81220       -7.19810       -3.98670
O          0.53270       -8.36820       -4.10590
C          1.23250       -6.24740       -5.03610
C          1.27820       -6.47290       -6.41070
C          1.65440       -5.37380       -7.14510
C          1.97570       -4.13960       -6.56240
C          1.95660       -3.90640       -5.20810
C          1.56050       -5.00780       -4.44610
C          1.39250       -5.12260       -3.00470
C          1.99550       -4.34350       -2.05220
C          1.93930       -4.64100       -0.67710
N          1.95930       -4.85500        0.45160
C          2.79270       -3.21670       -2.32930
N          3.45430       -2.29130       -2.48760
C          2.22610       -3.48380       -7.89720
C          1.10820       -2.55960       -8.42610
C          1.39640       -2.45450       -9.90640
C          1.09780       -3.62330      -10.45900
C          0.60190       -4.53720       -9.36190
C         -0.09490       -3.51130       -8.45860
C          1.87270       -4.86000       -8.54680
C         -0.70490       -5.88490       -0.77870
C         -1.17840       -4.59590       -0.99270
N         -0.99190       -3.81910       -2.16180
C         -0.27900       -2.61710       -2.05950
C          0.25230       -2.14210       -0.85720
C          0.88760       -0.91940       -0.80110
C          1.04600       -0.14860       -1.94650
S          1.75420        1.45510       -1.74000
C          1.37910        2.29440       -3.30740
C          0.62000       -0.66130       -3.16680
C         -0.03400       -1.87510       -3.21850
C         -2.07980       -3.86350       -3.07710
C         -2.88150       -2.74660       -3.28990
C         -3.91290       -2.78040       -4.20710
C         -4.17160       -3.94560       -4.91670
S         -5.44360       -4.10690       -6.12740
C         -6.20840       -2.46110       -6.18000
C         -3.39700       -5.07840       -4.67450
C         -2.36380       -5.04090       -3.76320
C         -1.89100       -4.13380        0.12540
S         -2.65710       -2.63740        0.50200
C         -2.71920       -3.07740        2.22360
C         -2.31120       -4.38010        2.43920
N         -2.30550       -5.07530        3.65310
C         -3.55880       -5.35020        4.24440
C         -3.97000       -6.66020        4.47690
C         -5.16150       -6.92620        5.12430
C         -5.98520       -5.88210        5.51960
S         -7.49870       -6.09450        6.40730
C         -7.42920       -7.82230        6.95760
C         -5.62990       -4.57700        5.19190
C         -4.43330       -4.31470        4.56260
C         -1.11480       -5.68430        4.06470
C          0.09600       -5.31210        3.46980
C          1.29350       -5.83510        3.89800
C          1.33420       -6.74750        4.94770
S          2.92840       -7.34600        5.41560
C          2.58660       -8.42830        6.83350
C          0.14500       -7.10420        5.56490
C         -1.05800       -6.57720        5.13350
C         -1.86870       -4.98060        1.22580
S         -1.13130       -6.48650        0.81380
C         -2.82900       -1.88300        3.02010
C         -1.79580       -1.34850        3.79550
N         -0.95630       -2.07280        4.63540
C          0.41160       -2.11010        4.33100
C          1.39370       -2.18660        5.31780
C          2.71360       -2.36350        4.96670
C          3.08910       -2.43620        3.62680
S          4.78160       -2.78280        3.28450
C          4.78010       -3.18010        1.51270
C          2.13120       -2.24310        2.64140
C          0.80690       -2.08730        2.99520
C         -1.53040       -2.70730        5.74010
C         -2.75570       -2.25420        6.23060
C         -3.41420       -2.92120        7.24440
C         -2.84650       -4.05250        7.80940
S         -3.62970       -5.04570        9.04070
C         -5.31860       -4.38590        9.12300
C         -1.58040       -4.45310        7.39110
C         -0.92930       -3.79690        6.37130
C         -1.64730        0.03660        3.53600
S         -0.29740        1.11600        3.63880
C         -1.00810        2.18960        2.41750
C         -2.30310        1.80140        2.10110
N         -3.22400        2.41370        1.23670
C         -3.07520        2.27500       -0.14520
C         -3.78260        3.09860       -1.02010
C         -3.65690        2.96720       -2.38820
C         -2.81140        2.00250       -2.91540
S         -2.53480        1.75560       -4.64540
C         -3.41820        3.13040       -5.43270
C         -2.10880        1.17010       -2.04960
C         -2.22770        1.30600       -0.68430
C         -4.48470        2.62140        1.82500
C         -5.68500        2.37970        1.15740
C         -6.88800        2.64490        1.77270
C         -6.93040        3.13280        3.07680
S         -8.52420        3.47280        3.75120
C         -8.15710        4.37240        5.28480
C         -5.74180        3.30650        3.77090
C         -4.53680        3.05550        3.14800
C         -2.62390        0.57280        2.71380
S         -3.81970       -0.60650        2.29320
C         -0.08270        3.05140        1.76400
C         -0.23230        4.15670        0.93540
N         -1.39990        4.86390        0.67460
C         -1.50010        5.38970       -0.62860
C         -1.15030        4.57440       -1.70600
C         -1.14830        5.07300       -2.98820
C         -1.49700        6.39760       -3.22640
S         -1.45320        6.95120       -4.90280
C         -1.20970        8.74180       -4.72620
C         -1.86540        7.20870       -2.16220
C         -1.85710        6.71160       -0.87370
C         -2.23940        5.29140        1.70340
C         -1.80050        5.33800        3.02540
C         -2.63230        5.77490        4.03900
C         -3.92530        6.18480        3.75210
S         -5.08590        6.73380        4.96730
C         -4.08520        6.93400        6.46900
C         -4.37200        6.14730        2.43400
C         -3.54450        5.70760        1.42710
C          1.01090        4.53490        0.36740
S          1.44010        5.69690       -0.83190
C          3.13270        5.19300       -0.74080
C          3.31570        4.11260        0.16850
N          4.47830        3.43670        0.39520
C          4.62380        2.73060        1.60550
C          4.27870        3.33210        2.81320
C          4.36670        2.62770        3.99690
C          4.81310        1.31220        3.98920
S          4.92470        0.32610        5.44380
C          3.66240        1.06850        6.52170
C          5.21920        0.73020        2.78950
C          5.11990        1.42750        1.60720
C          5.50290        3.29640       -0.56220
C          6.83520        3.37700       -0.15890
C          7.84490        3.28670       -1.09090
C          7.54680        3.13010       -2.44290
S          8.91310        3.10960       -3.55450
C          8.14710        3.35010       -5.18300
C          6.21980        2.99280       -2.83850
C          5.20800        3.06180       -1.90300
C          2.09530        3.77630        0.78320
S          1.60440        2.54650        1.89470
C          4.15040        5.79720       -1.46540
C          4.08850        6.63130       -2.56910
C          2.88230        7.07340       -3.26190
O          1.72420        7.04210       -2.88110
C          3.33890        7.61210       -4.56310
C          2.57720        8.09050       -5.60620
C          3.24920        8.56110       -6.73050
C          2.46510        9.06640       -7.90810
F          2.31450        8.12130       -8.85730
F          3.05080       10.11100       -8.51350
F          1.22650        9.46330       -7.57700
C          4.63790        8.54250       -6.79510
C          5.39630        8.05120       -5.74040
C          4.74180        7.57480       -4.61540
C          5.23480        7.00680       -3.35660
C          6.56200        6.86850       -3.01900
C          7.03650        6.50290       -1.74500
N          7.49270        6.26500       -0.71690
C          7.62520        7.09980       -3.91190
N          8.52440        7.22870       -4.61540
H         -0.33700       -7.80250       -1.65290
H          1.02860       -7.43700       -6.82500
H          2.20400       -2.95810       -4.75880
H          3.22380       -3.07600       -8.04840
H          0.99360       -1.62570       -7.88220
H          1.82630       -1.58830      -10.37410
H          1.22850       -3.92810      -11.48060
H          0.02610       -5.40520       -9.67090
H         -0.96190       -3.06190       -8.94000
H         -0.38350       -3.89980       -7.48320
H          2.63560       -5.37170       -9.13010
H          0.16490       -2.72330        0.04620
H          1.25630       -0.54310        0.14190
H          0.33460        2.13960       -3.56090
H          2.03200        1.92740       -4.09490
H          1.56350        3.35140       -3.13390
H          0.77780       -0.11820       -4.08490
H         -0.37920       -2.25030       -4.17070
H         -2.69810       -1.83870       -2.73400
H         -4.50550       -1.89170       -4.34920
H         -6.98540       -2.52570       -6.93530
H         -6.65040       -2.22540       -5.21630
H         -5.47110       -1.71850       -6.47050
H         -3.61080       -5.98740       -5.21520
H         -1.77280       -5.92560       -3.58760
H         -3.36040       -7.48300        4.13560
H         -5.43970       -7.95270        5.30110
H         -6.49170       -8.00120        7.47580
H         -7.54880       -8.49250        6.11120
H         -8.26240       -7.94580        7.64240
H         -6.29790       -3.76800        5.44750
H         -4.17040       -3.29660        4.32730
H          0.12240       -4.58020        2.68010
H          2.21040       -5.52820        3.42110
H          3.55350       -8.80420        7.15310
H          1.95310       -9.25580        6.52750
H          2.13000       -7.85680        7.63660
H          0.13160       -7.78960        6.39710
H         -1.95020       -6.83970        5.67740
H          1.11640       -2.12100        6.35880
H          3.47330       -2.45800        5.72680
H          5.76990       -3.57160        1.29910
H          4.60290       -2.28700        0.91900
H          4.02910       -3.93910        1.31230
H          2.39780       -2.24370        1.59730
H          0.05990       -1.96650        2.22310
H         -3.21030       -1.36990        5.80700
H         -4.36900       -2.54820        7.57770
H         -5.85790       -5.04470        9.79660
H         -5.30800       -3.37840        9.52870
H         -5.77250       -4.41290        8.13700
H         -1.11840       -5.30700        7.86190
H          0.03420       -4.15010        6.04330
H         -4.44240        3.85340       -0.62390
H         -4.21690        3.63050       -3.02720
H         -3.04810        4.07770       -5.05110
H         -3.19820        3.05010       -6.49290
H         -4.48730        3.02720       -5.27010
H         -1.46690        0.40740       -2.46090
H         -1.66800        0.64580       -0.03850
H         -5.67720        1.97290        0.15810
H         -7.81510        2.46890        1.24880
H         -7.72250        3.69970        6.01870
H         -9.11360        4.73810        5.64480
H         -7.49560        5.20680        5.07060
H         -5.73900        3.64720        4.79310
H         -3.61730        3.21010        3.69210
H         -0.85240        3.55410       -1.52080
H         -0.85430        4.44790       -3.81730
H         -0.43020        8.91420       -3.98960
H         -0.90100        9.10490       -5.70250
H         -2.13920        9.22410       -4.43710
H         -2.14190        8.23860       -2.32160
H         -2.10740        7.36390       -0.05040
H         -0.79130        5.04330        3.27040
H         -2.25130        5.79310        5.04790
H         -4.74760        7.37650        7.20650
H         -3.73660        5.96730        6.82150
H         -3.25460        7.60400        6.26820
H         -5.37990        6.46150        2.21010
H         -3.90630        5.69240        0.41180
H          3.94460        4.35950        2.82110
H          4.09390        3.11450        4.91930
H          4.02110        2.00090        6.94770
H          2.75060        1.21680        5.95100
H          3.49150        0.34790        7.31510
H          5.59130       -0.28170        2.80270
H          5.40290        0.96460        0.67390
H          7.07120        3.53740        0.88140
H          8.87560        3.37160       -0.78630
H          8.97160        3.51170       -5.87000
H          7.51150        4.23060       -5.16190
H          7.59120        2.46440       -5.47690
H          5.96520        2.81900       -3.87190
H          4.17960        2.94390       -2.20820
H          5.14750        5.50790       -1.16220
H          1.50050        8.09150       -5.54740
H          5.13220        8.91860       -7.67800
H          6.47110        8.04790       -5.81610
