177

C         -0.15380       -4.54430       -5.28540
C         -0.93000       -5.45560       -4.64370
C         -1.63330       -5.18820       -3.36060
O         -1.57730       -4.19440       -2.66460
C         -2.54280       -6.33210       -3.16380
C         -3.43640       -6.51420       -2.10990
C         -4.17600       -7.66850       -2.19270
C         -4.04750       -8.57540       -3.25390
C         -3.17690       -8.40570       -4.30370
C         -2.40950       -7.23900       -4.23520
C         -1.39140       -6.73320       -5.14920
C         -0.87620       -7.39440       -6.23230
C          0.20240       -6.92390       -7.01170
N          1.09780       -6.62530       -7.66510
C         -1.32170       -8.65170       -6.68910
N         -1.64110       -9.67010       -7.11240
C         -5.11090       -9.49220       -2.70320
C         -6.51210       -9.44820       -3.36170
C         -6.66580       -8.06820       -3.95150
C         -6.78560       -7.20980       -2.94760
C         -6.71590       -7.99410       -1.66030
C         -7.38550       -9.30400       -2.10490
C         -5.25270       -8.48270       -1.52050
C          0.43290       -3.42340       -4.60940
C          0.45670       -2.14710       -5.15440
F         -0.10450       -1.94600       -6.35830
C          0.91700       -1.03200       -4.45690
F          0.66800        0.17500       -5.00010
C          1.48900       -1.13670       -3.19040
C          1.54600       -2.45930       -2.64710
N          2.08650       -2.61200       -1.43390
C          2.11800       -3.79040       -0.86130
C          2.79680       -3.86410        0.46920
C          4.28660       -4.16640        0.28950
C          1.58860       -4.91990       -1.54760
N          1.07810       -4.79200       -2.74640
C          1.01700       -3.58050       -3.31960
C          1.59110       -6.28670       -0.93190
C          0.87210       -7.31920       -1.78930
C          1.84120       -0.05170       -2.33990
C          2.05550        1.30390       -2.62400
N          2.41270        1.82950       -3.83910
C          2.05080        3.15990       -4.11940
C          2.98220        4.05910       -4.62780
C          2.62750        5.36980       -4.87640
C          1.33250        5.80230       -4.61650
S          0.76560        7.44670       -4.88860
C          2.27100        8.36310       -5.32490
C          0.39410        4.89820       -4.11960
C          0.74730        3.59130       -3.87360
C          3.20730        1.12220       -4.75170
C          3.08410        1.37230       -6.12050
C          3.85880        0.68580       -7.02560
C          4.77680       -0.27180       -6.59390
S          5.70750       -1.08620       -7.84970
C          6.69100       -2.31490       -6.94540
C          4.90830       -0.51820       -5.23390
C          4.13370        0.17520       -4.32410
C          1.96210        2.07860       -1.43900
S          2.05420        3.76890       -1.09070
C          1.76410        3.45430        0.61430
C          1.68830        2.09220        0.89920
N          1.60570        1.50290        2.14380
C          1.01690        0.22940        2.22540
C          1.61880       -0.78380        2.97110
C          1.11240       -2.06340        2.93060
C          0.00120       -2.36080        2.14200
S         -0.47960       -4.05630        2.05380
C         -1.58410       -4.13170        0.61650
C         -0.65170       -1.33920        1.46770
C         -0.14770       -0.05360        1.51560
C          2.08350        2.12580        3.29860
C          1.42770        1.94060        4.51660
C          1.81140        2.65510        5.62810
C          2.84550        3.58460        5.55070
S          3.15260        4.56430        6.98520
C          4.08480        5.97480        6.32610
C          3.57000        3.69410        4.37040
C          3.20070        2.95850        3.26260
C          1.78300        1.32860       -0.28870
S          1.82260       -0.37650       -0.61280
C          1.63600        4.56100        1.52020
C          2.44420        5.68650        1.42290
F          3.39110        5.75040        0.47030
C          2.35840        6.74680        2.32070
F          3.20020        7.78030        2.16490
C          1.43130        6.77840        3.35500
C          0.59250        5.63280        3.49070
N         -0.25400        5.55080        4.52740
C         -1.12050        4.57090        4.59100
C         -2.00980        4.54470        5.79650
C         -1.45970        3.60640        6.87210
C         -1.17560        3.60360        3.54900
N         -0.26370        3.59420        2.60890
C          0.65730        4.56790        2.55900
C         -2.26440        2.58310        3.43760
C         -3.45000        3.18400        2.67580
C          1.38530        7.88670        4.25900
C          0.33590        8.34090        4.99010
C          0.59440        9.19830        6.17960
O          1.63420        9.73540        6.47940
C         -0.67480        9.18700        6.94140
C         -0.94110        9.74340        8.17630
C         -2.22290        9.57170        8.67750
F         -2.52920       10.09520        9.87560
C         -3.20530        8.87680        7.98680
C         -2.92740        8.32960        6.74370
C         -1.65380        8.48420        6.21450
C         -1.08400        8.06150        4.93670
C         -1.80580        7.68830        3.83290
C         -1.25380        7.53470        2.54560
N         -0.86510        7.41480        1.47220
C         -3.17820        7.37570        3.85380
N         -4.27770        7.04410        3.82510
H          0.03700       -4.63140       -6.34730
H         -3.51240       -5.78660       -1.31660
H         -3.09610       -9.10510       -5.11910
H         -4.79270      -10.50690       -2.47270
H         -6.72450      -10.28090       -4.02660
H         -6.61630       -7.85780       -5.00380
H         -6.85550       -6.13870       -2.99370
H         -7.11440       -7.50280       -0.77640
H         -7.26000      -10.11880       -1.39330
H         -8.44160       -9.17880       -2.33840
H         -5.02800       -8.83870       -0.51680
H          2.68890       -2.89250        0.95290
H          2.33450       -4.62690        1.09500
H          4.43670       -5.11980       -0.21210
H          4.75440       -3.38610       -0.30560
H          4.77650       -4.20530        1.25880
H          1.11440       -6.22350        0.05060
H          2.62660       -6.59740       -0.76870
H         -0.17330       -7.04670       -1.90920
H          0.92670       -8.29900       -1.32120
H          1.32320       -7.37190       -2.77630
H          3.99220        3.72970       -4.82200
H          3.37240        6.04400       -5.26620
H          1.96360        9.40010       -5.41780
H          3.00380        8.26520       -4.52950
H          2.66420        8.01090       -6.27420
H         -0.61260        5.23750       -3.93170
H          0.01730        2.88980       -3.49930
H          2.35910        2.09260       -6.46570
H          3.75550        0.87300       -8.08310
H          7.38500       -1.81810       -6.27340
H          7.24230       -2.86100       -7.70450
H          6.03410       -2.99290       -6.40830
H          5.61620       -1.24230       -4.86380
H          4.26130       -0.02010       -3.26990
H          2.50340       -0.56690        3.55100
H          1.59020       -2.85710        3.48430
H         -1.10850       -3.68930       -0.25390
H         -1.75380       -5.19000        0.44100
H         -2.52770       -3.64260        0.84070
H         -1.53910       -1.53440        0.88760
H         -0.64100        0.73910        0.97320
H          0.59240        1.25890        4.57290
H          1.29760        2.52170        6.56670
H          3.58240        6.35060        5.44010
H          5.10880        5.68550        6.10810
H          4.07430        6.72990        7.10590
H          4.42640        4.34590        4.30400
H          3.77820        3.04190        2.35440
H         -2.05360        5.55490        6.20560
H         -3.01710        4.23920        5.51240
H         -0.49040        3.96290        7.21100
H         -2.13650        3.58070        7.72250
H         -1.34530        2.59540        6.48750
H         -2.58630        2.25020        4.42400
H         -1.87690        1.72650        2.88470
H         -4.24710        2.45030        2.58640
H         -3.13750        3.48410        1.67870
H         -3.84110        4.06150        3.18690
H          2.32580        8.40260        4.43200
H         -0.18990       10.28840        8.72510
H         -4.18350        8.77170        8.42910
H         -3.69580        7.78980        6.21420
