
  xtb     02052215183D
 energy: -302.600362828045 gnorm: 0.000529672587 xtb: 6.4.1 (unknown)
178199  0     0  0            999 V2000
   -3.6927    0.7402    6.8393 C   0  0  0  0  0  0  0  0  0  0  0  0
   -3.2199   -0.0886    7.8089 C   0  0  0  0  0  0  0  0  0  0  0  0
   -2.1576   -1.1120    7.6670 C   0  0  0  0  0  0  0  0  0  0  0  0
   -1.6162   -1.5099    6.6528 O   0  0  0  0  0  0  0  0  0  0  0  0
   -1.8092   -1.5213    9.0415 C   0  0  0  0  0  0  0  0  0  0  0  0
   -0.8519   -2.4637    9.4136 C   0  0  0  0  0  0  0  0  0  0  0  0
   -0.7130   -2.6190   10.7714 C   0  0  0  0  0  0  0  0  0  0  0  0
   -1.4678   -1.8842   11.6956 C   0  0  0  0  0  0  0  0  0  0  0  0
   -2.4250   -0.9635   11.3441 C   0  0  0  0  0  0  0  0  0  0  0  0
   -2.5875   -0.7975    9.9657 C   0  0  0  0  0  0  0  0  0  0  0  0
   -3.5103    0.0555    9.2267 C   0  0  0  0  0  0  0  0  0  0  0  0
   -4.5281    0.7920    9.7708 C   0  0  0  0  0  0  0  0  0  0  0  0
   -5.4972    1.5120    9.0386 C   0  0  0  0  0  0  0  0  0  0  0  0
   -6.3463    2.0937    8.5288 N   0  0  0  0  0  0  0  0  0  0  0  0
   -4.7881    0.8949   11.1537 C   0  0  0  0  0  0  0  0  0  0  0  0
   -5.0585    1.0243   12.2621 N   0  0  0  0  0  0  0  0  0  0  0  0
   -0.7992   -2.5342   12.8796 C   0  0  0  0  0  0  0  0  0  0  0  0
    0.2914   -1.7281   13.6265 C   0  0  0  0  0  0  0  0  0  0  0  0
    0.8933   -0.7750   12.6236 C   0  0  0  0  0  0  0  0  0  0  0  0
    1.6048   -1.4901   11.7626 C   0  0  0  0  0  0  0  0  0  0  0  0
    1.4889   -2.9401   12.1610 C   0  0  0  0  0  0  0  0  0  0  0  0
    1.3994   -2.7921   13.6884 C   0  0  0  0  0  0  0  0  0  0  0  0
    0.0320   -3.3652   11.8517 C   0  0  0  0  0  0  0  0  0  0  0  0
   -3.4695    0.6846    5.4302 C   0  0  0  0  0  0  0  0  0  0  0  0
   -3.3828   -0.4931    4.6604 C   0  0  0  0  0  0  0  0  0  0  0  0
   -3.7001   -1.8220    5.0493 C   0  0  0  0  0  0  0  0  0  0  0  0
   -3.4832   -2.7414    4.0808 C   0  0  0  0  0  0  0  0  0  0  0  0
   -3.7678   -4.2017    4.1251 C   0  0  0  0  0  0  0  0  0  0  0  0
   -5.0374   -4.5335    3.3368 C   0  0  0  0  0  0  0  0  0  0  0  0
   -2.8646   -2.0200    2.6169 S   0  0  0  0  0  0  0  0  0  0  0  0
   -2.9699   -0.4266    3.3118 C   0  0  0  0  0  0  0  0  0  0  0  0
   -2.6669    0.7717    2.6671 C   0  0  0  0  0  0  0  0  0  0  0  0
   -2.9759    1.9541    3.3699 C   0  0  0  0  0  0  0  0  0  0  0  0
   -3.3536    1.8885    4.7221 C   0  0  0  0  0  0  0  0  0  0  0  0
   -3.5769    3.4739    5.3889 S   0  0  0  0  0  0  0  0  0  0  0  0
   -3.2663    4.2129    3.8368 C   0  0  0  0  0  0  0  0  0  0  0  0
   -3.3710    5.6903    3.6895 C   0  0  0  0  0  0  0  0  0  0  0  0
   -4.8239    6.1576    3.7953 C   0  0  0  0  0  0  0  0  0  0  0  0
   -2.9625    3.2961    2.8917 C   0  0  0  0  0  0  0  0  0  0  0  0
   -2.0169    0.8292    1.3791 C   0  0  0  0  0  0  0  0  0  0  0  0
   -0.9347    1.6267    1.0317 C   0  0  0  0  0  0  0  0  0  0  0  0
   -0.2536    2.4931    1.8720 N   0  0  0  0  0  0  0  0  0  0  0  0
   -0.1139    2.2165    3.2366 C   0  0  0  0  0  0  0  0  0  0  0  0
   -0.1529    3.2486    4.1738 C   0  0  0  0  0  0  0  0  0  0  0  0
   -0.1165    2.9655    5.5226 C   0  0  0  0  0  0  0  0  0  0  0  0
   -0.0382    1.6487    5.9620 C   0  0  0  0  0  0  0  0  0  0  0  0
   -0.0805    1.3486    7.7090 S   0  0  0  0  0  0  0  0  0  0  0  0
    1.0788   -0.0403    7.8731 C   0  0  0  0  0  0  0  0  0  0  0  0
    0.0423    0.6185    5.0353 C   0  0  0  0  0  0  0  0  0  0  0  0
    0.0185    0.9035    3.6862 C   0  0  0  0  0  0  0  0  0  0  0  0
    0.3083    3.6502    1.3112 C   0  0  0  0  0  0  0  0  0  0  0  0
    1.5683    4.0909    1.7040 C   0  0  0  0  0  0  0  0  0  0  0  0
    2.1482    5.1927    1.1065 C   0  0  0  0  0  0  0  0  0  0  0  0
    1.4797    5.8700    0.0950 C   0  0  0  0  0  0  0  0  0  0  0  0
    2.1353    7.2598   -0.7725 S   0  0  0  0  0  0  0  0  0  0  0  0
    3.8710    7.3224   -0.2431 C   0  0  0  0  0  0  0  0  0  0  0  0
    0.2050    5.4534   -0.2797 C   0  0  0  0  0  0  0  0  0  0  0  0
   -0.3759    4.3614    0.3236 C   0  0  0  0  0  0  0  0  0  0  0  0
   -0.5490    1.3961   -0.3122 C   0  0  0  0  0  0  0  0  0  0  0  0
    0.6307    2.0997   -1.3621 S   0  0  0  0  0  0  0  0  0  0  0  0
    0.1396    1.0290   -2.6613 C   0  0  0  0  0  0  0  0  0  0  0  0
   -0.9464    0.2229   -2.3137 C   0  0  0  0  0  0  0  0  0  0  0  0
   -1.6868   -0.5768   -3.1578 N   0  0  0  0  0  0  0  0  0  0  0  0
   -2.2506   -1.7377   -2.6062 C   0  0  0  0  0  0  0  0  0  0  0  0
   -1.5018   -2.5101   -1.7224 C   0  0  0  0  0  0  0  0  0  0  0  0
   -2.0594   -3.6054   -1.0959 C   0  0  0  0  0  0  0  0  0  0  0  0
   -3.3804   -3.9486   -1.3509 C   0  0  0  0  0  0  0  0  0  0  0  0
   -4.2133   -5.2913   -0.5707 S   0  0  0  0  0  0  0  0  0  0  0  0
   -2.9862   -5.9331    0.6035 C   0  0  0  0  0  0  0  0  0  0  0  0
   -4.1184   -3.2052   -2.2720 C   0  0  0  0  0  0  0  0  0  0  0  0
   -3.5626   -2.1106   -2.8952 C   0  0  0  0  0  0  0  0  0  0  0  0
   -1.8384   -0.2778   -4.5147 C   0  0  0  0  0  0  0  0  0  0  0  0
   -1.8769   -1.3021   -5.4574 C   0  0  0  0  0  0  0  0  0  0  0  0
   -1.8429   -1.0166   -6.8078 C   0  0  0  0  0  0  0  0  0  0  0  0
   -1.7718    0.3011   -7.2422 C   0  0  0  0  0  0  0  0  0  0  0  0
   -1.5656    0.7452   -8.9364 S   0  0  0  0  0  0  0  0  0  0  0  0
   -0.7398   -0.7232   -9.6238 C   0  0  0  0  0  0  0  0  0  0  0  0
   -1.8593    1.3308   -6.3063 C   0  0  0  0  0  0  0  0  0  0  0  0
   -1.9036    1.0453   -4.9597 C   0  0  0  0  0  0  0  0  0  0  0  0
   -1.3028    0.4301   -0.9591 C   0  0  0  0  0  0  0  0  0  0  0  0
   -2.5131   -0.2381    0.0801 S   0  0  0  0  0  0  0  0  0  0  0  0
    0.7763    1.1674   -3.9272 C   0  0  0  0  0  0  0  0  0  0  0  0
    1.1302    2.4414   -4.4148 C   0  0  0  0  0  0  0  0  0  0  0  0
    1.4544    2.6637   -5.8049 C   0  0  0  0  0  0  0  0  0  0  0  0
    1.6440    3.9593   -6.0593 N   0  0  0  0  0  0  0  0  0  0  0  0
    1.4370    4.8016   -4.7084 S   0  0  0  0  0  4  0  0  0  0  0  0
    1.0895    3.5825   -3.7241 N   0  0  0  0  0  0  0  0  0  0  0  0
    1.5470    1.6184   -6.7510 C   0  0  0  0  0  0  0  0  0  0  0  0
    1.3708    0.3241   -6.2146 C   0  0  0  0  0  0  0  0  0  0  0  0
    1.4367   -0.8294   -6.8803 N   0  0  0  0  0  0  0  0  0  0  0  0
    1.1989   -2.0444   -5.8614 S   0  0  0  0  0  0  0  0  0  0  0  0
    0.9032   -1.1918   -4.5365 N   0  0  0  0  0  0  0  0  0  0  0  0
    1.0061    0.1077   -4.8276 C   0  0  0  0  0  0  0  0  0  0  0  0
    1.6692    1.9307   -8.1285 C   0  0  0  0  0  0  0  0  0  0  0  0
    2.2108    1.1504   -9.1080 C   0  0  0  0  0  0  0  0  0  0  0  0
    3.1849    0.0550   -8.8931 C   0  0  0  0  0  0  0  0  0  0  0  0
    3.7254   -0.2676   -7.8560 O   0  0  0  0  0  0  0  0  0  0  0  0
    3.4987   -0.4676  -10.2391 C   0  0  0  0  0  0  0  0  0  0  0  0
    4.3417   -1.5337  -10.5446 C   0  0  0  0  0  0  0  0  0  0  0  0
    4.4642   -1.7844  -11.8900 C   0  0  0  0  0  0  0  0  0  0  0  0
    3.8030   -1.0241  -12.8635 C   0  0  0  0  0  0  0  0  0  0  0  0
    2.9743    0.0340  -12.5770 C   0  0  0  0  0  0  0  0  0  0  0  0
    2.8331    0.3044  -11.2116 C   0  0  0  0  0  0  0  0  0  0  0  0
    2.0497    1.3370  -10.5349 C   0  0  0  0  0  0  0  0  0  0  0  0
    1.2517    2.2672  -11.1513 C   0  0  0  0  0  0  0  0  0  0  0  0
    0.4715    3.2473  -10.5005 C   0  0  0  0  0  0  0  0  0  0  0  0
   -0.1934    4.0798  -10.0717 N   0  0  0  0  0  0  0  0  0  0  0  0
    1.0923    2.3804  -12.5475 C   0  0  0  0  0  0  0  0  0  0  0  0
    0.9152    2.5264  -13.6731 N   0  0  0  0  0  0  0  0  0  0  0  0
    4.3935   -1.8192  -14.0016 C   0  0  0  0  0  0  0  0  0  0  0  0
    5.5591   -1.1613  -14.7699 C   0  0  0  0  0  0  0  0  0  0  0  0
    6.2295   -2.3202  -15.4716 C   0  0  0  0  0  0  0  0  0  0  0  0
    6.8546   -3.0426  -14.5507 C   0  0  0  0  0  0  0  0  0  0  0  0
    6.6176   -2.3836  -13.2110 C   0  0  0  0  0  0  0  0  0  0  0  0
    6.5720   -0.9127  -13.6447 C   0  0  0  0  0  0  0  0  0  0  0  0
    5.1296   -2.6685  -12.9163 C   0  0  0  0  0  0  0  0  0  0  0  0
   -4.2311    1.6253    7.1615 H   0  0  0  0  0  0  0  0  0  0  0  0
   -0.2928   -3.0131    8.6715 H   0  0  0  0  0  0  0  0  0  0  0  0
   -3.0009   -0.4111   12.0674 H   0  0  0  0  0  0  0  0  0  0  0  0
   -1.4539   -3.0726   13.5620 H   0  0  0  0  0  0  0  0  0  0  0  0
   -0.0360   -1.2899   14.5653 H   0  0  0  0  0  0  0  0  0  0  0  0
    0.7019    0.2820   12.6112 H   0  0  0  0  0  0  0  0  0  0  0  0
    2.1376   -1.1505   10.8932 H   0  0  0  0  0  0  0  0  0  0  0  0
    2.2494   -3.6093   11.7668 H   0  0  0  0  0  0  0  0  0  0  0  0
    2.3214   -2.4158   14.1292 H   0  0  0  0  0  0  0  0  0  0  0  0
    1.0951   -3.7061   14.1963 H   0  0  0  0  0  0  0  0  0  0  0  0
   -0.0942   -4.4463   11.8540 H   0  0  0  0  0  0  0  0  0  0  0  0
   -4.1072   -2.0715    6.0124 H   0  0  0  0  0  0  0  0  0  0  0  0
   -3.8906   -4.5043    5.1669 H   0  0  0  0  0  0  0  0  0  0  0  0
   -2.9236   -4.7556    3.7073 H   0  0  0  0  0  0  0  0  0  0  0  0
   -5.8917   -4.0160    3.7666 H   0  0  0  0  0  0  0  0  0  0  0  0
   -4.9365   -4.2238    2.2994 H   0  0  0  0  0  0  0  0  0  0  0  0
   -5.2304   -5.6028    3.3647 H   0  0  0  0  0  0  0  0  0  0  0  0
   -2.7831    6.1749    4.4733 H   0  0  0  0  0  0  0  0  0  0  0  0
   -2.9562    5.9784    2.7209 H   0  0  0  0  0  0  0  0  0  0  0  0
   -5.4272    5.6966    3.0167 H   0  0  0  0  0  0  0  0  0  0  0  0
   -4.8799    7.2374    3.6862 H   0  0  0  0  0  0  0  0  0  0  0  0
   -5.2381    5.8824    4.7624 H   0  0  0  0  0  0  0  0  0  0  0  0
   -2.7544    3.5562    1.8704 H   0  0  0  0  0  0  0  0  0  0  0  0
   -0.2338    4.2715    3.8376 H   0  0  0  0  0  0  0  0  0  0  0  0
   -0.1689    3.7622    6.2483 H   0  0  0  0  0  0  0  0  0  0  0  0
    1.2084   -0.1918    8.9400 H   0  0  0  0  0  0  0  0  0  0  0  0
    0.6592   -0.9324    7.4197 H   0  0  0  0  0  0  0  0  0  0  0  0
    2.0227    0.2275    7.4079 H   0  0  0  0  0  0  0  0  0  0  0  0
    0.0931   -0.4089    5.3556 H   0  0  0  0  0  0  0  0  0  0  0  0
    0.0876    0.0974    2.9712 H   0  0  0  0  0  0  0  0  0  0  0  0
    2.1019    3.5556    2.4754 H   0  0  0  0  0  0  0  0  0  0  0  0
    3.1284    5.5027    1.4307 H   0  0  0  0  0  0  0  0  0  0  0  0
    3.9355    7.5946    0.8067 H   0  0  0  0  0  0  0  0  0  0  0  0
    4.3462    6.3649   -0.4344 H   0  0  0  0  0  0  0  0  0  0  0  0
    4.3346    8.0940   -0.8502 H   0  0  0  0  0  0  0  0  0  0  0  0
   -0.3180    5.9922   -1.0541 H   0  0  0  0  0  0  0  0  0  0  0  0
   -1.3616    4.0447    0.0165 H   0  0  0  0  0  0  0  0  0  0  0  0
   -0.4730   -2.2446   -1.5303 H   0  0  0  0  0  0  0  0  0  0  0  0
   -1.4530   -4.1773   -0.4136 H   0  0  0  0  0  0  0  0  0  0  0  0
   -2.1471   -6.3665    0.0668 H   0  0  0  0  0  0  0  0  0  0  0  0
   -3.4985   -6.7047    1.1695 H   0  0  0  0  0  0  0  0  0  0  0  0
   -2.6642   -5.1356    1.2663 H   0  0  0  0  0  0  0  0  0  0  0  0
   -5.1395   -3.4886   -2.4760 H   0  0  0  0  0  0  0  0  0  0  0  0
   -4.1436   -1.5255   -3.5921 H   0  0  0  0  0  0  0  0  0  0  0  0
   -1.8801   -2.3298   -5.1253 H   0  0  0  0  0  0  0  0  0  0  0  0
   -1.8423   -1.8304   -7.5148 H   0  0  0  0  0  0  0  0  0  0  0  0
   -0.3683   -0.4252  -10.5995 H   0  0  0  0  0  0  0  0  0  0  0  0
   -1.4479   -1.5382   -9.7423 H   0  0  0  0  0  0  0  0  0  0  0  0
    0.0873   -1.0015   -8.9759 H   0  0  0  0  0  0  0  0  0  0  0  0
   -1.8696    2.3532   -6.6513 H   0  0  0  0  0  0  0  0  0  0  0  0
   -1.9537    1.8497   -4.2411 H   0  0  0  0  0  0  0  0  0  0  0  0
    1.2734    2.9034   -8.3930 H   0  0  0  0  0  0  0  0  0  0  0  0
    4.8329   -2.0913   -9.7625 H   0  0  0  0  0  0  0  0  0  0  0  0
    2.4775    0.6112  -13.3386 H   0  0  0  0  0  0  0  0  0  0  0  0
    3.6792   -2.3154  -14.6560 H   0  0  0  0  0  0  0  0  0  0  0  0
    5.2761   -0.3127  -15.3865 H   0  0  0  0  0  0  0  0  0  0  0  0
    6.1365   -2.5201  -16.5231 H   0  0  0  0  0  0  0  0  0  0  0  0
    7.3878   -3.9664  -14.6792 H   0  0  0  0  0  0  0  0  0  0  0  0
    7.3002   -2.6484  -12.4078 H   0  0  0  0  0  0  0  0  0  0  0  0
    7.5317   -0.5656  -14.0243 H   0  0  0  0  0  0  0  0  0  0  0  0
    6.2187   -0.2331  -12.8717 H   0  0  0  0  0  0  0  0  0  0  0  0
    4.9053   -3.7315  -12.8469 H   0  0  0  0  0  0  0  0  0  0  0  0
  1  2  2  0  0  0  0
  2  3  1  0  0  0  0
  3  4  2  0  0  0  0
  3  5  1  0  0  0  0
  5  6  2  0  0  0  0
  6  7  1  0  0  0  0
  7  8  2  0  0  0  0
  8  9  1  0  0  0  0
  9 10  2  0  0  0  0
 10 11  1  0  0  0  0
 11 12  2  0  0  0  0
 12 13  1  0  0  0  0
 13 14  3  0  0  0  0
 12 15  1  0  0  0  0
 15 16  3  0  0  0  0
  8 17  1  0  0  0  0
 17 18  1  0  0  0  0
 18 19  1  0  0  0  0
 19 20  2  0  0  0  0
 20 21  1  0  0  0  0
 21 22  1  0  0  0  0
 21 23  1  0  0  0  0
  1 24  1  0  0  0  0
 24 25  2  0  0  0  0
 25 26  1  0  0  0  0
 26 27  2  0  0  0  0
 27 28  1  0  0  0  0
 28 29  1  0  0  0  0
 27 30  1  0  0  0  0
 30 31  1  0  0  0  0
 31 32  2  0  0  0  0
 32 33  1  0  0  0  0
 33 34  2  0  0  0  0
 34 35  1  0  0  0  0
 35 36  1  0  0  0  0
 36 37  1  0  0  0  0
 37 38  1  0  0  0  0
 36 39  2  0  0  0  0
 32 40  1  0  0  0  0
 40 41  2  0  0  0  0
 41 42  1  0  0  0  0
 42 43  1  0  0  0  0
 43 44  2  0  0  0  0
 44 45  1  0  0  0  0
 45 46  2  0  0  0  0
 46 47  1  0  0  0  0
 47 48  1  0  0  0  0
 46 49  1  0  0  0  0
 49 50  2  0  0  0  0
 42 51  1  0  0  0  0
 51 52  2  0  0  0  0
 52 53  1  0  0  0  0
 53 54  2  0  0  0  0
 54 55  1  0  0  0  0
 55 56  1  0  0  0  0
 54 57  1  0  0  0  0
 57 58  2  0  0  0  0
 41 59  1  0  0  0  0
 59 60  1  0  0  0  0
 60 61  1  0  0  0  0
 61 62  2  0  0  0  0
 62 63  1  0  0  0  0
 63 64  1  0  0  0  0
 64 65  2  0  0  0  0
 65 66  1  0  0  0  0
 66 67  2  0  0  0  0
 67 68  1  0  0  0  0
 68 69  1  0  0  0  0
 67 70  1  0  0  0  0
 70 71  2  0  0  0  0
 63 72  1  0  0  0  0
 72 73  2  0  0  0  0
 73 74  1  0  0  0  0
 74 75  2  0  0  0  0
 75 76  1  0  0  0  0
 76 77  1  0  0  0  0
 75 78  1  0  0  0  0
 78 79  2  0  0  0  0
 62 80  1  0  0  0  0
 80 81  1  0  0  0  0
 61 82  1  0  0  0  0
 82 83  2  0  0  0  0
 83 84  1  0  0  0  0
 84 85  1  0  0  0  0
 85 86  2  0  0  0  0
 86 87  2  0  0  0  0
 84 88  2  0  0  0  0
 88 89  1  0  0  0  0
 89 90  2  0  0  0  0
 90 91  1  0  0  0  0
 91 92  1  0  0  0  0
 92 93  2  0  0  0  0
 88 94  1  0  0  0  0
 94 95  2  0  0  0  0
 95 96  1  0  0  0  0
 96 97  2  0  0  0  0
 96 98  1  0  0  0  0
 98 99  2  0  0  0  0
 99100  1  0  0  0  0
100101  2  0  0  0  0
101102  1  0  0  0  0
102103  2  0  0  0  0
103104  1  0  0  0  0
104105  2  0  0  0  0
105106  1  0  0  0  0
106107  3  0  0  0  0
105108  1  0  0  0  0
108109  3  0  0  0  0
101110  1  0  0  0  0
110111  1  0  0  0  0
111112  1  0  0  0  0
112113  2  0  0  0  0
113114  1  0  0  0  0
114115  1  0  0  0  0
114116  1  0  0  0  0
 11  2  1  0  0  0  0
 23 17  1  0  0  0  0
 34 24  1  0  0  0  0
 81 40  1  0  0  0  0
 93 82  1  0  0  0  0
104 95  1  0  0  0  0
116110  1  0  0  0  0
 10  5  1  0  0  0  0
 22 18  1  0  0  0  0
 31 25  1  0  0  0  0
 39 33  1  0  0  0  0
 50 43  1  0  0  0  0
 58 51  1  0  0  0  0
 80 59  2  0  0  0  0
 87 83  1  0  0  0  0
 93 89  1  0  0  0  0
103 98  1  0  0  0  0
115111  1  0  0  0  0
 23  7  1  0  0  0  0
 71 64  1  0  0  0  0
 79 72  1  0  0  0  0
116100  1  0  0  0  0
  1117  1  0  0  0  0
  6118  1  0  0  0  0
  9119  1  0  0  0  0
 17120  1  0  0  0  0
 18121  1  0  0  0  0
 19122  1  0  0  0  0
 20123  1  0  0  0  0
 21124  1  0  0  0  0
 22125  1  0  0  0  0
 22126  1  0  0  0  0
 23127  1  0  0  0  0
 26128  1  0  0  0  0
 28129  1  0  0  0  0
 28130  1  0  0  0  0
 29131  1  0  0  0  0
 29132  1  0  0  0  0
 29133  1  0  0  0  0
 37134  1  0  0  0  0
 37135  1  0  0  0  0
 38136  1  0  0  0  0
 38137  1  0  0  0  0
 38138  1  0  0  0  0
 39139  1  0  0  0  0
 44140  1  0  0  0  0
 45141  1  0  0  0  0
 48142  1  0  0  0  0
 48143  1  0  0  0  0
 48144  1  0  0  0  0
 49145  1  0  0  0  0
 50146  1  0  0  0  0
 52147  1  0  0  0  0
 53148  1  0  0  0  0
 56149  1  0  0  0  0
 56150  1  0  0  0  0
 56151  1  0  0  0  0
 57152  1  0  0  0  0
 58153  1  0  0  0  0
 65154  1  0  0  0  0
 66155  1  0  0  0  0
 69156  1  0  0  0  0
 69157  1  0  0  0  0
 69158  1  0  0  0  0
 70159  1  0  0  0  0
 71160  1  0  0  0  0
 73161  1  0  0  0  0
 74162  1  0  0  0  0
 77163  1  0  0  0  0
 77164  1  0  0  0  0
 77165  1  0  0  0  0
 78166  1  0  0  0  0
 79167  1  0  0  0  0
 94168  1  0  0  0  0
 99169  1  0  0  0  0
102170  1  0  0  0  0
110171  1  0  0  0  0
111172  1  0  0  0  0
112173  1  0  0  0  0
113174  1  0  0  0  0
114175  1  0  0  0  0
115176  1  0  0  0  0
115177  1  0  0  0  0
116178  1  0  0  0  0
M  END
