
  xtb     02142211063D
 energy: -379.112936177949 gnorm: 0.000314775704 xtb: 6.4.1 (unknown)
232256  0     0  0            999 V2000
    4.9999    6.6996    3.4460 C   0  0  0  0  0  0  0  0  0  0  0  0
    4.5279    7.7108    4.2524 C   0  0  0  0  0  0  0  0  0  0  0  0
    3.1593    7.8784    4.7612 C   0  0  0  0  0  0  0  0  0  0  0  0
    2.2904    7.0350    4.9004 O   0  0  0  0  0  0  0  0  0  0  0  0
    3.0165    9.3169    5.0704 C   0  0  0  0  0  0  0  0  0  0  0  0
    1.8623    9.9841    5.4726 C   0  0  0  0  0  0  0  0  0  0  0  0
    2.0376   11.3310    5.6837 C   0  0  0  0  0  0  0  0  0  0  0  0
    3.2690   11.9732    5.5049 C   0  0  0  0  0  0  0  0  0  0  0  0
    4.4165   11.3278    5.1074 C   0  0  0  0  0  0  0  0  0  0  0  0
    4.2582    9.9576    4.8909 C   0  0  0  0  0  0  0  0  0  0  0  0
    5.2342    8.9483    4.4906 C   0  0  0  0  0  0  0  0  0  0  0  0
    6.5968    9.1159    4.4741 C   0  0  0  0  0  0  0  0  0  0  0  0
    7.2528   10.3464    4.6722 C   0  0  0  0  0  0  0  0  0  0  0  0
    7.8465   11.3206    4.8053 N   0  0  0  0  0  0  0  0  0  0  0  0
    7.5159    8.0552    4.3992 C   0  0  0  0  0  0  0  0  0  0  0  0
    8.3248    7.2401    4.4510 N   0  0  0  0  0  0  0  0  0  0  0  0
    2.7155   13.3189    5.9012 C   0  0  0  0  0  0  0  0  0  0  0  0
    3.0423   13.8409    7.3220 C   0  0  0  0  0  0  0  0  0  0  0  0
    3.2807   12.6242    8.1814 C   0  0  0  0  0  0  0  0  0  0  0  0
    2.1151   12.0153    8.3533 C   0  0  0  0  0  0  0  0  0  0  0  0
    1.0673   12.8093    7.6128 C   0  0  0  0  0  0  0  0  0  0  0  0
    1.6298   14.2289    7.7879 C   0  0  0  0  0  0  0  0  0  0  0  0
    1.3428   12.6025    6.1027 C   0  0  0  0  0  0  0  0  0  0  0  0
    4.3925    5.4889    3.0928 C   0  0  0  0  0  0  0  0  0  0  0  0
    4.6778    4.7352    1.9309 C   0  0  0  0  0  0  0  0  0  0  0  0
    5.6076    5.0396    0.9671 N   0  0  0  0  0  0  0  0  0  0  0  0
    6.9170    5.4341    1.2814 C   0  0  0  0  0  0  0  0  0  0  0  0
    7.5855    6.3286    0.4449 C   0  0  0  0  0  0  0  0  0  0  0  0
    8.8796    6.7023    0.7284 C   0  0  0  0  0  0  0  0  0  0  0  0
    9.5340    6.1890    1.8471 C   0  0  0  0  0  0  0  0  0  0  0  0
   11.1834    6.7318    2.1258 S   0  0  0  0  0  0  0  0  0  0  0  0
   11.4526    6.3377    3.8775 C   0  0  0  0  0  0  0  0  0  0  0  0
    8.8770    5.2778    2.6673 C   0  0  0  0  0  0  0  0  0  0  0  0
    7.5782    4.9078    2.3879 C   0  0  0  0  0  0  0  0  0  0  0  0
    5.3221    4.6954   -0.3681 C   0  0  0  0  0  0  0  0  0  0  0  0
    4.1183    5.0904   -0.9422 C   0  0  0  0  0  0  0  0  0  0  0  0
    3.8166    4.7501   -2.2471 C   0  0  0  0  0  0  0  0  0  0  0  0
    4.7084    3.9863   -2.9886 C   0  0  0  0  0  0  0  0  0  0  0  0
    4.4068    3.4426   -4.6389 S   0  0  0  0  0  0  0  0  0  0  0  0
    2.6586    3.8455   -4.9230 C   0  0  0  0  0  0  0  0  0  0  0  0
    5.9270    3.6124   -2.4223 C   0  0  0  0  0  0  0  0  0  0  0  0
    6.2366    3.9692   -1.1302 C   0  0  0  0  0  0  0  0  0  0  0  0
    3.8231    3.6210    1.8307 C   0  0  0  0  0  0  0  0  0  0  0  0
    3.6741    2.3423    0.6758 S   0  0  0  0  0  0  0  0  0  0  0  0
    2.4476    1.5821    1.6610 C   0  0  0  0  0  0  0  0  0  0  0  0
    2.2308    2.2417    2.8670 C   0  0  0  0  0  0  0  0  0  0  0  0
    1.4777    1.7572    3.9166 N   0  0  0  0  0  0  0  0  0  0  0  0
    0.8762    2.6680    4.7972 C   0  0  0  0  0  0  0  0  0  0  0  0
    0.8707    2.4201    6.1691 C   0  0  0  0  0  0  0  0  0  0  0  0
    0.3456    3.3523    7.0364 C   0  0  0  0  0  0  0  0  0  0  0  0
   -0.1766    4.5473    6.5501 C   0  0  0  0  0  0  0  0  0  0  0  0
   -0.7682    5.7298    7.7214 S   0  0  0  0  0  0  0  0  0  0  0  0
   -0.4124    7.2926    6.8623 C   0  0  0  0  0  0  0  0  0  0  0  0
   -0.2260    4.7724    5.1815 C   0  0  0  0  0  0  0  0  0  0  0  0
    0.2964    3.8370    4.3119 C   0  0  0  0  0  0  0  0  0  0  0  0
    1.2512    0.3837    4.0702 C   0  0  0  0  0  0  0  0  0  0  0  0
    0.0026   -0.0772    4.4804 C   0  0  0  0  0  0  0  0  0  0  0  0
   -0.2905   -1.4268    4.4737 C   0  0  0  0  0  0  0  0  0  0  0  0
    0.6654   -2.3443    4.0594 C   0  0  0  0  0  0  0  0  0  0  0  0
    0.3584   -4.0732    3.8961 S   0  0  0  0  0  0  0  0  0  0  0  0
   -1.4531   -4.1803    3.9272 C   0  0  0  0  0  0  0  0  0  0  0  0
    1.9489   -1.8959    3.7526 C   0  0  0  0  0  0  0  0  0  0  0  0
    2.2427   -0.5513    3.7656 C   0  0  0  0  0  0  0  0  0  0  0  0
    2.9972    3.4334    2.9332 C   0  0  0  0  0  0  0  0  0  0  0  0
    3.1237    4.7326    4.0593 S   0  0  0  0  0  0  0  0  0  0  0  0
    1.7444    0.4276    1.1714 C   0  0  0  0  0  0  0  0  0  0  0  0
    0.3422    0.2948    1.3627 C   0  0  0  0  0  0  0  0  0  0  0  0
   -0.3958   -0.8318    0.8930 C   0  0  0  0  0  0  0  0  0  0  0  0
   -1.6809   -0.6251    1.1982 N   0  0  0  0  0  0  0  0  0  0  0  0
   -1.6888    0.5350    1.7927 N   0  0  0  0  0  0  0  0  0  0  0  0
   -2.9066    1.1255    2.2726 C   0  0  0  0  0  0  0  0  0  0  0  0
   -3.6680    0.1379    3.1467 C   0  0  0  0  0  0  0  0  0  0  0  0
   -0.5389    1.1370    1.9164 N   0  0  0  0  0  0  0  0  0  0  0  0
    0.1995   -1.8498    0.1105 C   0  0  0  0  0  0  0  0  0  0  0  0
    1.5592   -1.6989   -0.0587 C   0  0  0  0  0  0  0  0  0  0  0  0
    2.4940   -2.6185   -0.7348 C   0  0  0  0  0  0  0  0  0  0  0  0
    2.2766   -3.6657   -1.2940 O   0  0  0  0  0  0  0  0  0  0  0  0
    3.7472   -2.0501   -0.5873 N   0  0  0  0  0  0  0  0  0  0  0  0
    4.9635   -2.6673   -1.0684 C   0  0  0  0  0  0  0  0  0  0  0  0
    5.5767   -3.5787   -0.0111 C   0  0  0  0  0  0  0  0  0  0  0  0
    3.7248   -0.8644    0.1265 C   0  0  0  0  0  0  0  0  0  0  0  0
    4.7114   -0.2224    0.4021 O   0  0  0  0  0  0  0  0  0  0  0  0
    2.3082   -0.6161    0.4600 C   0  0  0  0  0  0  0  0  0  0  0  0
   -0.5904   -2.8491   -0.5666 C   0  0  0  0  0  0  0  0  0  0  0  0
   -0.6206   -3.0743   -1.9334 C   0  0  0  0  0  0  0  0  0  0  0  0
    0.0666   -2.3168   -2.8617 N   0  0  0  0  0  0  0  0  0  0  0  0
    0.4941   -2.8940   -4.0653 C   0  0  0  0  0  0  0  0  0  0  0  0
    0.9351   -4.2145   -4.0954 C   0  0  0  0  0  0  0  0  0  0  0  0
    1.2977   -4.7919   -5.2941 C   0  0  0  0  0  0  0  0  0  0  0  0
    1.2447   -4.0745   -6.4838 C   0  0  0  0  0  0  0  0  0  0  0  0
    1.6028   -4.7328   -7.7808 C   0  0  0  0  0  0  0  0  0  0  0  0
    0.8375   -2.7481   -6.4369 C   0  0  0  0  0  0  0  0  0  0  0  0
    0.4614   -2.1587   -5.2456 C   0  0  0  0  0  0  0  0  0  0  0  0
    0.2482   -0.9500   -2.6084 C   0  0  0  0  0  0  0  0  0  0  0  0
    1.4824   -0.3346   -2.7953 C   0  0  0  0  0  0  0  0  0  0  0  0
    1.6692    0.9788   -2.4022 C   0  0  0  0  0  0  0  0  0  0  0  0
    0.6332    1.7118   -1.8386 C   0  0  0  0  0  0  0  0  0  0  0  0
    0.8326    3.1077   -1.3340 C   0  0  0  0  0  0  0  0  0  0  0  0
   -0.6189    1.1143   -1.7340 C   0  0  0  0  0  0  0  0  0  0  0  0
   -0.8139   -0.1963   -2.1085 C   0  0  0  0  0  0  0  0  0  0  0  0
   -1.5556   -4.0878   -2.2601 C   0  0  0  0  0  0  0  0  0  0  0  0
   -2.0387   -4.8235   -3.7428 S   0  0  0  0  0  0  0  0  0  0  0  0
   -3.2346   -5.7935   -2.8770 C   0  0  0  0  0  0  0  0  0  0  0  0
   -3.1618   -5.6000   -1.4729 C   0  0  0  0  0  0  0  0  0  0  0  0
   -3.8832   -6.2944   -0.5371 N   0  0  0  0  0  0  0  0  0  0  0  0
   -4.1744   -7.6646   -0.6858 C   0  0  0  0  0  0  0  0  0  0  0  0
   -3.2609   -8.5227   -1.2924 C   0  0  0  0  0  0  0  0  0  0  0  0
   -3.5679   -9.8596   -1.4486 C   0  0  0  0  0  0  0  0  0  0  0  0
   -4.7742  -10.3777   -0.9920 C   0  0  0  0  0  0  0  0  0  0  0  0
   -5.1217  -11.8221   -1.1806 C   0  0  0  0  0  0  0  0  0  0  0  0
   -5.6643   -9.5185   -0.3581 C   0  0  0  0  0  0  0  0  0  0  0  0
   -5.3776   -8.1767   -0.2066 C   0  0  0  0  0  0  0  0  0  0  0  0
   -4.2331   -5.6556    0.6656 C   0  0  0  0  0  0  0  0  0  0  0  0
   -4.1080   -6.3155    1.8840 C   0  0  0  0  0  0  0  0  0  0  0  0
   -4.4585   -5.6762    3.0571 C   0  0  0  0  0  0  0  0  0  0  0  0
   -4.9309   -4.3700    3.0501 C   0  0  0  0  0  0  0  0  0  0  0  0
   -5.3064   -3.6714    4.3211 C   0  0  0  0  0  0  0  0  0  0  0  0
   -5.0613   -3.7218    1.8268 C   0  0  0  0  0  0  0  0  0  0  0  0
   -4.7237   -4.3516    0.6468 C   0  0  0  0  0  0  0  0  0  0  0  0
   -2.2323   -4.5941   -1.1564 C   0  0  0  0  0  0  0  0  0  0  0  0
   -1.7442   -3.8169    0.3157 S   0  0  0  0  0  0  0  0  0  0  0  0
   -4.2344   -6.5490   -3.4875 C   0  0  0  0  0  0  0  0  0  0  0  0
   -4.4620   -6.8203   -4.8178 C   0  0  0  0  0  0  0  0  0  0  0  0
   -3.5747   -6.4917   -5.9357 C   0  0  0  0  0  0  0  0  0  0  0  0
   -2.5286   -5.8655   -5.9026 O   0  0  0  0  0  0  0  0  0  0  0  0
   -4.1827   -7.0939   -7.1364 C   0  0  0  0  0  0  0  0  0  0  0  0
   -3.6992   -7.0344   -8.4403 C   0  0  0  0  0  0  0  0  0  0  0  0
   -4.4870   -7.6860   -9.3589 C   0  0  0  0  0  0  0  0  0  0  0  0
   -5.6686   -8.3487   -9.0048 C   0  0  0  0  0  0  0  0  0  0  0  0
   -6.1592   -8.4098   -7.7214 C   0  0  0  0  0  0  0  0  0  0  0  0
   -5.3728   -7.7534   -6.7714 C   0  0  0  0  0  0  0  0  0  0  0  0
   -5.5801   -7.5730   -5.3337 C   0  0  0  0  0  0  0  0  0  0  0  0
   -6.6770   -8.0140   -4.6315 C   0  0  0  0  0  0  0  0  0  0  0  0
   -6.9634   -7.7182   -3.2855 C   0  0  0  0  0  0  0  0  0  0  0  0
   -7.3006   -7.4966   -2.2083 N   0  0  0  0  0  0  0  0  0  0  0  0
   -7.7083   -8.8052   -5.1743 C   0  0  0  0  0  0  0  0  0  0  0  0
   -8.5760   -9.4655   -5.5371 N   0  0  0  0  0  0  0  0  0  0  0  0
   -5.9443   -8.7835  -10.4226 C   0  0  0  0  0  0  0  0  0  0  0  0
   -5.6363  -10.2531  -10.8016 C   0  0  0  0  0  0  0  0  0  0  0  0
   -4.5459  -10.7176   -9.8684 C   0  0  0  0  0  0  0  0  0  0  0  0
   -3.4286  -10.0877  -10.2057 C   0  0  0  0  0  0  0  0  0  0  0  0
   -3.7435   -9.1852  -11.3729 C   0  0  0  0  0  0  0  0  0  0  0  0
   -4.8177  -10.0249  -12.0824 C   0  0  0  0  0  0  0  0  0  0  0  0
   -4.6285   -8.0419  -10.8180 C   0  0  0  0  0  0  0  0  0  0  0  0
    5.9371    6.9017    2.9355 H   0  0  0  0  0  0  0  0  0  0  0  0
    0.9271    9.4613    5.5969 H   0  0  0  0  0  0  0  0  0  0  0  0
    5.3580   11.8321    4.9657 H   0  0  0  0  0  0  0  0  0  0  0  0
    2.7764   14.1014    5.1473 H   0  0  0  0  0  0  0  0  0  0  0  0
    3.8099   14.6093    7.3548 H   0  0  0  0  0  0  0  0  0  0  0  0
    4.2515   12.3092    8.5166 H   0  0  0  0  0  0  0  0  0  0  0  0
    1.9178   11.0896    8.8617 H   0  0  0  0  0  0  0  0  0  0  0  0
    0.0359   12.6395    7.9112 H   0  0  0  0  0  0  0  0  0  0  0  0
    1.6056   14.5669    8.8227 H   0  0  0  0  0  0  0  0  0  0  0  0
    1.1495   14.9680    7.1479 H   0  0  0  0  0  0  0  0  0  0  0  0
    0.5070   12.9189    5.4813 H   0  0  0  0  0  0  0  0  0  0  0  0
    7.0772    6.7308   -0.4190 H   0  0  0  0  0  0  0  0  0  0  0  0
    9.3975    7.4035    0.0923 H   0  0  0  0  0  0  0  0  0  0  0  0
   12.3315    6.8999    4.1769 H   0  0  0  0  0  0  0  0  0  0  0  0
   10.5847    6.6629    4.4425 H   0  0  0  0  0  0  0  0  0  0  0  0
   11.6367    5.2741    4.0005 H   0  0  0  0  0  0  0  0  0  0  0  0
    9.3710    4.8445    3.5200 H   0  0  0  0  0  0  0  0  0  0  0  0
    7.0697    4.1998    3.0253 H   0  0  0  0  0  0  0  0  0  0  0  0
    3.4164    5.6709   -0.3610 H   0  0  0  0  0  0  0  0  0  0  0  0
    2.8893    5.0930   -2.6767 H   0  0  0  0  0  0  0  0  0  0  0  0
    2.5200    4.9224   -4.9520 H   0  0  0  0  0  0  0  0  0  0  0  0
    2.4184    3.4202   -5.8925 H   0  0  0  0  0  0  0  0  0  0  0  0
    2.0442    3.3830   -4.1564 H   0  0  0  0  0  0  0  0  0  0  0  0
    6.6198    3.0288   -3.0082 H   0  0  0  0  0  0  0  0  0  0  0  0
    7.1766    3.6696   -0.6930 H   0  0  0  0  0  0  0  0  0  0  0  0
    1.3034    1.5057    6.5472 H   0  0  0  0  0  0  0  0  0  0  0  0
    0.3587    3.1776    8.1012 H   0  0  0  0  0  0  0  0  0  0  0  0
   -1.2376    7.5575    6.2058 H   0  0  0  0  0  0  0  0  0  0  0  0
    0.5136    7.1737    6.3062 H   0  0  0  0  0  0  0  0  0  0  0  0
   -0.3019    8.0464    7.6362 H   0  0  0  0  0  0  0  0  0  0  0  0
   -0.6638    5.6744    4.7863 H   0  0  0  0  0  0  0  0  0  0  0  0
    0.2538    4.0035    3.2460 H   0  0  0  0  0  0  0  0  0  0  0  0
   -0.7517    0.6378    4.7747 H   0  0  0  0  0  0  0  0  0  0  0  0
   -1.2729   -1.7537    4.7753 H   0  0  0  0  0  0  0  0  0  0  0  0
   -1.8735   -3.4808    3.2110 H   0  0  0  0  0  0  0  0  0  0  0  0
   -1.6935   -5.1940    3.6240 H   0  0  0  0  0  0  0  0  0  0  0  0
   -1.8260   -3.9984    4.9311 H   0  0  0  0  0  0  0  0  0  0  0  0
    2.7070   -2.6169    3.4877 H   0  0  0  0  0  0  0  0  0  0  0  0
    3.2371   -0.2169    3.5114 H   0  0  0  0  0  0  0  0  0  0  0  0
   -2.6250    2.0251    2.8228 H   0  0  0  0  0  0  0  0  0  0  0  0
   -3.5205    1.4059    1.4103 H   0  0  0  0  0  0  0  0  0  0  0  0
   -3.1059   -0.0828    4.0503 H   0  0  0  0  0  0  0  0  0  0  0  0
   -3.8246   -0.7861    2.5956 H   0  0  0  0  0  0  0  0  0  0  0  0
   -4.6303    0.5568    3.4271 H   0  0  0  0  0  0  0  0  0  0  0  0
    4.7039   -3.2406   -1.9619 H   0  0  0  0  0  0  0  0  0  0  0  0
    5.6576   -1.8639   -1.3273 H   0  0  0  0  0  0  0  0  0  0  0  0
    5.8286   -3.0043    0.8773 H   0  0  0  0  0  0  0  0  0  0  0  0
    6.4812   -4.0380   -0.3998 H   0  0  0  0  0  0  0  0  0  0  0  0
    4.8735   -4.3626    0.2608 H   0  0  0  0  0  0  0  0  0  0  0  0
    1.0126   -4.7667   -3.1721 H   0  0  0  0  0  0  0  0  0  0  0  0
    1.6302   -5.8196   -5.3087 H   0  0  0  0  0  0  0  0  0  0  0  0
    1.7269   -3.9979   -8.5725 H   0  0  0  0  0  0  0  0  0  0  0  0
    0.8110   -5.4229   -8.0722 H   0  0  0  0  0  0  0  0  0  0  0  0
    2.5239   -5.3048   -7.6830 H   0  0  0  0  0  0  0  0  0  0  0  0
    0.7982   -2.1680   -7.3481 H   0  0  0  0  0  0  0  0  0  0  0  0
    0.1287   -1.1306   -5.2261 H   0  0  0  0  0  0  0  0  0  0  0  0
    2.2987   -0.9010   -3.2189 H   0  0  0  0  0  0  0  0  0  0  0  0
    2.6487    1.4255   -2.5028 H   0  0  0  0  0  0  0  0  0  0  0  0
    1.8881    3.3632   -1.3162 H   0  0  0  0  0  0  0  0  0  0  0  0
    0.3018    3.8247   -1.9619 H   0  0  0  0  0  0  0  0  0  0  0  0
    0.4379    3.1968   -0.3223 H   0  0  0  0  0  0  0  0  0  0  0  0
   -1.4464    1.6860   -1.3367 H   0  0  0  0  0  0  0  0  0  0  0  0
   -1.7843   -0.6575   -1.9945 H   0  0  0  0  0  0  0  0  0  0  0  0
   -2.3158   -8.1374   -1.6455 H   0  0  0  0  0  0  0  0  0  0  0  0
   -2.8525  -10.5123   -1.9278 H   0  0  0  0  0  0  0  0  0  0  0  0
   -5.9540  -11.9181   -1.8778 H   0  0  0  0  0  0  0  0  0  0  0  0
   -4.2758  -12.3798   -1.5745 H   0  0  0  0  0  0  0  0  0  0  0  0
   -5.4283  -12.2688   -0.2363 H   0  0  0  0  0  0  0  0  0  0  0  0
   -6.6059   -9.9011    0.0056 H   0  0  0  0  0  0  0  0  0  0  0  0
   -6.0880   -7.5188    0.2683 H   0  0  0  0  0  0  0  0  0  0  0  0
   -3.7324   -7.3277    1.9061 H   0  0  0  0  0  0  0  0  0  0  0  0
   -4.3575   -6.2021    3.9955 H   0  0  0  0  0  0  0  0  0  0  0  0
   -4.7808   -2.7213    4.4061 H   0  0  0  0  0  0  0  0  0  0  0  0
   -5.0669   -4.2834    5.1867 H   0  0  0  0  0  0  0  0  0  0  0  0
   -6.3752   -3.4602    4.3345 H   0  0  0  0  0  0  0  0  0  0  0  0
   -5.4458   -2.7125    1.7982 H   0  0  0  0  0  0  0  0  0  0  0  0
   -4.8470   -3.8431   -0.2977 H   0  0  0  0  0  0  0  0  0  0  0  0
   -4.9527   -6.9674   -2.7941 H   0  0  0  0  0  0  0  0  0  0  0  0
   -2.7859   -6.5073   -8.6684 H   0  0  0  0  0  0  0  0  0  0  0  0
   -7.0737   -8.9194   -7.4681 H   0  0  0  0  0  0  0  0  0  0  0  0
   -6.8782   -8.4312  -10.8564 H   0  0  0  0  0  0  0  0  0  0  0  0
   -6.5114  -10.8934  -10.8734 H   0  0  0  0  0  0  0  0  0  0  0  0
   -4.7077  -11.3909   -9.0471 H   0  0  0  0  0  0  0  0  0  0  0  0
   -2.4700  -10.1294   -9.7224 H   0  0  0  0  0  0  0  0  0  0  0  0
   -2.8953   -8.8530  -11.9660 H   0  0  0  0  0  0  0  0  0  0  0  0
   -4.4220  -10.9495  -12.5003 H   0  0  0  0  0  0  0  0  0  0  0  0
   -5.3596   -9.4759  -12.8514 H   0  0  0  0  0  0  0  0  0  0  0  0
   -4.7050   -7.2038  -11.5084 H   0  0  0  0  0  0  0  0  0  0  0  0
  1  2  2  0  0  0  0
  2  3  1  0  0  0  0
  3  4  2  0  0  0  0
  3  5  1  0  0  0  0
  5  6  2  0  0  0  0
  6  7  1  0  0  0  0
  7  8  2  0  0  0  0
  8  9  1  0  0  0  0
  9 10  2  0  0  0  0
 10 11  1  0  0  0  0
 11 12  2  0  0  0  0
 12 13  1  0  0  0  0
 13 14  3  0  0  0  0
 12 15  1  0  0  0  0
 15 16  3  0  0  0  0
  8 17  1  0  0  0  0
 17 18  1  0  0  0  0
 18 19  1  0  0  0  0
 19 20  2  0  0  0  0
 20 21  1  0  0  0  0
 21 22  1  0  0  0  0
 21 23  1  0  0  0  0
  1 24  1  0  0  0  0
 24 25  2  0  0  0  0
 25 26  1  0  0  0  0
 26 27  1  0  0  0  0
 27 28  2  0  0  0  0
 28 29  1  0  0  0  0
 29 30  2  0  0  0  0
 30 31  1  0  0  0  0
 31 32  1  0  0  0  0
 30 33  1  0  0  0  0
 33 34  2  0  0  0  0
 26 35  1  0  0  0  0
 35 36  2  0  0  0  0
 36 37  1  0  0  0  0
 37 38  2  0  0  0  0
 38 39  1  0  0  0  0
 39 40  1  0  0  0  0
 38 41  1  0  0  0  0
 41 42  2  0  0  0  0
 25 43  1  0  0  0  0
 43 44  1  0  0  0  0
 44 45  1  0  0  0  0
 45 46  2  0  0  0  0
 46 47  1  0  0  0  0
 47 48  1  0  0  0  0
 48 49  2  0  0  0  0
 49 50  1  0  0  0  0
 50 51  2  0  0  0  0
 51 52  1  0  0  0  0
 52 53  1  0  0  0  0
 51 54  1  0  0  0  0
 54 55  2  0  0  0  0
 47 56  1  0  0  0  0
 56 57  2  0  0  0  0
 57 58  1  0  0  0  0
 58 59  2  0  0  0  0
 59 60  1  0  0  0  0
 60 61  1  0  0  0  0
 59 62  1  0  0  0  0
 62 63  2  0  0  0  0
 46 64  1  0  0  0  0
 64 65  1  0  0  0  0
 45 66  1  0  0  0  0
 66 67  1  0  0  0  0
 67 68  1  0  0  0  0
 68 69  2  0  0  0  0
 69 70  1  0  0  0  0
 70 71  1  0  0  0  0
 71 72  1  0  0  0  0
 70 73  1  0  0  0  0
 68 74  1  0  0  0  0
 74 75  2  0  0  0  0
 75 76  1  0  0  0  0
 76 77  2  0  0  0  0
 76 78  1  0  0  0  0
 78 79  1  0  0  0  0
 79 80  1  0  0  0  0
 78 81  1  0  0  0  0
 81 82  2  0  0  0  0
 81 83  1  0  0  0  0
 74 84  1  0  0  0  0
 84 85  2  0  0  0  0
 85 86  1  0  0  0  0
 86 87  1  0  0  0  0
 87 88  2  0  0  0  0
 88 89  1  0  0  0  0
 89 90  2  0  0  0  0
 90 91  1  0  0  0  0
 90 92  1  0  0  0  0
 92 93  2  0  0  0  0
 86 94  1  0  0  0  0
 94 95  2  0  0  0  0
 95 96  1  0  0  0  0
 96 97  2  0  0  0  0
 97 98  1  0  0  0  0
 97 99  1  0  0  0  0
 99100  2  0  0  0  0
 85101  1  0  0  0  0
101102  1  0  0  0  0
102103  1  0  0  0  0
103104  2  0  0  0  0
104105  1  0  0  0  0
105106  1  0  0  0  0
106107  2  0  0  0  0
107108  1  0  0  0  0
108109  2  0  0  0  0
109110  1  0  0  0  0
109111  1  0  0  0  0
111112  2  0  0  0  0
105113  1  0  0  0  0
113114  2  0  0  0  0
114115  1  0  0  0  0
115116  2  0  0  0  0
116117  1  0  0  0  0
116118  1  0  0  0  0
118119  2  0  0  0  0
104120  1  0  0  0  0
120121  1  0  0  0  0
103122  1  0  0  0  0
122123  2  0  0  0  0
123124  1  0  0  0  0
124125  2  0  0  0  0
124126  1  0  0  0  0
126127  2  0  0  0  0
127128  1  0  0  0  0
128129  2  0  0  0  0
129130  1  0  0  0  0
130131  2  0  0  0  0
131132  1  0  0  0  0
132133  2  0  0  0  0
133134  1  0  0  0  0
134135  3  0  0  0  0
133136  1  0  0  0  0
136137  3  0  0  0  0
129138  1  0  0  0  0
138139  1  0  0  0  0
139140  1  0  0  0  0
140141  2  0  0  0  0
141142  1  0  0  0  0
142143  1  0  0  0  0
142144  1  0  0  0  0
 11  2  1  0  0  0  0
 23 17  1  0  0  0  0
 65 24  1  0  0  0  0
 83 66  2  0  0  0  0
121 84  1  0  0  0  0
132123  1  0  0  0  0
144138  1  0  0  0  0
 10  5  1  0  0  0  0
 22 18  1  0  0  0  0
 34 27  1  0  0  0  0
 42 35  1  0  0  0  0
 64 43  2  0  0  0  0
 73 67  2  0  0  0  0
 83 75  1  0  0  0  0
 93 87  1  0  0  0  0
100 94  1  0  0  0  0
120101  2  0  0  0  0
131126  1  0  0  0  0
143139  1  0  0  0  0
 23  7  1  0  0  0  0
 55 48  1  0  0  0  0
 63 56  1  0  0  0  0
112106  1  0  0  0  0
119113  1  0  0  0  0
144128  1  0  0  0  0
  1145  1  0  0  0  0
  6146  1  0  0  0  0
  9147  1  0  0  0  0
 17148  1  0  0  0  0
 18149  1  0  0  0  0
 19150  1  0  0  0  0
 20151  1  0  0  0  0
 21152  1  0  0  0  0
 22153  1  0  0  0  0
 22154  1  0  0  0  0
 23155  1  0  0  0  0
 28156  1  0  0  0  0
 29157  1  0  0  0  0
 32158  1  0  0  0  0
 32159  1  0  0  0  0
 32160  1  0  0  0  0
 33161  1  0  0  0  0
 34162  1  0  0  0  0
 36163  1  0  0  0  0
 37164  1  0  0  0  0
 40165  1  0  0  0  0
 40166  1  0  0  0  0
 40167  1  0  0  0  0
 41168  1  0  0  0  0
 42169  1  0  0  0  0
 49170  1  0  0  0  0
 50171  1  0  0  0  0
 53172  1  0  0  0  0
 53173  1  0  0  0  0
 53174  1  0  0  0  0
 54175  1  0  0  0  0
 55176  1  0  0  0  0
 57177  1  0  0  0  0
 58178  1  0  0  0  0
 61179  1  0  0  0  0
 61180  1  0  0  0  0
 61181  1  0  0  0  0
 62182  1  0  0  0  0
 63183  1  0  0  0  0
 71184  1  0  0  0  0
 71185  1  0  0  0  0
 72186  1  0  0  0  0
 72187  1  0  0  0  0
 72188  1  0  0  0  0
 79189  1  0  0  0  0
 79190  1  0  0  0  0
 80191  1  0  0  0  0
 80192  1  0  0  0  0
 80193  1  0  0  0  0
 88194  1  0  0  0  0
 89195  1  0  0  0  0
 91196  1  0  0  0  0
 91197  1  0  0  0  0
 91198  1  0  0  0  0
 92199  1  0  0  0  0
 93200  1  0  0  0  0
 95201  1  0  0  0  0
 96202  1  0  0  0  0
 98203  1  0  0  0  0
 98204  1  0  0  0  0
 98205  1  0  0  0  0
 99206  1  0  0  0  0
100207  1  0  0  0  0
107208  1  0  0  0  0
108209  1  0  0  0  0
110210  1  0  0  0  0
110211  1  0  0  0  0
110212  1  0  0  0  0
111213  1  0  0  0  0
112214  1  0  0  0  0
114215  1  0  0  0  0
115216  1  0  0  0  0
117217  1  0  0  0  0
117218  1  0  0  0  0
117219  1  0  0  0  0
118220  1  0  0  0  0
119221  1  0  0  0  0
122222  1  0  0  0  0
127223  1  0  0  0  0
130224  1  0  0  0  0
138225  1  0  0  0  0
139226  1  0  0  0  0
140227  1  0  0  0  0
141228  1  0  0  0  0
142229  1  0  0  0  0
143230  1  0  0  0  0
143231  1  0  0  0  0
144232  1  0  0  0  0
M  END
