
  xtb     02172222043D
 energy: -332.626804852615 gnorm: 0.000806499793 xtb: 6.4.1 (unknown)
206227  0     0  0            999 V2000
   -4.0158    7.6587    1.0670 C   0  0  0  0  0  0  0  0  0  0  0  0
   -3.1206    8.5430    1.6123 C   0  0  0  0  0  0  0  0  0  0  0  0
   -3.1485    9.9575    1.1899 C   0  0  0  0  0  0  0  0  0  0  0  0
   -4.0029   10.4954    0.5129 O   0  0  0  0  0  0  0  0  0  0  0  0
   -1.8805   10.5400    1.6698 C   0  0  0  0  0  0  0  0  0  0  0  0
   -1.4366   11.8490    1.4977 C   0  0  0  0  0  0  0  0  0  0  0  0
   -0.1981   12.0971    2.0399 C   0  0  0  0  0  0  0  0  0  0  0  0
    0.5461   11.1155    2.7063 C   0  0  0  0  0  0  0  0  0  0  0  0
    0.1186    9.8216    2.8880 C   0  0  0  0  0  0  0  0  0  0  0  0
   -1.1377    9.5459    2.3411 C   0  0  0  0  0  0  0  0  0  0  0  0
   -1.9270    8.3138    2.3830 C   0  0  0  0  0  0  0  0  0  0  0  0
   -1.6158    7.1881    3.1098 C   0  0  0  0  0  0  0  0  0  0  0  0
   -0.3578    6.9387    3.6854 C   0  0  0  0  0  0  0  0  0  0  0  0
    0.6670    6.6531    4.1217 N   0  0  0  0  0  0  0  0  0  0  0  0
   -2.5293    6.1716    3.4505 C   0  0  0  0  0  0  0  0  0  0  0  0
   -3.2242    5.3546    3.8619 N   0  0  0  0  0  0  0  0  0  0  0  0
    1.6902   12.0583    2.9866 C   0  0  0  0  0  0  0  0  0  0  0  0
    2.9404   11.9129    2.0936 C   0  0  0  0  0  0  0  0  0  0  0  0
    3.6620   13.2300    2.2646 C   0  0  0  0  0  0  0  0  0  0  0  0
    2.9571   14.1609    1.6344 C   0  0  0  0  0  0  0  0  0  0  0  0
    1.7473   13.4885    1.0267 C   0  0  0  0  0  0  0  0  0  0  0  0
    2.3476   12.1166    0.6933 C   0  0  0  0  0  0  0  0  0  0  0  0
    0.8597   13.1538    2.2442 C   0  0  0  0  0  0  0  0  0  0  0  0
   -3.8960    6.2977    1.0553 C   0  0  0  0  0  0  0  0  0  0  0  0
   -3.7548    5.0979    0.8608 C   0  0  0  0  0  0  0  0  0  0  0  0
   -3.3900    3.7865    0.7481 C   0  0  0  0  0  0  0  0  0  0  0  0
   -3.9318    2.7805   -0.0641 C   0  0  0  0  0  0  0  0  0  0  0  0
   -4.9823    2.9635   -0.9207 N   0  0  0  0  0  0  0  0  0  0  0  0
   -5.3273    4.2536   -1.3753 C   0  0  0  0  0  0  0  0  0  0  0  0
   -6.6544    4.6746   -1.3236 C   0  0  0  0  0  0  0  0  0  0  0  0
   -6.9937    5.9449   -1.7312 C   0  0  0  0  0  0  0  0  0  0  0  0
   -6.0166    6.8252   -2.1938 C   0  0  0  0  0  0  0  0  0  0  0  0
   -6.5652    8.4342   -2.6617 S   0  0  0  0  0  0  0  0  0  0  0  0
   -5.0510    9.4354   -2.6980 C   0  0  0  0  0  0  0  0  0  0  0  0
   -4.6987    6.3937   -2.2818 C   0  0  0  0  0  0  0  0  0  0  0  0
   -4.3603    5.1157   -1.8821 C   0  0  0  0  0  0  0  0  0  0  0  0
   -5.8217    1.8933   -1.2722 C   0  0  0  0  0  0  0  0  0  0  0  0
   -6.2127    0.9465   -0.3310 C   0  0  0  0  0  0  0  0  0  0  0  0
   -7.0647   -0.0819   -0.6851 C   0  0  0  0  0  0  0  0  0  0  0  0
   -7.5375   -0.1812   -1.9861 C   0  0  0  0  0  0  0  0  0  0  0  0
   -8.6297   -1.4448   -2.5516 S   0  0  0  0  0  0  0  0  0  0  0  0
   -8.8545   -2.5150   -1.1021 C   0  0  0  0  0  0  0  0  0  0  0  0
   -7.1526    0.7724   -2.9283 C   0  0  0  0  0  0  0  0  0  0  0  0
   -6.3070    1.7988   -2.5768 C   0  0  0  0  0  0  0  0  0  0  0  0
   -3.2183    1.5730    0.1139 C   0  0  0  0  0  0  0  0  0  0  0  0
   -3.2520    0.0180   -0.6467 S   0  0  0  0  0  0  0  0  0  0  0  0
   -1.8736   -0.5156    0.3148 C   0  0  0  0  0  0  0  0  0  0  0  0
   -1.3924    0.4830    1.1483 C   0  0  0  0  0  0  0  0  0  0  0  0
   -0.2792    0.4238    1.9644 N   0  0  0  0  0  0  0  0  0  0  0  0
   -0.2288    1.2729    3.0898 C   0  0  0  0  0  0  0  0  0  0  0  0
   -1.3385    1.4069    3.9242 C   0  0  0  0  0  0  0  0  0  0  0  0
   -1.2951    2.2529    5.0091 C   0  0  0  0  0  0  0  0  0  0  0  0
   -0.1451    2.9887    5.2875 C   0  0  0  0  0  0  0  0  0  0  0  0
   -0.2049    4.0172    6.7148 S   0  0  0  0  0  0  0  0  0  0  0  0
    1.3949    4.8737    6.7121 C   0  0  0  0  0  0  0  0  0  0  0  0
    0.9618    2.8605    4.4575 C   0  0  0  0  0  0  0  0  0  0  0  0
    0.9177    2.0099    3.3699 C   0  0  0  0  0  0  0  0  0  0  0  0
    0.8476   -0.3406    1.6386 C   0  0  0  0  0  0  0  0  0  0  0  0
    1.5840   -0.9462    2.6530 C   0  0  0  0  0  0  0  0  0  0  0  0
    2.6604   -1.7608    2.3555 C   0  0  0  0  0  0  0  0  0  0  0  0
    3.0005   -2.0098    1.0323 C   0  0  0  0  0  0  0  0  0  0  0  0
    4.2833   -3.1250    0.5509 S   0  0  0  0  0  0  0  0  0  0  0  0
    4.3505   -4.2772    1.9573 C   0  0  0  0  0  0  0  0  0  0  0  0
    2.3179   -1.3425    0.0191 C   0  0  0  0  0  0  0  0  0  0  0  0
    1.2664   -0.5032    0.3166 C   0  0  0  0  0  0  0  0  0  0  0  0
   -2.1778    1.6566    1.0281 C   0  0  0  0  0  0  0  0  0  0  0  0
   -2.0121    3.2339    1.7051 S   0  0  0  0  0  0  0  0  0  0  0  0
   -1.2924   -1.7983    0.0391 C   0  0  0  0  0  0  0  0  0  0  0  0
   -0.9455   -2.8264    0.9066 C   0  0  0  0  0  0  0  0  0  0  0  0
   -1.4148   -2.9381    2.1950 N   0  0  0  0  0  0  0  0  0  0  0  0
   -2.5951   -2.2721    2.5869 C   0  0  0  0  0  0  0  0  0  0  0  0
   -2.6591   -1.7194    3.8623 C   0  0  0  0  0  0  0  0  0  0  0  0
   -3.7989   -1.0603    4.2792 C   0  0  0  0  0  0  0  0  0  0  0  0
   -4.9003   -0.9316    3.4395 C   0  0  0  0  0  0  0  0  0  0  0  0
   -6.1082   -0.1666    3.8860 C   0  0  0  0  0  0  0  0  0  0  0  0
   -4.8404   -1.5219    2.1843 C   0  0  0  0  0  0  0  0  0  0  0  0
   -3.7096   -2.1914    1.7591 C   0  0  0  0  0  0  0  0  0  0  0  0
   -0.9569   -3.9409    3.0781 C   0  0  0  0  0  0  0  0  0  0  0  0
    0.3891   -4.0704    3.3959 C   0  0  0  0  0  0  0  0  0  0  0  0
    0.8037   -5.0510    4.2780 C   0  0  0  0  0  0  0  0  0  0  0  0
   -0.1053   -5.9189    4.8671 C   0  0  0  0  0  0  0  0  0  0  0  0
    0.3526   -6.9978    5.7987 C   0  0  0  0  0  0  0  0  0  0  0  0
   -1.4520   -5.7734    4.5531 C   0  0  0  0  0  0  0  0  0  0  0  0
   -1.8778   -4.8005    3.6723 C   0  0  0  0  0  0  0  0  0  0  0  0
   -0.1158   -3.7666    0.2422 C   0  0  0  0  0  0  0  0  0  0  0  0
    0.7790   -5.1529    0.7491 S   0  0  0  0  0  0  0  0  0  0  0  0
    1.5156   -5.3019   -0.8551 C   0  0  0  0  0  0  0  0  0  0  0  0
    0.9211   -4.4230   -1.7854 C   0  0  0  0  0  0  0  0  0  0  0  0
    1.0308   -4.4903   -3.1380 N   0  0  0  0  0  0  0  0  0  0  0  0
    1.5058   -5.6252   -3.8179 C   0  0  0  0  0  0  0  0  0  0  0  0
    2.3839   -5.4627   -4.8870 C   0  0  0  0  0  0  0  0  0  0  0  0
    2.9017   -6.5669   -5.5368 C   0  0  0  0  0  0  0  0  0  0  0  0
    2.5498   -7.8544   -5.1525 C   0  0  0  0  0  0  0  0  0  0  0  0
    3.1585   -9.0491   -5.8165 C   0  0  0  0  0  0  0  0  0  0  0  0
    1.6288   -8.0056   -4.1193 C   0  0  0  0  0  0  0  0  0  0  0  0
    1.1109   -6.9115   -3.4576 C   0  0  0  0  0  0  0  0  0  0  0  0
    0.6365   -3.3952   -3.9461 C   0  0  0  0  0  0  0  0  0  0  0  0
   -0.3167   -3.5912   -4.9387 C   0  0  0  0  0  0  0  0  0  0  0  0
   -0.7088   -2.5317   -5.7327 C   0  0  0  0  0  0  0  0  0  0  0  0
   -0.1590   -1.2660   -5.5609 C   0  0  0  0  0  0  0  0  0  0  0  0
   -0.6183   -0.1159   -6.4029 C   0  0  0  0  0  0  0  0  0  0  0  0
    0.8122   -1.0907   -4.5829 C   0  0  0  0  0  0  0  0  0  0  0  0
    1.2126   -2.1419   -3.7808 C   0  0  0  0  0  0  0  0  0  0  0  0
    0.0668   -3.5166   -1.1133 C   0  0  0  0  0  0  0  0  0  0  0  0
   -0.7954   -2.1117   -1.6202 S   0  0  0  0  0  0  0  0  0  0  0  0
    2.5767   -6.1956   -0.9851 C   0  0  0  0  0  0  0  0  0  0  0  0
    3.5699   -6.1239   -1.9404 C   0  0  0  0  0  0  0  0  0  0  0  0
    3.9737   -4.8829   -2.6180 C   0  0  0  0  0  0  0  0  0  0  0  0
    3.4908   -3.7723   -2.4921 O   0  0  0  0  0  0  0  0  0  0  0  0
    5.1700   -5.2314   -3.4129 C   0  0  0  0  0  0  0  0  0  0  0  0
    5.9097   -4.3826   -4.2286 C   0  0  0  0  0  0  0  0  0  0  0  0
    6.9516   -5.0001   -4.8799 C   0  0  0  0  0  0  0  0  0  0  0  0
    7.2499   -6.3569   -4.7121 C   0  0  0  0  0  0  0  0  0  0  0  0
    6.5354   -7.2026   -3.8961 C   0  0  0  0  0  0  0  0  0  0  0  0
    5.4598   -6.5983   -3.2435 C   0  0  0  0  0  0  0  0  0  0  0  0
    4.4585   -7.1732   -2.3466 C   0  0  0  0  0  0  0  0  0  0  0  0
    4.2944   -8.5121   -2.0777 C   0  0  0  0  0  0  0  0  0  0  0  0
    5.1072   -9.5335   -2.5995 C   0  0  0  0  0  0  0  0  0  0  0  0
    5.7253  -10.4155   -3.0019 N   0  0  0  0  0  0  0  0  0  0  0  0
    3.2390   -9.0399   -1.3098 C   0  0  0  0  0  0  0  0  0  0  0  0
    2.3943   -9.5449   -0.7162 N   0  0  0  0  0  0  0  0  0  0  0  0
    8.4076   -6.3049   -5.6780 C   0  0  0  0  0  0  0  0  0  0  0  0
    8.1846   -6.8890   -7.0948 C   0  0  0  0  0  0  0  0  0  0  0  0
    6.7066   -6.7798   -7.3749 C   0  0  0  0  0  0  0  0  0  0  0  0
    6.4200   -5.4952   -7.5391 C   0  0  0  0  0  0  0  0  0  0  0  0
    7.6989   -4.7132   -7.3716 C   0  0  0  0  0  0  0  0  0  0  0  0
    8.7089   -5.7202   -7.9441 C   0  0  0  0  0  0  0  0  0  0  0  0
    8.0711   -4.7925   -5.8698 C   0  0  0  0  0  0  0  0  0  0  0  0
   -4.8362    8.0905    0.5019 H   0  0  0  0  0  0  0  0  0  0  0  0
   -2.0449   12.5774    0.9846 H   0  0  0  0  0  0  0  0  0  0  0  0
    0.7002    9.0778    3.4069 H   0  0  0  0  0  0  0  0  0  0  0  0
    1.9327   12.2112    4.0366 H   0  0  0  0  0  0  0  0  0  0  0  0
    3.5206   11.0104    2.2660 H   0  0  0  0  0  0  0  0  0  0  0  0
    4.5511   13.3550    2.8544 H   0  0  0  0  0  0  0  0  0  0  0  0
    3.1398   15.2188    1.5929 H   0  0  0  0  0  0  0  0  0  0  0  0
    1.2415   14.0222    0.2264 H   0  0  0  0  0  0  0  0  0  0  0  0
    1.6111   11.3669    0.4103 H   0  0  0  0  0  0  0  0  0  0  0  0
    3.1172   12.1795   -0.0744 H   0  0  0  0  0  0  0  0  0  0  0  0
    0.5489   14.0366    2.8000 H   0  0  0  0  0  0  0  0  0  0  0  0
   -7.4127    4.0047   -0.9469 H   0  0  0  0  0  0  0  0  0  0  0  0
   -8.0182    6.2795   -1.6807 H   0  0  0  0  0  0  0  0  0  0  0  0
   -4.5674    9.4163   -1.7260 H   0  0  0  0  0  0  0  0  0  0  0  0
   -4.3858    9.0929   -3.4852 H   0  0  0  0  0  0  0  0  0  0  0  0
   -5.3831   10.4460   -2.9146 H   0  0  0  0  0  0  0  0  0  0  0  0
   -3.9274    7.0444   -2.6614 H   0  0  0  0  0  0  0  0  0  0  0  0
   -3.3349    4.7856   -1.9586 H   0  0  0  0  0  0  0  0  0  0  0  0
   -5.8642    1.0267    0.6880 H   0  0  0  0  0  0  0  0  0  0  0  0
   -7.3686   -0.7914    0.0674 H   0  0  0  0  0  0  0  0  0  0  0  0
   -9.4979   -3.3235   -1.4349 H   0  0  0  0  0  0  0  0  0  0  0  0
   -9.3423   -1.9647   -0.3027 H   0  0  0  0  0  0  0  0  0  0  0  0
   -7.8962   -2.9147   -0.7836 H   0  0  0  0  0  0  0  0  0  0  0  0
   -7.5268    0.6934   -3.9373 H   0  0  0  0  0  0  0  0  0  0  0  0
   -6.0143    2.5375   -3.3076 H   0  0  0  0  0  0  0  0  0  0  0  0
   -2.2340    0.8436    3.7121 H   0  0  0  0  0  0  0  0  0  0  0  0
   -2.1554    2.3619    5.6505 H   0  0  0  0  0  0  0  0  0  0  0  0
    2.2028    4.1540    6.8067 H   0  0  0  0  0  0  0  0  0  0  0  0
    1.3769    5.5233    7.5818 H   0  0  0  0  0  0  0  0  0  0  0  0
    1.4825    5.4681    5.8070 H   0  0  0  0  0  0  0  0  0  0  0  0
    1.8590    3.4296    4.6362 H   0  0  0  0  0  0  0  0  0  0  0  0
    1.7794    1.9208    2.7243 H   0  0  0  0  0  0  0  0  0  0  0  0
    1.2988   -0.7880    3.6828 H   0  0  0  0  0  0  0  0  0  0  0  0
    3.2188   -2.2096    3.1623 H   0  0  0  0  0  0  0  0  0  0  0  0
    3.3448   -4.6075    2.2011 H   0  0  0  0  0  0  0  0  0  0  0  0
    4.8336   -3.8126    2.8120 H   0  0  0  0  0  0  0  0  0  0  0  0
    4.9444   -5.1202    1.6176 H   0  0  0  0  0  0  0  0  0  0  0  0
    2.6289   -1.5010   -1.0011 H   0  0  0  0  0  0  0  0  0  0  0  0
    0.7584    0.0273   -0.4747 H   0  0  0  0  0  0  0  0  0  0  0  0
   -1.8058   -1.8047    4.5188 H   0  0  0  0  0  0  0  0  0  0  0  0
   -3.8305   -0.6268    5.2684 H   0  0  0  0  0  0  0  0  0  0  0  0
   -6.9331   -0.2936    3.1889 H   0  0  0  0  0  0  0  0  0  0  0  0
   -6.4290   -0.4967    4.8724 H   0  0  0  0  0  0  0  0  0  0  0  0
   -5.8746    0.8964    3.9538 H   0  0  0  0  0  0  0  0  0  0  0  0
   -5.6926   -1.4662    1.5241 H   0  0  0  0  0  0  0  0  0  0  0  0
   -3.6946   -2.6588    0.7856 H   0  0  0  0  0  0  0  0  0  0  0  0
    1.0999   -3.3883    2.9608 H   0  0  0  0  0  0  0  0  0  0  0  0
    1.8541   -5.1384    4.5173 H   0  0  0  0  0  0  0  0  0  0  0  0
    0.5683   -7.9058    5.2347 H   0  0  0  0  0  0  0  0  0  0  0  0
   -0.4166   -7.2317    6.5309 H   0  0  0  0  0  0  0  0  0  0  0  0
    1.2603   -6.7027    6.3200 H   0  0  0  0  0  0  0  0  0  0  0  0
   -2.1779   -6.4366    5.0008 H   0  0  0  0  0  0  0  0  0  0  0  0
   -2.9277   -4.7020    3.4372 H   0  0  0  0  0  0  0  0  0  0  0  0
    2.6702   -4.4670   -5.1910 H   0  0  0  0  0  0  0  0  0  0  0  0
    3.6052   -6.4250   -6.3441 H   0  0  0  0  0  0  0  0  0  0  0  0
    2.4692   -9.8901   -5.8116 H   0  0  0  0  0  0  0  0  0  0  0  0
    3.4371   -8.8229   -6.8430 H   0  0  0  0  0  0  0  0  0  0  0  0
    4.0589   -9.3544   -5.2809 H   0  0  0  0  0  0  0  0  0  0  0  0
    1.3195   -8.9967   -3.8212 H   0  0  0  0  0  0  0  0  0  0  0  0
    0.4031   -7.0544   -2.6549 H   0  0  0  0  0  0  0  0  0  0  0  0
   -0.7477   -4.5720   -5.0783 H   0  0  0  0  0  0  0  0  0  0  0  0
   -1.4570   -2.6882   -6.4961 H   0  0  0  0  0  0  0  0  0  0  0  0
   -1.5009    0.3399   -5.9529 H   0  0  0  0  0  0  0  0  0  0  0  0
    0.1541    0.6457   -6.4773 H   0  0  0  0  0  0  0  0  0  0  0  0
   -0.8862   -0.4485   -7.4031 H   0  0  0  0  0  0  0  0  0  0  0  0
    1.2664   -0.1195   -4.4501 H   0  0  0  0  0  0  0  0  0  0  0  0
    1.9893   -2.0199   -3.0437 H   0  0  0  0  0  0  0  0  0  0  0  0
    2.6371   -6.9689   -0.2286 H   0  0  0  0  0  0  0  0  0  0  0  0
    5.6512   -3.3395   -4.3250 H   0  0  0  0  0  0  0  0  0  0  0  0
    6.7838   -8.2431   -3.7669 H   0  0  0  0  0  0  0  0  0  0  0  0
    9.3841   -6.5619   -5.2721 H   0  0  0  0  0  0  0  0  0  0  0  0
    8.6319   -7.8662   -7.2563 H   0  0  0  0  0  0  0  0  0  0  0  0
    6.0347   -7.6183   -7.3656 H   0  0  0  0  0  0  0  0  0  0  0  0
    5.4594   -5.0400   -7.6983 H   0  0  0  0  0  0  0  0  0  0  0  0
    7.7043   -3.7083   -7.7862 H   0  0  0  0  0  0  0  0  0  0  0  0
    8.5814   -5.8846   -9.0133 H   0  0  0  0  0  0  0  0  0  0  0  0
    9.7457   -5.4619   -7.7330 H   0  0  0  0  0  0  0  0  0  0  0  0
    8.8290   -4.0622   -5.5921 H   0  0  0  0  0  0  0  0  0  0  0  0
  1  2  2  0  0  0  0
  2  3  1  0  0  0  0
  3  4  2  0  0  0  0
  3  5  1  0  0  0  0
  5  6  2  0  0  0  0
  6  7  1  0  0  0  0
  7  8  2  0  0  0  0
  8  9  1  0  0  0  0
  9 10  2  0  0  0  0
 10 11  1  0  0  0  0
 11 12  2  0  0  0  0
 12 13  1  0  0  0  0
 13 14  3  0  0  0  0
 12 15  1  0  0  0  0
 15 16  3  0  0  0  0
  8 17  1  0  0  0  0
 17 18  1  0  0  0  0
 18 19  1  0  0  0  0
 19 20  2  0  0  0  0
 20 21  1  0  0  0  0
 21 22  1  0  0  0  0
 21 23  1  0  0  0  0
  1 24  1  0  0  0  0
 24 25  3  0  0  0  0
 25 26  1  0  0  0  0
 26 27  2  0  0  0  0
 27 28  1  0  0  0  0
 28 29  1  0  0  0  0
 29 30  2  0  0  0  0
 30 31  1  0  0  0  0
 31 32  2  0  0  0  0
 32 33  1  0  0  0  0
 33 34  1  0  0  0  0
 32 35  1  0  0  0  0
 35 36  2  0  0  0  0
 28 37  1  0  0  0  0
 37 38  2  0  0  0  0
 38 39  1  0  0  0  0
 39 40  2  0  0  0  0
 40 41  1  0  0  0  0
 41 42  1  0  0  0  0
 40 43  1  0  0  0  0
 43 44  2  0  0  0  0
 27 45  1  0  0  0  0
 45 46  1  0  0  0  0
 46 47  1  0  0  0  0
 47 48  2  0  0  0  0
 48 49  1  0  0  0  0
 49 50  1  0  0  0  0
 50 51  2  0  0  0  0
 51 52  1  0  0  0  0
 52 53  2  0  0  0  0
 53 54  1  0  0  0  0
 54 55  1  0  0  0  0
 53 56  1  0  0  0  0
 56 57  2  0  0  0  0
 49 58  1  0  0  0  0
 58 59  2  0  0  0  0
 59 60  1  0  0  0  0
 60 61  2  0  0  0  0
 61 62  1  0  0  0  0
 62 63  1  0  0  0  0
 61 64  1  0  0  0  0
 64 65  2  0  0  0  0
 48 66  1  0  0  0  0
 66 67  1  0  0  0  0
 47 68  1  0  0  0  0
 68 69  2  0  0  0  0
 69 70  1  0  0  0  0
 70 71  1  0  0  0  0
 71 72  2  0  0  0  0
 72 73  1  0  0  0  0
 73 74  2  0  0  0  0
 74 75  1  0  0  0  0
 74 76  1  0  0  0  0
 76 77  2  0  0  0  0
 70 78  1  0  0  0  0
 78 79  2  0  0  0  0
 79 80  1  0  0  0  0
 80 81  2  0  0  0  0
 81 82  1  0  0  0  0
 81 83  1  0  0  0  0
 83 84  2  0  0  0  0
 69 85  1  0  0  0  0
 85 86  1  0  0  0  0
 86 87  1  0  0  0  0
 87 88  2  0  0  0  0
 88 89  1  0  0  0  0
 89 90  1  0  0  0  0
 90 91  2  0  0  0  0
 91 92  1  0  0  0  0
 92 93  2  0  0  0  0
 93 94  1  0  0  0  0
 93 95  1  0  0  0  0
 95 96  2  0  0  0  0
 89 97  1  0  0  0  0
 97 98  2  0  0  0  0
 98 99  1  0  0  0  0
 99100  2  0  0  0  0
100101  1  0  0  0  0
100102  1  0  0  0  0
102103  2  0  0  0  0
 88104  1  0  0  0  0
104105  1  0  0  0  0
 87106  1  0  0  0  0
106107  2  0  0  0  0
107108  1  0  0  0  0
108109  2  0  0  0  0
108110  1  0  0  0  0
110111  2  0  0  0  0
111112  1  0  0  0  0
112113  2  0  0  0  0
113114  1  0  0  0  0
114115  2  0  0  0  0
115116  1  0  0  0  0
116117  2  0  0  0  0
117118  1  0  0  0  0
118119  3  0  0  0  0
117120  1  0  0  0  0
120121  3  0  0  0  0
113122  1  0  0  0  0
122123  1  0  0  0  0
123124  1  0  0  0  0
124125  2  0  0  0  0
125126  1  0  0  0  0
126127  1  0  0  0  0
126128  1  0  0  0  0
 11  2  1  0  0  0  0
 23 17  1  0  0  0  0
 67 26  1  0  0  0  0
105 68  1  0  0  0  0
116107  1  0  0  0  0
128122  1  0  0  0  0
 10  5  1  0  0  0  0
 22 18  1  0  0  0  0
 36 29  1  0  0  0  0
 44 37  1  0  0  0  0
 66 45  2  0  0  0  0
 77 71  1  0  0  0  0
 84 78  1  0  0  0  0
104 85  2  0  0  0  0
115110  1  0  0  0  0
127123  1  0  0  0  0
 23  7  1  0  0  0  0
 57 50  1  0  0  0  0
 65 58  1  0  0  0  0
 96 90  1  0  0  0  0
103 97  1  0  0  0  0
128112  1  0  0  0  0
  1129  1  0  0  0  0
  6130  1  0  0  0  0
  9131  1  0  0  0  0
 17132  1  0  0  0  0
 18133  1  0  0  0  0
 19134  1  0  0  0  0
 20135  1  0  0  0  0
 21136  1  0  0  0  0
 22137  1  0  0  0  0
 22138  1  0  0  0  0
 23139  1  0  0  0  0
 30140  1  0  0  0  0
 31141  1  0  0  0  0
 34142  1  0  0  0  0
 34143  1  0  0  0  0
 34144  1  0  0  0  0
 35145  1  0  0  0  0
 36146  1  0  0  0  0
 38147  1  0  0  0  0
 39148  1  0  0  0  0
 42149  1  0  0  0  0
 42150  1  0  0  0  0
 42151  1  0  0  0  0
 43152  1  0  0  0  0
 44153  1  0  0  0  0
 51154  1  0  0  0  0
 52155  1  0  0  0  0
 55156  1  0  0  0  0
 55157  1  0  0  0  0
 55158  1  0  0  0  0
 56159  1  0  0  0  0
 57160  1  0  0  0  0
 59161  1  0  0  0  0
 60162  1  0  0  0  0
 63163  1  0  0  0  0
 63164  1  0  0  0  0
 63165  1  0  0  0  0
 64166  1  0  0  0  0
 65167  1  0  0  0  0
 72168  1  0  0  0  0
 73169  1  0  0  0  0
 75170  1  0  0  0  0
 75171  1  0  0  0  0
 75172  1  0  0  0  0
 76173  1  0  0  0  0
 77174  1  0  0  0  0
 79175  1  0  0  0  0
 80176  1  0  0  0  0
 82177  1  0  0  0  0
 82178  1  0  0  0  0
 82179  1  0  0  0  0
 83180  1  0  0  0  0
 84181  1  0  0  0  0
 91182  1  0  0  0  0
 92183  1  0  0  0  0
 94184  1  0  0  0  0
 94185  1  0  0  0  0
 94186  1  0  0  0  0
 95187  1  0  0  0  0
 96188  1  0  0  0  0
 98189  1  0  0  0  0
 99190  1  0  0  0  0
101191  1  0  0  0  0
101192  1  0  0  0  0
101193  1  0  0  0  0
102194  1  0  0  0  0
103195  1  0  0  0  0
106196  1  0  0  0  0
111197  1  0  0  0  0
114198  1  0  0  0  0
122199  1  0  0  0  0
123200  1  0  0  0  0
124201  1  0  0  0  0
125202  1  0  0  0  0
126203  1  0  0  0  0
127204  1  0  0  0  0
127205  1  0  0  0  0
128206  1  0  0  0  0
M  END
