179

C          3.61740       -6.68120        3.15910
C          4.98700       -6.57550        3.06210
C          5.70460       -5.41330        2.54930
O          5.23490       -4.33520        2.21380
C          7.13140       -5.78150        2.52820
C          8.19790       -5.00360        2.08330
C          9.42010       -5.62890        2.16290
C          9.57320       -6.92250        2.67520
C          8.53070       -7.69540        3.13060
C          7.27640       -7.08720        3.03660
C          5.95140       -7.59320        3.40420
C          5.70480       -8.81630        3.97830
C          4.43840       -9.30930        4.35380
N          3.45050       -9.78860        4.69320
C          6.69750       -9.76520        4.29530
N          7.44870      -10.58550        4.58310
C         11.06920       -6.91290        2.47370
C         11.61020       -7.71930        1.27490
C         12.98480       -7.13940        1.03360
C         12.82650       -5.92480        0.52330
C         11.34140       -5.66200        0.41510
C         10.84480       -7.08130        0.10890
C         10.89480       -5.47720        1.88180
C          2.62550       -5.79290        2.75470
S          2.81830       -4.21520        2.01190
C          1.10660       -4.04960        1.71550
C          0.39700       -5.14600        2.23330
C         -0.96000       -5.57670        2.29280
C         -1.10690       -6.78230        2.89140
C         -2.36710       -7.53930        3.12580
C         -2.38630       -8.85380        2.34420
S          0.42300       -7.47670        3.40610
C          1.26120       -6.09620        2.80600
C          0.55200       -2.93340        1.05190
C          1.14190       -1.90780        0.30230
N          2.47730       -1.72180       -0.00910
C          3.33360       -2.74370       -0.41330
C          4.70930       -2.60440       -0.23680
C          5.57040       -3.62440       -0.57760
C          5.07280       -4.81260       -1.09580
S          6.07770       -6.21350       -1.47460
C          7.76210       -5.53530       -1.50390
C          3.70330       -4.94610       -1.30740
C          2.84270       -3.92230       -0.97930
C          2.90120       -0.37970       -0.06180
C          3.60940        0.11860       -1.15440
C          3.89750        1.46320       -1.23410
C          3.48190        2.33630       -0.23080
S          3.81550        4.05550       -0.46270
C          2.57730        4.85230        0.60440
C          2.83120        1.83420        0.88850
C          2.54740        0.48650        0.97000
C          0.16400       -0.97960       -0.14070
S          0.22430        0.46860       -1.08760
C         -1.51260        0.63740       -0.98930
C         -2.09890       -0.33570       -0.19130
N         -3.41610       -0.35640        0.23400
C         -4.10170        0.83450        0.49260
C         -5.45630        0.95880        0.19140
C         -6.10310        2.17260        0.32650
C         -5.41120        3.27940        0.79970
S         -6.10650        4.89690        0.93670
C         -7.89440        4.58940        0.95940
C         -4.07810        3.13990        1.17780
C         -3.42890        1.93680        1.02430
C         -4.01360       -1.60770        0.43290
C         -3.77100       -2.63890       -0.47040
C         -4.24340       -3.91400       -0.22930
C         -4.97400       -4.17400        0.92160
S         -5.55670       -5.77660        1.38150
C         -4.89130       -6.86900        0.09250
C         -5.27210       -3.12970        1.79630
C         -4.79920       -1.85900        1.55740
C         -1.13100       -1.26650        0.25180
S         -1.20110       -2.71840        1.17270
C         -2.23350        1.72270       -1.60360
C         -1.82780        3.05160       -1.55930
O         -0.54000        3.33830       -1.15030
C          0.39780        3.36630       -2.23450
C          0.46800        4.70640       -2.95140
C         -2.72450        4.11750       -1.86500
O         -2.45890        5.38970       -1.53660
C         -1.73580        5.70400       -0.35270
C         -2.47090        6.84810        0.33300
C         -3.97450        3.86470       -2.45350
C         -4.33820        2.50990       -2.63960
C         -3.48810        1.44620       -2.20270
N         -3.99880        0.24770       -2.47270
S         -5.43010        0.44810       -3.18170
N         -5.45830        2.05770       -3.19740
C         -4.94510        4.87070       -2.74500
C         -4.69890        6.13730       -3.16910
C         -3.41850        6.61440       -3.74740
O         -2.45080        5.95090       -4.05480
C         -3.61270        8.05130       -4.01700
C         -2.66390        8.94400       -4.50950
C         -3.12940       10.22710       -4.66600
C         -4.44910       10.59420       -4.36890
C         -5.39900        9.72120       -3.89650
C         -4.94310        8.41060       -3.72010
C         -5.65460        7.22700       -3.24520
C         -6.98330        7.17390       -2.91380
C         -7.87070        8.26900       -2.97910
N         -8.65320        9.10910       -3.00290
C         -7.68120        6.02790       -2.48320
N         -8.34920        5.15940       -2.13540
C         -4.21900       12.03460       -4.75240
C         -4.04240       13.06440       -3.60920
C         -3.50220       12.30160       -2.42510
C         -2.25270       11.95440       -2.70330
C         -1.92550       12.47590       -4.08060
C         -2.76100       13.76600       -4.08700
C         -2.74830       11.62610       -5.08090
H          3.21850       -7.60230        3.56840
H          8.03820       -3.99580        1.73020
H          8.66850       -8.68670        3.52760
H         11.66790       -7.03270        3.37440
H         11.54580       -8.79810        1.38580
H         13.90020       -7.63380        1.30060
H         13.58260       -5.20140        0.28050
H         11.03500       -4.86680       -0.26040
H         11.19360       -7.43880       -0.85870
H          9.76580       -7.20370        0.17640
H         11.39330       -4.64460        2.37540
H         -1.79650       -5.01750        1.91670
H         -2.46340       -7.76100        4.19170
H         -3.21320       -6.91450        2.83270
H         -1.56840       -9.49490        2.66480
H         -2.27800       -8.66640        1.27790
H         -3.32400       -9.37660        2.51310
H          5.10180       -1.70310        0.20700
H          6.62590       -3.49230       -0.40800
H          8.38830       -6.32040       -1.91620
H          8.08770       -5.29610       -0.49500
H          7.79140       -4.66220       -2.14860
H          3.32230       -5.86590       -1.72430
H          1.78250       -4.03560       -1.14990
H          3.90050       -0.54830       -1.95160
H          4.42200        1.85910       -2.09010
H          1.60450        4.40200        0.42800
H          2.86770        4.77240        1.64810
H          2.56610        5.89740        0.31070
H          2.53790        2.48300        1.69780
H          2.03020        0.09690        1.83460
H         -5.99630        0.10170       -0.18440
H         -7.13900        2.24990        0.03750
H         -8.34680        5.50950        1.31700
H         -8.10900        3.77720        1.64680
H         -8.24960        4.37710       -0.04580
H         -3.56250        3.99030        1.59680
H         -2.39290        1.84230        1.31410
H         -3.20440       -2.43190       -1.36550
H         -4.02920       -4.69170       -0.94410
H         -5.34210       -6.63210       -0.86690
H         -5.16970       -7.87490        0.39070
H         -3.80960       -6.78060        0.05500
H         -5.85970       -3.33630        2.67770
H         -5.01160       -1.05940        2.25110
H          1.36040        3.12430       -1.77780
H          0.14870        2.57290       -2.94930
H          0.82610        5.48200       -2.27860
H          1.16680        4.62170       -3.77930
H         -0.50350        4.99740       -3.34440
H         -1.67660        4.83360        0.30580
H         -0.72040        6.01050       -0.62470
H         -3.48020        6.54010        0.59820
H         -1.93850        7.14310        1.23290
H         -2.53610        7.70020       -0.33860
H         -5.96800        4.54150       -2.61620
H         -1.65970        8.61760       -4.73120
H         -6.41140       10.01850       -3.67970
H         -4.83540       12.41680       -5.56360
H         -4.91420       13.68550       -3.42260
H         -4.08490       12.05070       -1.55810
H         -1.58250       11.35530       -2.11480
H         -0.86950       12.56220       -4.32320
H         -2.85540       14.21690       -5.07390
H         -2.39680       14.50730       -3.37720
H         -2.40330       11.74340       -6.10640
