
  xtb     02082223003D
 energy: -339.208727094625 gnorm: 0.000437175807 xtb: 6.4.1 (unknown)
199221  0     0  0            999 V2000
   -0.5213   -3.6920   -9.5531 C   0  0  0  0  0  0  0  0  0  0  0  0
   -0.3568   -4.9419  -10.0635 C   0  0  0  0  0  0  0  0  0  0  0  0
    0.2583   -6.0884   -9.3522 C   0  0  0  0  0  0  0  0  0  0  0  0
    0.6923   -6.1151   -8.2183 O   0  0  0  0  0  0  0  0  0  0  0  0
    0.3789   -7.1649  -10.3520 C   0  0  0  0  0  0  0  0  0  0  0  0
    0.8857   -8.4469  -10.1435 C   0  0  0  0  0  0  0  0  0  0  0  0
    0.8945   -9.2370  -11.2669 C   0  0  0  0  0  0  0  0  0  0  0  0
    0.4367   -8.7861  -12.5124 C   0  0  0  0  0  0  0  0  0  0  0  0
   -0.0688   -7.5275  -12.7326 C   0  0  0  0  0  0  0  0  0  0  0  0
   -0.0888   -6.7063  -11.6001 C   0  0  0  0  0  0  0  0  0  0  0  0
   -0.5647   -5.3353  -11.4464 C   0  0  0  0  0  0  0  0  0  0  0  0
   -1.1735   -4.5850  -12.4171 C   0  0  0  0  0  0  0  0  0  0  0  0
   -1.7284   -3.3006  -12.2281 C   0  0  0  0  0  0  0  0  0  0  0  0
   -2.2288   -2.2691  -12.1634 N   0  0  0  0  0  0  0  0  0  0  0  0
   -1.3599   -5.0034  -13.7516 C   0  0  0  0  0  0  0  0  0  0  0  0
   -1.5368   -5.2727  -14.8536 N   0  0  0  0  0  0  0  0  0  0  0  0
    0.7471  -10.0971  -13.1907 C   0  0  0  0  0  0  0  0  0  0  0  0
    2.0238  -10.1402  -14.0570 C   0  0  0  0  0  0  0  0  0  0  0  0
    2.3233  -11.6162  -14.1858 C   0  0  0  0  0  0  0  0  0  0  0  0
    2.7540  -12.0451  -13.0063 C   0  0  0  0  0  0  0  0  0  0  0  0
    2.7533  -10.8658  -12.0605 C   0  0  0  0  0  0  0  0  0  0  0  0
    3.1027   -9.7399  -13.0423 C   0  0  0  0  0  0  0  0  0  0  0  0
    1.2549  -10.6007  -11.8014 C   0  0  0  0  0  0  0  0  0  0  0  0
   -0.4880   -3.3036   -8.1782 C   0  0  0  0  0  0  0  0  0  0  0  0
   -0.9459   -4.0673   -7.1069 C   0  0  0  0  0  0  0  0  0  0  0  0
   -1.5424   -5.2446   -7.3285 F   0  0  0  0  0  0  0  0  0  0  0  0
   -0.9351   -3.6077   -5.7872 C   0  0  0  0  0  0  0  0  0  0  0  0
   -1.4842   -4.4074   -4.8515 F   0  0  0  0  0  0  0  0  0  0  0  0
   -0.4798   -2.3458   -5.4144 C   0  0  0  0  0  0  0  0  0  0  0  0
   -0.0830   -1.5097   -6.4889 C   0  0  0  0  0  0  0  0  0  0  0  0
   -0.0793   -1.9839   -7.8431 C   0  0  0  0  0  0  0  0  0  0  0  0
    0.3577   -1.0578   -8.6909 N   0  0  0  0  0  0  0  0  0  0  0  0
    0.7151    0.2780   -7.8673 S   0  0  0  0  0  0  0  0  0  0  0  0
    0.3496   -0.2562   -6.3944 N   0  0  0  0  0  0  0  0  0  0  0  0
   -0.4517   -1.8846   -4.0627 C   0  0  0  0  0  0  0  0  0  0  0  0
   -0.1743   -2.6274   -2.9156 C   0  0  0  0  0  0  0  0  0  0  0  0
    0.3563   -3.8953   -2.9146 N   0  0  0  0  0  0  0  0  0  0  0  0
    0.0701   -4.7580   -1.8510 C   0  0  0  0  0  0  0  0  0  0  0  0
   -1.2106   -4.7839   -1.2959 C   0  0  0  0  0  0  0  0  0  0  0  0
   -1.4867   -5.6095   -0.2308 C   0  0  0  0  0  0  0  0  0  0  0  0
   -0.4960   -6.4341    0.3009 C   0  0  0  0  0  0  0  0  0  0  0  0
   -0.9685   -7.4403    1.6694 S   0  0  0  0  0  0  0  0  0  0  0  0
    0.5569   -8.3142    2.1227 C   0  0  0  0  0  0  0  0  0  0  0  0
    0.7738   -6.4255   -0.2621 C   0  0  0  0  0  0  0  0  0  0  0  0
    1.0534   -5.5921   -1.3267 C   0  0  0  0  0  0  0  0  0  0  0  0
    1.2587   -4.2814   -3.9210 C   0  0  0  0  0  0  0  0  0  0  0  0
    2.1965   -3.3737   -4.4156 C   0  0  0  0  0  0  0  0  0  0  0  0
    3.0612   -3.7500   -5.4165 C   0  0  0  0  0  0  0  0  0  0  0  0
    3.0213   -5.0424   -5.9403 C   0  0  0  0  0  0  0  0  0  0  0  0
    4.1892   -5.4068   -7.2055 S   0  0  0  0  0  0  0  0  0  0  0  0
    3.7026   -7.0600   -7.7692 C   0  0  0  0  0  0  0  0  0  0  0  0
    2.1048   -5.9543   -5.4344 C   0  0  0  0  0  0  0  0  0  0  0  0
    1.2278   -5.5722   -4.4384 C   0  0  0  0  0  0  0  0  0  0  0  0
   -0.3628   -1.8391   -1.7543 C   0  0  0  0  0  0  0  0  0  0  0  0
   -0.2103   -2.1373   -0.0558 S   0  0  0  0  0  0  0  0  0  0  0  0
   -0.5859   -0.4626    0.2783 C   0  0  0  0  0  0  0  0  0  0  0  0
   -0.8869    0.2626   -0.8610 C   0  0  0  0  0  0  0  0  0  0  0  0
   -1.3621    1.5688   -0.8590 N   0  0  0  0  0  0  0  0  0  0  0  0
   -2.2484    1.9637    0.1501 C   0  0  0  0  0  0  0  0  0  0  0  0
   -2.1510    3.2139    0.7544 C   0  0  0  0  0  0  0  0  0  0  0  0
   -2.9237    3.5391    1.8510 C   0  0  0  0  0  0  0  0  0  0  0  0
   -3.8292    2.6189    2.3588 C   0  0  0  0  0  0  0  0  0  0  0  0
   -4.7861    2.8858    3.8204 S   0  0  0  0  0  0  0  0  0  0  0  0
   -3.9421    4.2761    4.6237 C   0  0  0  0  0  0  0  0  0  0  0  0
   -4.0091    1.4077    1.6941 C   0  0  0  0  0  0  0  0  0  0  0  0
   -3.2298    1.0822    0.6075 C   0  0  0  0  0  0  0  0  0  0  0  0
   -0.7685    2.5073   -1.7140 C   0  0  0  0  0  0  0  0  0  0  0  0
    0.5887    2.4315   -2.0126 C   0  0  0  0  0  0  0  0  0  0  0  0
    1.1885    3.3804   -2.8169 C   0  0  0  0  0  0  0  0  0  0  0  0
    0.4378    4.4289   -3.3287 C   0  0  0  0  0  0  0  0  0  0  0  0
    1.1145    5.7313   -4.3105 S   0  0  0  0  0  0  0  0  0  0  0  0
    2.9024    5.5820   -4.0332 C   0  0  0  0  0  0  0  0  0  0  0  0
   -0.9293    4.4890   -3.0616 C   0  0  0  0  0  0  0  0  0  0  0  0
   -1.5288    3.5382   -2.2668 C   0  0  0  0  0  0  0  0  0  0  0  0
   -0.7254   -0.5275   -2.0235 C   0  0  0  0  0  0  0  0  0  0  0  0
   -0.8164   -0.2033   -3.7181 S   0  0  0  0  0  0  0  0  0  0  0  0
   -0.5541    0.1069    1.5975 C   0  0  0  0  0  0  0  0  0  0  0  0
    0.0922    1.2602    1.9204 C   0  0  0  0  0  0  0  0  0  0  0  0
   -0.1893    1.7229    3.2287 C   0  0  0  0  0  0  0  0  0  0  0  0
    0.3280    2.8571    3.8755 C   0  0  0  0  0  0  0  0  0  0  0  0
    1.4083    3.6724    3.2951 C   0  0  0  0  0  0  0  0  0  0  0  0
    2.5708    3.8621    4.0403 C   0  0  0  0  0  0  0  0  0  0  0  0
    3.6279    4.5811    3.5136 C   0  0  0  0  0  0  0  0  0  0  0  0
    3.5389    5.1216    2.2449 C   0  0  0  0  0  0  0  0  0  0  0  0
    2.3807    4.9417    1.4976 C   0  0  0  0  0  0  0  0  0  0  0  0
    2.3662    5.6190   -0.1430 S   0  0  0  0  0  0  0  0  0  0  0  0
    0.6479    6.1989   -0.3624 C   0  0  0  0  0  0  0  0  0  0  0  0
    0.2271    7.1801    0.7121 C   0  0  0  0  0  0  0  0  0  0  0  0
    1.3196    4.2170    2.0188 C   0  0  0  0  0  0  0  0  0  0  0  0
   -0.1573    3.1088    5.1474 C   0  0  0  0  0  0  0  0  0  0  0  0
   -1.0790    2.2642    5.8162 C   0  0  0  0  0  0  0  0  0  0  0  0
   -1.5336    1.0879    5.1966 C   0  0  0  0  0  0  0  0  0  0  0  0
   -2.4156    0.1480    5.8986 C   0  0  0  0  0  0  0  0  0  0  0  0
   -3.5927   -0.3018    5.3049 C   0  0  0  0  0  0  0  0  0  0  0  0
   -4.4112   -1.1828    5.9850 C   0  0  0  0  0  0  0  0  0  0  0  0
   -4.0738   -1.6338    7.2490 C   0  0  0  0  0  0  0  0  0  0  0  0
   -2.8905   -1.2059    7.8368 C   0  0  0  0  0  0  0  0  0  0  0  0
   -2.3636   -1.6854    9.4564 S   0  0  0  0  0  0  0  0  0  0  0  0
   -3.1840   -3.2934    9.7385 C   0  0  0  0  0  0  0  0  0  0  0  0
   -2.6949   -4.3606    8.7789 C   0  0  0  0  0  0  0  0  0  0  0  0
   -2.0671   -0.3130    7.1616 C   0  0  0  0  0  0  0  0  0  0  0  0
   -1.0916    0.8618    3.9032 C   0  0  0  0  0  0  0  0  0  0  0  0
   -1.5051   -0.5212    2.9242 S   0  0  0  0  0  0  0  0  0  0  0  0
   -1.4259    2.7677    7.0927 C   0  0  0  0  0  0  0  0  0  0  0  0
   -0.7635    3.9140    7.4319 C   0  0  0  0  0  0  0  0  0  0  0  0
    0.2568    4.4935    6.1212 S   0  0  0  0  0  0  0  0  0  0  0  0
   -0.8660    4.6134    8.6680 C   0  0  0  0  0  0  0  0  0  0  0  0
    0.0596    5.4118    9.2508 C   0  0  0  0  0  0  0  0  0  0  0  0
   -0.3354    6.3731   10.3194 C   0  0  0  0  0  0  0  0  0  0  0  0
   -1.3711    6.3742   10.9438 O   0  0  0  0  0  0  0  0  0  0  0  0
    0.7738    7.3425   10.3940 C   0  0  0  0  0  0  0  0  0  0  0  0
    0.8266    8.5046   11.1624 C   0  0  0  0  0  0  0  0  0  0  0  0
    1.9889    9.2222   11.0143 C   0  0  0  0  0  0  0  0  0  0  0  0
    3.0231    8.8261   10.1540 C   0  0  0  0  0  0  0  0  0  0  0  0
    2.9884    7.6830    9.3923 C   0  0  0  0  0  0  0  0  0  0  0  0
    1.8199    6.9303    9.5400 C   0  0  0  0  0  0  0  0  0  0  0  0
    1.4599    5.6454    8.9514 C   0  0  0  0  0  0  0  0  0  0  0  0
    2.3382    4.7211    8.4531 C   0  0  0  0  0  0  0  0  0  0  0  0
    3.7032    4.9711    8.2087 C   0  0  0  0  0  0  0  0  0  0  0  0
    4.8138    5.1206    7.9588 N   0  0  0  0  0  0  0  0  0  0  0  0
    1.9917    3.3748    8.2049 C   0  0  0  0  0  0  0  0  0  0  0  0
    1.7765    2.2576    8.0512 N   0  0  0  0  0  0  0  0  0  0  0  0
    3.8803   10.0155   10.5070 C   0  0  0  0  0  0  0  0  0  0  0  0
    5.0552    9.7506   11.4723 C   0  0  0  0  0  0  0  0  0  0  0  0
    5.4004   11.1217   12.0069 C   0  0  0  0  0  0  0  0  0  0  0  0
    4.4246   11.4929   12.8258 C   0  0  0  0  0  0  0  0  0  0  0  0
    3.4031   10.3789   12.8583 C   0  0  0  0  0  0  0  0  0  0  0  0
    4.3293    9.1673   12.6916 C   0  0  0  0  0  0  0  0  0  0  0  0
    2.7309   10.4536   11.4705 C   0  0  0  0  0  0  0  0  0  0  0  0
   -0.6620   -2.8606  -10.2325 H   0  0  0  0  0  0  0  0  0  0  0  0
    1.2194   -8.7639   -9.1676 H   0  0  0  0  0  0  0  0  0  0  0  0
   -0.4207   -7.1972  -13.6953 H   0  0  0  0  0  0  0  0  0  0  0  0
   -0.0979  -10.6039  -13.6524 H   0  0  0  0  0  0  0  0  0  0  0  0
    1.9668   -9.5696  -14.9797 H   0  0  0  0  0  0  0  0  0  0  0  0
    2.1440  -12.1892  -15.0765 H   0  0  0  0  0  0  0  0  0  0  0  0
    3.0060  -13.0478  -12.7147 H   0  0  0  0  0  0  0  0  0  0  0  0
    3.3619  -10.9571  -11.1646 H   0  0  0  0  0  0  0  0  0  0  0  0
    4.1077   -9.8445  -13.4477 H   0  0  0  0  0  0  0  0  0  0  0  0
    2.9776   -8.7389  -12.6333 H   0  0  0  0  0  0  0  0  0  0  0  0
    0.7471  -11.4433  -11.3357 H   0  0  0  0  0  0  0  0  0  0  0  0
   -1.9868   -4.1649   -1.7191 H   0  0  0  0  0  0  0  0  0  0  0  0
   -2.4752   -5.6321    0.2009 H   0  0  0  0  0  0  0  0  0  0  0  0
    0.2991   -8.9216    2.9847 H   0  0  0  0  0  0  0  0  0  0  0  0
    0.8781   -8.9534    1.3055 H   0  0  0  0  0  0  0  0  0  0  0  0
    1.3273   -7.5983    2.3937 H   0  0  0  0  0  0  0  0  0  0  0  0
    1.5594   -7.0551    0.1231 H   0  0  0  0  0  0  0  0  0  0  0  0
    2.0463   -5.5795   -1.7513 H   0  0  0  0  0  0  0  0  0  0  0  0
    2.2444   -2.3735   -4.0111 H   0  0  0  0  0  0  0  0  0  0  0  0
    3.7878   -3.0503   -5.8005 H   0  0  0  0  0  0  0  0  0  0  0  0
    3.9318   -7.7976   -7.0050 H   0  0  0  0  0  0  0  0  0  0  0  0
    2.6433   -7.0416   -8.0065 H   0  0  0  0  0  0  0  0  0  0  0  0
    4.2882   -7.2565   -8.6621 H   0  0  0  0  0  0  0  0  0  0  0  0
    2.0470   -6.9585   -5.8171 H   0  0  0  0  0  0  0  0  0  0  0  0
    0.5000   -6.2759   -4.0635 H   0  0  0  0  0  0  0  0  0  0  0  0
   -1.4506    3.9383    0.3689 H   0  0  0  0  0  0  0  0  0  0  0  0
   -2.7976    4.5075    2.3082 H   0  0  0  0  0  0  0  0  0  0  0  0
   -4.3520    4.3291    5.6275 H   0  0  0  0  0  0  0  0  0  0  0  0
   -2.8759    4.0752    4.6690 H   0  0  0  0  0  0  0  0  0  0  0  0
   -4.1479    5.2023    4.0943 H   0  0  0  0  0  0  0  0  0  0  0  0
   -4.7568    0.7160    2.0509 H   0  0  0  0  0  0  0  0  0  0  0  0
   -3.3590    0.1277    0.1200 H   0  0  0  0  0  0  0  0  0  0  0  0
    1.1840    1.6312   -1.5972 H   0  0  0  0  0  0  0  0  0  0  0  0
    2.2435    3.2997   -3.0200 H   0  0  0  0  0  0  0  0  0  0  0  0
    3.1020    5.5494   -2.9657 H   0  0  0  0  0  0  0  0  0  0  0  0
    3.3412    6.4751   -4.4670 H   0  0  0  0  0  0  0  0  0  0  0  0
    3.2895    4.7016   -4.5379 H   0  0  0  0  0  0  0  0  0  0  0  0
   -1.5112    5.2950   -3.4817 H   0  0  0  0  0  0  0  0  0  0  0  0
   -2.5864    3.5909   -2.0560 H   0  0  0  0  0  0  0  0  0  0  0  0
    0.7557    1.7634    1.2408 H   0  0  0  0  0  0  0  0  0  0  0  0
    2.6552    3.4185    5.0212 H   0  0  0  0  0  0  0  0  0  0  0  0
    4.5252    4.7198    4.0971 H   0  0  0  0  0  0  0  0  0  0  0  0
    4.3579    5.6822    1.8216 H   0  0  0  0  0  0  0  0  0  0  0  0
   -0.0069    5.3297   -0.4113 H   0  0  0  0  0  0  0  0  0  0  0  0
    0.6579    6.6724   -1.3439 H   0  0  0  0  0  0  0  0  0  0  0  0
   -0.7820    7.5342    0.5095 H   0  0  0  0  0  0  0  0  0  0  0  0
    0.2418    6.7123    1.6955 H   0  0  0  0  0  0  0  0  0  0  0  0
    0.9002    8.0343    0.7276 H   0  0  0  0  0  0  0  0  0  0  0  0
    0.4163    4.0748    1.4477 H   0  0  0  0  0  0  0  0  0  0  0  0
   -3.8774    0.0643    4.3317 H   0  0  0  0  0  0  0  0  0  0  0  0
   -5.3317   -1.5186    5.5312 H   0  0  0  0  0  0  0  0  0  0  0  0
   -4.7395   -2.3070    7.7655 H   0  0  0  0  0  0  0  0  0  0  0  0
   -4.2629   -3.1512    9.6852 H   0  0  0  0  0  0  0  0  0  0  0  0
   -2.9175   -3.5396   10.7663 H   0  0  0  0  0  0  0  0  0  0  0  0
   -2.9231   -4.0919    7.7493 H   0  0  0  0  0  0  0  0  0  0  0  0
   -1.6181   -4.4826    8.8708 H   0  0  0  0  0  0  0  0  0  0  0  0
   -3.1749   -5.3107    9.0055 H   0  0  0  0  0  0  0  0  0  0  0  0
   -1.1408    0.0008    7.6195 H   0  0  0  0  0  0  0  0  0  0  0  0
   -2.1130    2.2753    7.7571 H   0  0  0  0  0  0  0  0  0  0  0  0
   -1.8187    4.5352    9.1824 H   0  0  0  0  0  0  0  0  0  0  0  0
    0.0069    8.7801   11.8072 H   0  0  0  0  0  0  0  0  0  0  0  0
    3.7830    7.3894    8.7259 H   0  0  0  0  0  0  0  0  0  0  0  0
    4.1466   10.6717    9.6807 H   0  0  0  0  0  0  0  0  0  0  0  0
    5.8696    9.1699   11.0482 H   0  0  0  0  0  0  0  0  0  0  0  0
    6.2629   11.6848   11.7022 H   0  0  0  0  0  0  0  0  0  0  0  0
    4.3089   12.4280   13.3418 H   0  0  0  0  0  0  0  0  0  0  0  0
    2.7138   10.3713   13.6983 H   0  0  0  0  0  0  0  0  0  0  0  0
    4.9949    9.0384   13.5434 H   0  0  0  0  0  0  0  0  0  0  0  0
    3.8080    8.2327   12.4931 H   0  0  0  0  0  0  0  0  0  0  0  0
    2.2321   11.4040   11.2902 H   0  0  0  0  0  0  0  0  0  0  0  0
  1  2  2  0  0  0  0
  2  3  1  0  0  0  0
  3  4  2  0  0  0  0
  3  5  1  0  0  0  0
  5  6  2  0  0  0  0
  6  7  1  0  0  0  0
  7  8  2  0  0  0  0
  8  9  1  0  0  0  0
  9 10  2  0  0  0  0
 10 11  1  0  0  0  0
 11 12  2  0  0  0  0
 12 13  1  0  0  0  0
 13 14  3  0  0  0  0
 12 15  1  0  0  0  0
 15 16  3  0  0  0  0
  8 17  1  0  0  0  0
 17 18  1  0  0  0  0
 18 19  1  0  0  0  0
 19 20  2  0  0  0  0
 20 21  1  0  0  0  0
 21 22  1  0  0  0  0
 21 23  1  0  0  0  0
  1 24  1  0  0  0  0
 24 25  2  0  0  0  0
 25 26  1  0  0  0  0
 25 27  1  0  0  0  0
 27 28  1  0  0  0  0
 27 29  2  0  0  0  0
 29 30  1  0  0  0  0
 30 31  1  0  0  0  0
 31 32  2  0  0  0  0
 32 33  1  0  0  0  0
 33 34  1  0  0  0  0
 29 35  1  0  0  0  0
 35 36  2  0  0  0  0
 36 37  1  0  0  0  0
 37 38  1  0  0  0  0
 38 39  2  0  0  0  0
 39 40  1  0  0  0  0
 40 41  2  0  0  0  0
 41 42  1  0  0  0  0
 42 43  1  0  0  0  0
 41 44  1  0  0  0  0
 44 45  2  0  0  0  0
 37 46  1  0  0  0  0
 46 47  2  0  0  0  0
 47 48  1  0  0  0  0
 48 49  2  0  0  0  0
 49 50  1  0  0  0  0
 50 51  1  0  0  0  0
 49 52  1  0  0  0  0
 52 53  2  0  0  0  0
 36 54  1  0  0  0  0
 54 55  1  0  0  0  0
 55 56  1  0  0  0  0
 56 57  2  0  0  0  0
 57 58  1  0  0  0  0
 58 59  1  0  0  0  0
 59 60  2  0  0  0  0
 60 61  1  0  0  0  0
 61 62  2  0  0  0  0
 62 63  1  0  0  0  0
 63 64  1  0  0  0  0
 62 65  1  0  0  0  0
 65 66  2  0  0  0  0
 58 67  1  0  0  0  0
 67 68  2  0  0  0  0
 68 69  1  0  0  0  0
 69 70  2  0  0  0  0
 70 71  1  0  0  0  0
 71 72  1  0  0  0  0
 70 73  1  0  0  0  0
 73 74  2  0  0  0  0
 57 75  1  0  0  0  0
 75 76  1  0  0  0  0
 56 77  1  0  0  0  0
 77 78  2  0  0  0  0
 78 79  1  0  0  0  0
 79 80  2  0  0  0  0
 80 81  1  0  0  0  0
 81 82  2  0  0  0  0
 82 83  1  0  0  0  0
 83 84  2  0  0  0  0
 84 85  1  0  0  0  0
 85 86  1  0  0  0  0
 86 87  1  0  0  0  0
 87 88  1  0  0  0  0
 85 89  2  0  0  0  0
 80 90  1  0  0  0  0
 90 91  2  0  0  0  0
 91 92  1  0  0  0  0
 92 93  1  0  0  0  0
 93 94  2  0  0  0  0
 94 95  1  0  0  0  0
 95 96  2  0  0  0  0
 96 97  1  0  0  0  0
 97 98  1  0  0  0  0
 98 99  1  0  0  0  0
 99100  1  0  0  0  0
 97101  2  0  0  0  0
 92102  2  0  0  0  0
102103  1  0  0  0  0
 91104  1  0  0  0  0
104105  2  0  0  0  0
105106  1  0  0  0  0
105107  1  0  0  0  0
107108  2  0  0  0  0
108109  1  0  0  0  0
109110  2  0  0  0  0
109111  1  0  0  0  0
111112  2  0  0  0  0
112113  1  0  0  0  0
113114  2  0  0  0  0
114115  1  0  0  0  0
115116  2  0  0  0  0
116117  1  0  0  0  0
117118  2  0  0  0  0
118119  1  0  0  0  0
119120  3  0  0  0  0
118121  1  0  0  0  0
121122  3  0  0  0  0
114123  1  0  0  0  0
123124  1  0  0  0  0
124125  1  0  0  0  0
125126  2  0  0  0  0
126127  1  0  0  0  0
127128  1  0  0  0  0
127129  1  0  0  0  0
 11  2  1  0  0  0  0
 23 17  1  0  0  0  0
 31 24  1  0  0  0  0
 76 35  1  0  0  0  0
103 77  1  0  0  0  0
117108  1  0  0  0  0
129123  1  0  0  0  0
 10  5  1  0  0  0  0
 22 18  1  0  0  0  0
 34 30  2  0  0  0  0
 45 38  1  0  0  0  0
 53 46  1  0  0  0  0
 75 54  2  0  0  0  0
102 79  1  0  0  0  0
116111  1  0  0  0  0
128124  1  0  0  0  0
 23  7  1  0  0  0  0
 66 59  1  0  0  0  0
 74 67  1  0  0  0  0
 89 81  1  0  0  0  0
106 90  1  0  0  0  0
129113  1  0  0  0  0
101 93  1  0  0  0  0
  1130  1  0  0  0  0
  6131  1  0  0  0  0
  9132  1  0  0  0  0
 17133  1  0  0  0  0
 18134  1  0  0  0  0
 19135  1  0  0  0  0
 20136  1  0  0  0  0
 21137  1  0  0  0  0
 22138  1  0  0  0  0
 22139  1  0  0  0  0
 23140  1  0  0  0  0
 39141  1  0  0  0  0
 40142  1  0  0  0  0
 43143  1  0  0  0  0
 43144  1  0  0  0  0
 43145  1  0  0  0  0
 44146  1  0  0  0  0
 45147  1  0  0  0  0
 47148  1  0  0  0  0
 48149  1  0  0  0  0
 51150  1  0  0  0  0
 51151  1  0  0  0  0
 51152  1  0  0  0  0
 52153  1  0  0  0  0
 53154  1  0  0  0  0
 60155  1  0  0  0  0
 61156  1  0  0  0  0
 64157  1  0  0  0  0
 64158  1  0  0  0  0
 64159  1  0  0  0  0
 65160  1  0  0  0  0
 66161  1  0  0  0  0
 68162  1  0  0  0  0
 69163  1  0  0  0  0
 72164  1  0  0  0  0
 72165  1  0  0  0  0
 72166  1  0  0  0  0
 73167  1  0  0  0  0
 74168  1  0  0  0  0
 78169  1  0  0  0  0
 82170  1  0  0  0  0
 83171  1  0  0  0  0
 84172  1  0  0  0  0
 87173  1  0  0  0  0
 87174  1  0  0  0  0
 88175  1  0  0  0  0
 88176  1  0  0  0  0
 88177  1  0  0  0  0
 89178  1  0  0  0  0
 94179  1  0  0  0  0
 95180  1  0  0  0  0
 96181  1  0  0  0  0
 99182  1  0  0  0  0
 99183  1  0  0  0  0
100184  1  0  0  0  0
100185  1  0  0  0  0
100186  1  0  0  0  0
101187  1  0  0  0  0
104188  1  0  0  0  0
107189  1  0  0  0  0
112190  1  0  0  0  0
115191  1  0  0  0  0
123192  1  0  0  0  0
124193  1  0  0  0  0
125194  1  0  0  0  0
126195  1  0  0  0  0
127196  1  0  0  0  0
128197  1  0  0  0  0
128198  1  0  0  0  0
129199  1  0  0  0  0
M  END
