
  xtb     02052218413D
 energy: -309.832241026009 gnorm: 0.000300254806 xtb: 6.4.1 (unknown)
192213  0     0  0            999 V2000
   -0.6106    5.1186    9.0075 C   0  0  0  0  0  0  0  0  0  0  0  0
   -1.9556    5.1630    9.2894 C   0  0  0  0  0  0  0  0  0  0  0  0
   -3.0171    4.5400    8.4957 C   0  0  0  0  0  0  0  0  0  0  0  0
   -2.8937    3.8388    7.5048 O   0  0  0  0  0  0  0  0  0  0  0  0
   -4.2908    4.9289    9.1237 C   0  0  0  0  0  0  0  0  0  0  0  0
   -5.5720    4.5905    8.6954 C   0  0  0  0  0  0  0  0  0  0  0  0
   -6.5762    5.1190    9.4704 C   0  0  0  0  0  0  0  0  0  0  0  0
   -6.3234    5.9232   10.5889 C   0  0  0  0  0  0  0  0  0  0  0  0
   -5.0627    6.2561   11.0266 C   0  0  0  0  0  0  0  0  0  0  0  0
   -4.0248    5.7297   10.2517 C   0  0  0  0  0  0  0  0  0  0  0  0
   -2.5740    5.8679   10.3924 C   0  0  0  0  0  0  0  0  0  0  0  0
   -1.9412    6.5401   11.4086 C   0  0  0  0  0  0  0  0  0  0  0  0
   -2.6029    7.2024   12.4629 C   0  0  0  0  0  0  0  0  0  0  0  0
   -3.0666    7.7644   13.3509 N   0  0  0  0  0  0  0  0  0  0  0  0
   -0.5467    6.6670   11.5716 C   0  0  0  0  0  0  0  0  0  0  0  0
    0.5723    6.8203   11.7850 N   0  0  0  0  0  0  0  0  0  0  0  0
   -7.7912    6.1204   10.8783 C   0  0  0  0  0  0  0  0  0  0  0  0
   -8.3995    7.4769   10.4632 C   0  0  0  0  0  0  0  0  0  0  0  0
   -9.8864    7.2078   10.4182 C   0  0  0  0  0  0  0  0  0  0  0  0
  -10.1264    6.4428    9.3609 C   0  0  0  0  0  0  0  0  0  0  0  0
   -8.8056    6.1820    8.6734 C   0  0  0  0  0  0  0  0  0  0  0  0
   -8.0923    7.5096    8.9603 C   0  0  0  0  0  0  0  0  0  0  0  0
   -8.0725    5.2204    9.6326 C   0  0  0  0  0  0  0  0  0  0  0  0
    0.0760    4.5068    7.9542 C   0  0  0  0  0  0  0  0  0  0  0  0
   -0.6332    3.5393    6.6653 S   0  0  0  0  0  0  0  0  0  0  0  0
    0.9141    3.3515    5.9668 C   0  0  0  0  0  0  0  0  0  0  0  0
    1.4778    2.7526    4.8236 C   0  0  0  0  0  0  0  0  0  0  0  0
    2.8498    3.0036    4.7804 C   0  0  0  0  0  0  0  0  0  0  0  0
    3.2779    3.8019    5.9909 C   0  0  0  0  0  0  0  0  0  0  0  0
    3.9123    5.1428    5.5889 C   0  0  0  0  0  0  0  0  0  0  0  0
    2.9401    6.0483    4.8435 C   0  0  0  0  0  0  0  0  0  0  0  0
    4.1931    2.9909    6.9324 C   0  0  0  0  0  0  0  0  0  0  0  0
    5.5301    2.5788    6.3314 C   0  0  0  0  0  0  0  0  0  0  0  0
    1.9415    3.9962    6.6768 C   0  0  0  0  0  0  0  0  0  0  0  0
    1.4681    4.6333    7.7980 C   0  0  0  0  0  0  0  0  0  0  0  0
    3.4550    2.4835    3.6410 C   0  0  0  0  0  0  0  0  0  0  0  0
    2.5526    1.8236    2.8217 C   0  0  0  0  0  0  0  0  0  0  0  0
    0.9253    1.8523    3.4733 S   0  0  0  0  0  0  0  0  0  0  0  0
    2.7609    1.1370    1.5940 C   0  0  0  0  0  0  0  0  0  0  0  0
    3.7756    1.2501    0.6507 C   0  0  0  0  0  0  0  0  0  0  0  0
    4.8489    2.1277    0.6945 N   0  0  0  0  0  0  0  0  0  0  0  0
    6.0730    1.6714    0.1776 C   0  0  0  0  0  0  0  0  0  0  0  0
    6.5105    0.3847    0.4783 C   0  0  0  0  0  0  0  0  0  0  0  0
    7.6974   -0.0988   -0.0374 C   0  0  0  0  0  0  0  0  0  0  0  0
    8.4743    0.7054   -0.8593 C   0  0  0  0  0  0  0  0  0  0  0  0
   10.0091    0.2102   -1.5744 S   0  0  0  0  0  0  0  0  0  0  0  0
   10.2327   -1.4970   -0.9989 C   0  0  0  0  0  0  0  0  0  0  0  0
    8.0419    1.9970   -1.1586 C   0  0  0  0  0  0  0  0  0  0  0  0
    6.8552    2.4748   -0.6526 C   0  0  0  0  0  0  0  0  0  0  0  0
    4.6819    3.4755    1.0272 C   0  0  0  0  0  0  0  0  0  0  0  0
    5.7392    4.1877    1.5995 C   0  0  0  0  0  0  0  0  0  0  0  0
    5.5960    5.5212    1.9052 C   0  0  0  0  0  0  0  0  0  0  0  0
    4.3928    6.1802    1.6577 C   0  0  0  0  0  0  0  0  0  0  0  0
    4.3458    7.8995    2.0562 S   0  0  0  0  0  0  0  0  0  0  0  0
    2.6412    8.3934    1.6786 C   0  0  0  0  0  0  0  0  0  0  0  0
    3.3306    5.4709    1.1155 C   0  0  0  0  0  0  0  0  0  0  0  0
    3.4761    4.1330    0.8030 C   0  0  0  0  0  0  0  0  0  0  0  0
    3.5619    0.3560   -0.4291 C   0  0  0  0  0  0  0  0  0  0  0  0
    4.3657    0.0755   -1.9378 S   0  0  0  0  0  0  0  0  0  0  0  0
    3.1323   -1.0890   -2.3981 C   0  0  0  0  0  0  0  0  0  0  0  0
    2.1351   -1.2145   -1.4465 C   0  0  0  0  0  0  0  0  0  0  0  0
    0.9806   -1.9754   -1.5701 N   0  0  0  0  0  0  0  0  0  0  0  0
    0.2646   -2.0220   -2.7711 C   0  0  0  0  0  0  0  0  0  0  0  0
   -0.4592   -3.1648   -3.1155 C   0  0  0  0  0  0  0  0  0  0  0  0
   -1.1387   -3.2247   -4.3116 C   0  0  0  0  0  0  0  0  0  0  0  0
   -1.0828   -2.1655   -5.2165 C   0  0  0  0  0  0  0  0  0  0  0  0
   -1.8889   -2.4162   -6.7708 S   0  0  0  0  0  0  0  0  0  0  0  0
   -1.8636   -0.7742   -7.5448 C   0  0  0  0  0  0  0  0  0  0  0  0
   -0.3931   -1.0146   -4.8655 C   0  0  0  0  0  0  0  0  0  0  0  0
    0.2528   -0.9383   -3.6459 C   0  0  0  0  0  0  0  0  0  0  0  0
    0.4812   -2.5916   -0.4124 C   0  0  0  0  0  0  0  0  0  0  0  0
    1.3580   -3.1808    0.4941 C   0  0  0  0  0  0  0  0  0  0  0  0
    0.8903   -3.7670    1.6545 C   0  0  0  0  0  0  0  0  0  0  0  0
   -0.4706   -3.7804    1.9241 C   0  0  0  0  0  0  0  0  0  0  0  0
   -1.1932   -4.5033    3.3624 S   0  0  0  0  0  0  0  0  0  0  0  0
    0.2340   -5.0406    4.3474 C   0  0  0  0  0  0  0  0  0  0  0  0
   -1.3532   -3.1980    1.0149 C   0  0  0  0  0  0  0  0  0  0  0  0
   -0.8864   -2.6069   -0.1361 C   0  0  0  0  0  0  0  0  0  0  0  0
    2.4081   -0.4003   -0.3217 C   0  0  0  0  0  0  0  0  0  0  0  0
    1.5404   -0.0445    1.1255 S   0  0  0  0  0  0  0  0  0  0  0  0
    3.1193   -1.7315   -3.6810 C   0  0  0  0  0  0  0  0  0  0  0  0
    3.0697   -0.7756   -5.1475 S   0  0  0  0  0  0  0  0  0  0  0  0
    2.6621   -2.1819   -6.0393 C   0  0  0  0  0  0  0  0  0  0  0  0
    2.1558   -2.4748   -7.3241 C   0  0  0  0  0  0  0  0  0  0  0  0
    1.8477   -3.8377   -7.3842 C   0  0  0  0  0  0  0  0  0  0  0  0
    2.3033   -4.5407   -6.1245 C   0  0  0  0  0  0  0  0  0  0  0  0
    1.1665   -5.4249   -5.5940 C   0  0  0  0  0  0  0  0  0  0  0  0
    1.4663   -6.1883   -4.3115 C   0  0  0  0  0  0  0  0  0  0  0  0
    3.6164   -5.3146   -6.3878 C   0  0  0  0  0  0  0  0  0  0  0  0
    3.4690   -6.4709   -7.3675 C   0  0  0  0  0  0  0  0  0  0  0  0
    2.6462   -3.3406   -5.2648 C   0  0  0  0  0  0  0  0  0  0  0  0
    2.9101   -3.0720   -3.9226 C   0  0  0  0  0  0  0  0  0  0  0  0
    1.0673   -4.1654   -8.4791 C   0  0  0  0  0  0  0  0  0  0  0  0
    0.7606   -3.0616   -9.2638 C   0  0  0  0  0  0  0  0  0  0  0  0
    1.5758   -1.6051   -8.6742 S   0  0  0  0  0  0  0  0  0  0  0  0
   -0.1711   -2.8683  -10.3013 C   0  0  0  0  0  0  0  0  0  0  0  0
   -1.3142   -3.5719  -10.5610 C   0  0  0  0  0  0  0  0  0  0  0  0
   -1.9133   -4.6596   -9.7510 C   0  0  0  0  0  0  0  0  0  0  0  0
   -1.3690   -5.4384   -8.9974 O   0  0  0  0  0  0  0  0  0  0  0  0
   -3.3560   -4.6267  -10.0626 C   0  0  0  0  0  0  0  0  0  0  0  0
   -4.3626   -5.3430   -9.4210 C   0  0  0  0  0  0  0  0  0  0  0  0
   -5.6228   -5.0949   -9.9092 C   0  0  0  0  0  0  0  0  0  0  0  0
   -5.8665   -4.1999  -10.9599 C   0  0  0  0  0  0  0  0  0  0  0  0
   -4.8818   -3.4899  -11.6049 C   0  0  0  0  0  0  0  0  0  0  0  0
   -3.5920   -3.7293  -11.1224 C   0  0  0  0  0  0  0  0  0  0  0  0
   -2.3150   -3.1493  -11.5247 C   0  0  0  0  0  0  0  0  0  0  0  0
   -2.0908   -2.3897  -12.6426 C   0  0  0  0  0  0  0  0  0  0  0  0
   -3.0906   -2.0233  -13.5662 C   0  0  0  0  0  0  0  0  0  0  0  0
   -3.8599   -1.6880  -14.3501 N   0  0  0  0  0  0  0  0  0  0  0  0
   -0.8222   -1.9237  -13.0485 C   0  0  0  0  0  0  0  0  0  0  0  0
    0.1794   -1.5276  -13.4471 N   0  0  0  0  0  0  0  0  0  0  0  0
   -7.3552   -4.4394  -10.9242 C   0  0  0  0  0  0  0  0  0  0  0  0
   -7.9667   -5.3487  -12.0183 C   0  0  0  0  0  0  0  0  0  0  0  0
   -6.8689   -6.2842  -12.4603 C   0  0  0  0  0  0  0  0  0  0  0  0
   -6.6370   -7.1334  -11.4682 C   0  0  0  0  0  0  0  0  0  0  0  0
   -7.5740   -6.7874  -10.3374 C   0  0  0  0  0  0  0  0  0  0  0  0
   -8.7929   -6.2979  -11.1356 C   0  0  0  0  0  0  0  0  0  0  0  0
   -7.0831   -5.4386   -9.7558 C   0  0  0  0  0  0  0  0  0  0  0  0
    0.0444    5.6558    9.6828 H   0  0  0  0  0  0  0  0  0  0  0  0
   -5.7192    3.9674    7.8271 H   0  0  0  0  0  0  0  0  0  0  0  0
   -4.8884    6.8727   11.8922 H   0  0  0  0  0  0  0  0  0  0  0  0
   -8.1332    5.7818   11.8544 H   0  0  0  0  0  0  0  0  0  0  0  0
   -8.0731    8.3239   11.0602 H   0  0  0  0  0  0  0  0  0  0  0  0
  -10.5799    7.5439   11.1666 H   0  0  0  0  0  0  0  0  0  0  0  0
  -11.0601    6.0121    9.0497 H   0  0  0  0  0  0  0  0  0  0  0  0
   -8.8492    5.8494    7.6397 H   0  0  0  0  0  0  0  0  0  0  0  0
   -8.5710    8.3504    8.4607 H   0  0  0  0  0  0  0  0  0  0  0  0
   -7.0299    7.5026    8.7240 H   0  0  0  0  0  0  0  0  0  0  0  0
   -8.6003    4.2797    9.7785 H   0  0  0  0  0  0  0  0  0  0  0  0
    4.2611    5.6489    6.4910 H   0  0  0  0  0  0  0  0  0  0  0  0
    4.7728    4.9488    4.9471 H   0  0  0  0  0  0  0  0  0  0  0  0
    3.4419    6.9703    4.5621 H   0  0  0  0  0  0  0  0  0  0  0  0
    2.5822    5.5564    3.9410 H   0  0  0  0  0  0  0  0  0  0  0  0
    2.0835    6.2971    5.4657 H   0  0  0  0  0  0  0  0  0  0  0  0
    4.3683    3.5938    7.8258 H   0  0  0  0  0  0  0  0  0  0  0  0
    3.6502    2.0934    7.2398 H   0  0  0  0  0  0  0  0  0  0  0  0
    6.1086    3.4453    6.0235 H   0  0  0  0  0  0  0  0  0  0  0  0
    5.3842    1.9297    5.4725 H   0  0  0  0  0  0  0  0  0  0  0  0
    6.1073    2.0330    7.0745 H   0  0  0  0  0  0  0  0  0  0  0  0
    2.0632    5.1937    8.4976 H   0  0  0  0  0  0  0  0  0  0  0  0
    4.5000    2.5602    3.4085 H   0  0  0  0  0  0  0  0  0  0  0  0
    5.9133   -0.2432    1.1239 H   0  0  0  0  0  0  0  0  0  0  0  0
    8.0034   -1.1009    0.2157 H   0  0  0  0  0  0  0  0  0  0  0  0
   10.3017   -1.5191    0.0848 H   0  0  0  0  0  0  0  0  0  0  0  0
    9.4186   -2.1199   -1.3580 H   0  0  0  0  0  0  0  0  0  0  0  0
   11.1703   -1.8299   -1.4333 H   0  0  0  0  0  0  0  0  0  0  0  0
    8.6464    2.6148   -1.8044 H   0  0  0  0  0  0  0  0  0  0  0  0
    6.5213    3.4700   -0.9039 H   0  0  0  0  0  0  0  0  0  0  0  0
    6.6752    3.6860    1.7970 H   0  0  0  0  0  0  0  0  0  0  0  0
    6.4157    6.0722    2.3401 H   0  0  0  0  0  0  0  0  0  0  0  0
    2.5781    9.4448    1.9414 H   0  0  0  0  0  0  0  0  0  0  0  0
    2.4432    8.2676    0.6182 H   0  0  0  0  0  0  0  0  0  0  0  0
    1.9460    7.8196    2.2846 H   0  0  0  0  0  0  0  0  0  0  0  0
    2.3846    5.9482    0.9167 H   0  0  0  0  0  0  0  0  0  0  0  0
    2.6473    3.5996    0.3624 H   0  0  0  0  0  0  0  0  0  0  0  0
   -0.4853   -4.0059   -2.4395 H   0  0  0  0  0  0  0  0  0  0  0  0
   -1.7178   -4.0996   -4.5658 H   0  0  0  0  0  0  0  0  0  0  0  0
   -2.4275   -0.8783   -8.4671 H   0  0  0  0  0  0  0  0  0  0  0  0
   -0.8431   -0.4777   -7.7707 H   0  0  0  0  0  0  0  0  0  0  0  0
   -2.3496   -0.0538   -6.8937 H   0  0  0  0  0  0  0  0  0  0  0  0
   -0.3510   -0.1653   -5.5282 H   0  0  0  0  0  0  0  0  0  0  0  0
    0.7604   -0.0249   -3.3733 H   0  0  0  0  0  0  0  0  0  0  0  0
    2.4188   -3.1803    0.2872 H   0  0  0  0  0  0  0  0  0  0  0  0
    1.5993   -4.2130    2.3330 H   0  0  0  0  0  0  0  0  0  0  0  0
    0.8689   -4.1888    4.5732 H   0  0  0  0  0  0  0  0  0  0  0  0
    0.7822   -5.8163    3.8204 H   0  0  0  0  0  0  0  0  0  0  0  0
   -0.1813   -5.4444    5.2655 H   0  0  0  0  0  0  0  0  0  0  0  0
   -2.4099   -3.2061    1.2332 H   0  0  0  0  0  0  0  0  0  0  0  0
   -1.5755   -2.1438   -0.8259 H   0  0  0  0  0  0  0  0  0  0  0  0
    0.8987   -6.1313   -6.3801 H   0  0  0  0  0  0  0  0  0  0  0  0
    0.3021   -4.7803   -5.4320 H   0  0  0  0  0  0  0  0  0  0  0  0
    2.3224   -6.8475   -4.4285 H   0  0  0  0  0  0  0  0  0  0  0  0
    0.6048   -6.7984   -4.0491 H   0  0  0  0  0  0  0  0  0  0  0  0
    1.6572   -5.5079   -3.4870 H   0  0  0  0  0  0  0  0  0  0  0  0
    3.9995   -5.6815   -5.4343 H   0  0  0  0  0  0  0  0  0  0  0  0
    4.3477   -4.6042   -6.7828 H   0  0  0  0  0  0  0  0  0  0  0  0
    4.4432   -6.9199   -7.5484 H   0  0  0  0  0  0  0  0  0  0  0  0
    3.0723   -6.1218   -8.3172 H   0  0  0  0  0  0  0  0  0  0  0  0
    2.8095   -7.2403   -6.9763 H   0  0  0  0  0  0  0  0  0  0  0  0
    2.9363   -3.7971   -3.1301 H   0  0  0  0  0  0  0  0  0  0  0  0
    0.6830   -5.1426   -8.6983 H   0  0  0  0  0  0  0  0  0  0  0  0
   -0.0277   -1.9487  -10.8589 H   0  0  0  0  0  0  0  0  0  0  0  0
   -4.1323   -6.0166   -8.6106 H   0  0  0  0  0  0  0  0  0  0  0  0
   -5.0826   -2.7969  -12.4052 H   0  0  0  0  0  0  0  0  0  0  0  0
   -7.9730   -3.5680  -10.7158 H   0  0  0  0  0  0  0  0  0  0  0  0
   -8.4898   -4.8156  -12.8076 H   0  0  0  0  0  0  0  0  0  0  0  0
   -6.3500   -6.1974  -13.3968 H   0  0  0  0  0  0  0  0  0  0  0  0
   -5.8851   -7.8984  -11.4100 H   0  0  0  0  0  0  0  0  0  0  0  0
   -7.7403   -7.5649   -9.5962 H   0  0  0  0  0  0  0  0  0  0  0  0
   -9.2710   -7.0935  -11.7049 H   0  0  0  0  0  0  0  0  0  0  0  0
   -9.5349   -5.7861  -10.5240 H   0  0  0  0  0  0  0  0  0  0  0  0
   -7.5245   -5.2203   -8.7851 H   0  0  0  0  0  0  0  0  0  0  0  0
  1  2  2  0  0  0  0
  2  3  1  0  0  0  0
  3  4  2  0  0  0  0
  3  5  1  0  0  0  0
  5  6  2  0  0  0  0
  6  7  1  0  0  0  0
  7  8  2  0  0  0  0
  8  9  1  0  0  0  0
  9 10  2  0  0  0  0
 10 11  1  0  0  0  0
 11 12  2  0  0  0  0
 12 13  1  0  0  0  0
 13 14  3  0  0  0  0
 12 15  1  0  0  0  0
 15 16  3  0  0  0  0
  8 17  1  0  0  0  0
 17 18  1  0  0  0  0
 18 19  1  0  0  0  0
 19 20  2  0  0  0  0
 20 21  1  0  0  0  0
 21 22  1  0  0  0  0
 21 23  1  0  0  0  0
  1 24  1  0  0  0  0
 24 25  1  0  0  0  0
 25 26  1  0  0  0  0
 26 27  1  0  0  0  0
 27 28  2  0  0  0  0
 28 29  1  0  0  0  0
 29 30  1  0  0  0  0
 30 31  1  0  0  0  0
 29 32  1  0  0  0  0
 32 33  1  0  0  0  0
 29 34  1  0  0  0  0
 34 35  1  0  0  0  0
 28 36  1  0  0  0  0
 36 37  2  0  0  0  0
 37 38  1  0  0  0  0
 37 39  1  0  0  0  0
 39 40  2  0  0  0  0
 40 41  1  0  0  0  0
 41 42  1  0  0  0  0
 42 43  2  0  0  0  0
 43 44  1  0  0  0  0
 44 45  2  0  0  0  0
 45 46  1  0  0  0  0
 46 47  1  0  0  0  0
 45 48  1  0  0  0  0
 48 49  2  0  0  0  0
 41 50  1  0  0  0  0
 50 51  2  0  0  0  0
 51 52  1  0  0  0  0
 52 53  2  0  0  0  0
 53 54  1  0  0  0  0
 54 55  1  0  0  0  0
 53 56  1  0  0  0  0
 56 57  2  0  0  0  0
 40 58  1  0  0  0  0
 58 59  1  0  0  0  0
 59 60  1  0  0  0  0
 60 61  2  0  0  0  0
 61 62  1  0  0  0  0
 62 63  1  0  0  0  0
 63 64  2  0  0  0  0
 64 65  1  0  0  0  0
 65 66  2  0  0  0  0
 66 67  1  0  0  0  0
 67 68  1  0  0  0  0
 66 69  1  0  0  0  0
 69 70  2  0  0  0  0
 62 71  1  0  0  0  0
 71 72  2  0  0  0  0
 72 73  1  0  0  0  0
 73 74  2  0  0  0  0
 74 75  1  0  0  0  0
 75 76  1  0  0  0  0
 74 77  1  0  0  0  0
 77 78  2  0  0  0  0
 61 79  1  0  0  0  0
 79 80  1  0  0  0  0
 60 81  1  0  0  0  0
 81 82  1  0  0  0  0
 82 83  1  0  0  0  0
 83 84  1  0  0  0  0
 84 85  2  0  0  0  0
 85 86  1  0  0  0  0
 86 87  1  0  0  0  0
 87 88  1  0  0  0  0
 86 89  1  0  0  0  0
 89 90  1  0  0  0  0
 86 91  1  0  0  0  0
 91 92  1  0  0  0  0
 85 93  1  0  0  0  0
 93 94  2  0  0  0  0
 94 95  1  0  0  0  0
 94 96  1  0  0  0  0
 96 97  2  0  0  0  0
 97 98  1  0  0  0  0
 98 99  2  0  0  0  0
 98100  1  0  0  0  0
100101  2  0  0  0  0
101102  1  0  0  0  0
102103  2  0  0  0  0
103104  1  0  0  0  0
104105  2  0  0  0  0
105106  1  0  0  0  0
106107  2  0  0  0  0
107108  1  0  0  0  0
108109  3  0  0  0  0
107110  1  0  0  0  0
110111  3  0  0  0  0
103112  1  0  0  0  0
112113  1  0  0  0  0
113114  1  0  0  0  0
114115  2  0  0  0  0
115116  1  0  0  0  0
116117  1  0  0  0  0
116118  1  0  0  0  0
 11  2  1  0  0  0  0
 23 17  1  0  0  0  0
 35 24  2  0  0  0  0
 80 39  1  0  0  0  0
 92 81  2  0  0  0  0
106 97  1  0  0  0  0
118112  1  0  0  0  0
 10  5  1  0  0  0  0
 22 18  1  0  0  0  0
 34 26  2  0  0  0  0
 49 42  1  0  0  0  0
 57 50  1  0  0  0  0
 79 58  2  0  0  0  0
 91 83  2  0  0  0  0
105100  1  0  0  0  0
117113  1  0  0  0  0
 23  7  1  0  0  0  0
 38 27  1  0  0  0  0
 70 63  1  0  0  0  0
 78 71  1  0  0  0  0
 95 84  1  0  0  0  0
118102  1  0  0  0  0
  1119  1  0  0  0  0
  6120  1  0  0  0  0
  9121  1  0  0  0  0
 17122  1  0  0  0  0
 18123  1  0  0  0  0
 19124  1  0  0  0  0
 20125  1  0  0  0  0
 21126  1  0  0  0  0
 22127  1  0  0  0  0
 22128  1  0  0  0  0
 23129  1  0  0  0  0
 30130  1  0  0  0  0
 30131  1  0  0  0  0
 31132  1  0  0  0  0
 31133  1  0  0  0  0
 31134  1  0  0  0  0
 32135  1  0  0  0  0
 32136  1  0  0  0  0
 33137  1  0  0  0  0
 33138  1  0  0  0  0
 33139  1  0  0  0  0
 35140  1  0  0  0  0
 36141  1  0  0  0  0
 43142  1  0  0  0  0
 44143  1  0  0  0  0
 47144  1  0  0  0  0
 47145  1  0  0  0  0
 47146  1  0  0  0  0
 48147  1  0  0  0  0
 49148  1  0  0  0  0
 51149  1  0  0  0  0
 52150  1  0  0  0  0
 55151  1  0  0  0  0
 55152  1  0  0  0  0
 55153  1  0  0  0  0
 56154  1  0  0  0  0
 57155  1  0  0  0  0
 64156  1  0  0  0  0
 65157  1  0  0  0  0
 68158  1  0  0  0  0
 68159  1  0  0  0  0
 68160  1  0  0  0  0
 69161  1  0  0  0  0
 70162  1  0  0  0  0
 72163  1  0  0  0  0
 73164  1  0  0  0  0
 76165  1  0  0  0  0
 76166  1  0  0  0  0
 76167  1  0  0  0  0
 77168  1  0  0  0  0
 78169  1  0  0  0  0
 87170  1  0  0  0  0
 87171  1  0  0  0  0
 88172  1  0  0  0  0
 88173  1  0  0  0  0
 88174  1  0  0  0  0
 89175  1  0  0  0  0
 89176  1  0  0  0  0
 90177  1  0  0  0  0
 90178  1  0  0  0  0
 90179  1  0  0  0  0
 92180  1  0  0  0  0
 93181  1  0  0  0  0
 96182  1  0  0  0  0
101183  1  0  0  0  0
104184  1  0  0  0  0
112185  1  0  0  0  0
113186  1  0  0  0  0
114187  1  0  0  0  0
115188  1  0  0  0  0
116189  1  0  0  0  0
117190  1  0  0  0  0
117191  1  0  0  0  0
118192  1  0  0  0  0
M  END
