
  xtb     02082204413D
 energy: -396.147261987562 gnorm: 0.000452573465 xtb: 6.4.1 (unknown)
242267  0     0  0            999 V2000
    7.5107   -3.2883    2.4928 C   0  0  0  0  0  0  0  0  0  0  0  0
    8.6665   -2.5813    2.5628 C   0  0  0  0  0  0  0  0  0  0  0  0
    9.9123   -3.1334    1.9635 C   0  0  0  0  0  0  0  0  0  0  0  0
   10.0759   -4.2558    1.5386 O   0  0  0  0  0  0  0  0  0  0  0  0
   10.8611   -2.0054    1.9186 C   0  0  0  0  0  0  0  0  0  0  0  0
   12.1335   -1.9988    1.3509 C   0  0  0  0  0  0  0  0  0  0  0  0
   12.7818   -0.7910    1.4414 C   0  0  0  0  0  0  0  0  0  0  0  0
   12.2064    0.3355    2.0455 C   0  0  0  0  0  0  0  0  0  0  0  0
   10.9556    0.3432    2.6152 C   0  0  0  0  0  0  0  0  0  0  0  0
   10.2824   -0.8791    2.5412 C   0  0  0  0  0  0  0  0  0  0  0  0
    8.9731   -1.2580    3.0670 C   0  0  0  0  0  0  0  0  0  0  0  0
    8.2894   -0.5960    4.0532 C   0  0  0  0  0  0  0  0  0  0  0  0
    7.1630   -1.1249    4.7174 C   0  0  0  0  0  0  0  0  0  0  0  0
    6.2783   -1.5235    5.3306 N   0  0  0  0  0  0  0  0  0  0  0  0
    8.6789    0.6474    4.5904 C   0  0  0  0  0  0  0  0  0  0  0  0
    8.9421    1.6658    5.0507 N   0  0  0  0  0  0  0  0  0  0  0  0
   13.4092    1.1999    1.7636 C   0  0  0  0  0  0  0  0  0  0  0  0
   13.3192    2.2053    0.5889 C   0  0  0  0  0  0  0  0  0  0  0  0
   12.3183    1.6379   -0.3867 C   0  0  0  0  0  0  0  0  0  0  0  0
   12.8656    0.5715   -0.9545 C   0  0  0  0  0  0  0  0  0  0  0  0
   14.2469    0.3983   -0.3729 C   0  0  0  0  0  0  0  0  0  0  0  0
   14.6294    1.8688   -0.1410 C   0  0  0  0  0  0  0  0  0  0  0  0
   14.0525   -0.0558    1.0951 C   0  0  0  0  0  0  0  0  0  0  0  0
    6.1597   -2.8255    2.5942 C   0  0  0  0  0  0  0  0  0  0  0  0
    5.7525   -1.5533    2.2132 C   0  0  0  0  0  0  0  0  0  0  0  0
    4.4111   -1.2158    2.1366 C   0  0  0  0  0  0  0  0  0  0  0  0
    3.4002   -2.1088    2.4706 C   0  0  0  0  0  0  0  0  0  0  0  0
    3.7849   -3.3657    3.0193 C   0  0  0  0  0  0  0  0  0  0  0  0
    2.8980   -4.1522    3.6463 N   0  0  0  0  0  0  0  0  0  0  0  0
    3.2851   -5.3196    4.1029 C   0  0  0  0  0  0  0  0  0  0  0  0
    2.3608   -6.0623    4.9624 C   0  0  0  0  0  0  0  0  0  0  0  0
    2.8259   -6.7439    6.0859 C   0  0  0  0  0  0  0  0  0  0  0  0
    1.9422   -7.4397    6.8881 C   0  0  0  0  0  0  0  0  0  0  0  0
    0.5915   -7.4707    6.5783 C   0  0  0  0  0  0  0  0  0  0  0  0
    0.1230   -6.7875    5.4683 C   0  0  0  0  0  0  0  0  0  0  0  0
    1.0004   -6.0804    4.6689 C   0  0  0  0  0  0  0  0  0  0  0  0
    4.5871   -5.8219    3.7735 C   0  0  0  0  0  0  0  0  0  0  0  0
    5.4943   -5.0020    3.3019 N   0  0  0  0  0  0  0  0  0  0  0  0
    5.1518   -3.7476    2.9890 C   0  0  0  0  0  0  0  0  0  0  0  0
    4.9708   -7.2283    3.8975 C   0  0  0  0  0  0  0  0  0  0  0  0
    4.0549   -8.2557    3.6768 C   0  0  0  0  0  0  0  0  0  0  0  0
    4.4572   -9.5743    3.7671 C   0  0  0  0  0  0  0  0  0  0  0  0
    5.7713   -9.8847    4.0780 C   0  0  0  0  0  0  0  0  0  0  0  0
    6.6907   -8.8684    4.2821 C   0  0  0  0  0  0  0  0  0  0  0  0
    6.2966   -7.5482    4.1858 C   0  0  0  0  0  0  0  0  0  0  0  0
    2.0253   -1.7649    2.2306 C   0  0  0  0  0  0  0  0  0  0  0  0
    0.9921   -2.5535    1.7353 C   0  0  0  0  0  0  0  0  0  0  0  0
    1.0922   -3.8686    1.3123 N   0  0  0  0  0  0  0  0  0  0  0  0
    2.2971   -4.3502    0.7756 C   0  0  0  0  0  0  0  0  0  0  0  0
    2.7122   -5.6554    1.0440 C   0  0  0  0  0  0  0  0  0  0  0  0
    3.9506   -6.0901    0.6303 C   0  0  0  0  0  0  0  0  0  0  0  0
    4.8047   -5.2341   -0.0636 C   0  0  0  0  0  0  0  0  0  0  0  0
    6.4143   -5.8494   -0.4291 S   0  0  0  0  0  0  0  0  0  0  0  0
    7.3545   -4.3557   -0.8545 C   0  0  0  0  0  0  0  0  0  0  0  0
    4.3555   -3.9690   -0.4201 C   0  0  0  0  0  0  0  0  0  0  0  0
    3.1101   -3.5355   -0.0084 C   0  0  0  0  0  0  0  0  0  0  0  0
   -0.0583   -4.6625    1.2643 C   0  0  0  0  0  0  0  0  0  0  0  0
   -0.2557   -5.5683    0.2197 C   0  0  0  0  0  0  0  0  0  0  0  0
   -1.4351   -6.2687    0.1171 C   0  0  0  0  0  0  0  0  0  0  0  0
   -2.4490   -6.0954    1.0586 C   0  0  0  0  0  0  0  0  0  0  0  0
   -3.9512   -6.9743    0.7702 S   0  0  0  0  0  0  0  0  0  0  0  0
   -5.0591   -6.3888    2.0796 C   0  0  0  0  0  0  0  0  0  0  0  0
   -2.2293   -5.2584    2.1423 C   0  0  0  0  0  0  0  0  0  0  0  0
   -1.0452   -4.5517    2.2435 C   0  0  0  0  0  0  0  0  0  0  0  0
   -0.1781   -1.7780    1.5463 C   0  0  0  0  0  0  0  0  0  0  0  0
   -1.7541   -2.1238    0.9343 S   0  0  0  0  0  0  0  0  0  0  0  0
   -2.1717   -0.4297    0.9772 C   0  0  0  0  0  0  0  0  0  0  0  0
   -1.1689    0.3490    1.5385 C   0  0  0  0  0  0  0  0  0  0  0  0
   -1.2838    1.7337    1.7559 N   0  0  0  0  0  0  0  0  0  0  0  0
   -1.9194    2.1568    2.9267 C   0  0  0  0  0  0  0  0  0  0  0  0
   -2.5837    3.3822    2.9962 C   0  0  0  0  0  0  0  0  0  0  0  0
   -3.2307    3.7733    4.1506 C   0  0  0  0  0  0  0  0  0  0  0  0
   -3.2344    2.9453    5.2647 C   0  0  0  0  0  0  0  0  0  0  0  0
   -4.0292    3.3587    6.7895 S   0  0  0  0  0  0  0  0  0  0  0  0
   -4.1383    5.1696    6.7203 C   0  0  0  0  0  0  0  0  0  0  0  0
   -2.6026    1.7080    5.1936 C   0  0  0  0  0  0  0  0  0  0  0  0
   -1.9549    1.3177    4.0425 C   0  0  0  0  0  0  0  0  0  0  0  0
   -0.7616    2.6105    0.7965 C   0  0  0  0  0  0  0  0  0  0  0  0
   -0.7678    2.2587   -0.5518 C   0  0  0  0  0  0  0  0  0  0  0  0
   -0.3224    3.1383   -1.5201 C   0  0  0  0  0  0  0  0  0  0  0  0
    0.1563    4.3883   -1.1550 C   0  0  0  0  0  0  0  0  0  0  0  0
    0.7173    5.6172   -2.2965 S   0  0  0  0  0  0  0  0  0  0  0  0
    0.3856    4.9039   -3.9311 C   0  0  0  0  0  0  0  0  0  0  0  0
    0.2172    4.7237    0.1972 C   0  0  0  0  0  0  0  0  0  0  0  0
   -0.2291    3.8482    1.1611 C   0  0  0  0  0  0  0  0  0  0  0  0
   -0.0306   -0.4268    1.8318 C   0  0  0  0  0  0  0  0  0  0  0  0
    1.5606   -0.0732    2.3922 S   0  0  0  0  0  0  0  0  0  0  0  0
   -3.3570    0.0450    0.3550 C   0  0  0  0  0  0  0  0  0  0  0  0
   -4.0962   -0.5639   -0.6537 C   0  0  0  0  0  0  0  0  0  0  0  0
   -3.8198   -1.8191   -1.2113 N   0  0  0  0  0  0  0  0  0  0  0  0
   -2.5893   -1.9934   -1.8534 C   0  0  0  0  0  0  0  0  0  0  0  0
   -1.9359   -3.2256   -1.8534 C   0  0  0  0  0  0  0  0  0  0  0  0
   -0.6611   -3.3487   -2.3683 C   0  0  0  0  0  0  0  0  0  0  0  0
   -0.0028   -2.2394   -2.8779 C   0  0  0  0  0  0  0  0  0  0  0  0
    1.6684   -2.2651   -3.4555 S   0  0  0  0  0  0  0  0  0  0  0  0
    2.1106   -4.0255   -3.4492 C   0  0  0  0  0  0  0  0  0  0  0  0
   -0.6679   -1.0163   -2.9245 C   0  0  0  0  0  0  0  0  0  0  0  0
   -1.9482   -0.8948   -2.4315 C   0  0  0  0  0  0  0  0  0  0  0  0
   -4.7726   -2.8271   -1.0762 C   0  0  0  0  0  0  0  0  0  0  0  0
   -4.8961   -3.8476   -2.0168 C   0  0  0  0  0  0  0  0  0  0  0  0
   -5.8106   -4.8655   -1.8375 C   0  0  0  0  0  0  0  0  0  0  0  0
   -6.6357   -4.8746   -0.7216 C   0  0  0  0  0  0  0  0  0  0  0  0
   -7.8156   -6.1500   -0.3898 S   0  0  0  0  0  0  0  0  0  0  0  0
   -7.1831   -7.5503   -1.3584 C   0  0  0  0  0  0  0  0  0  0  0  0
   -6.5596   -3.8270    0.1910 C   0  0  0  0  0  0  0  0  0  0  0  0
   -5.6369   -2.8188    0.0206 C   0  0  0  0  0  0  0  0  0  0  0  0
   -5.0976    0.3024   -1.1380 C   0  0  0  0  0  0  0  0  0  0  0  0
   -6.2070    0.2537   -2.4580 S   0  0  0  0  0  0  0  0  0  0  0  0
   -6.5034    1.9866   -2.3040 C   0  0  0  0  0  0  0  0  0  0  0  0
   -5.8540    2.5330   -1.2062 C   0  0  0  0  0  0  0  0  0  0  0  0
   -6.0064    3.8346   -0.7142 N   0  0  0  0  0  0  0  0  0  0  0  0
   -6.3066    3.9653    0.6460 C   0  0  0  0  0  0  0  0  0  0  0  0
   -5.9080    5.0874    1.3743 C   0  0  0  0  0  0  0  0  0  0  0  0
   -6.2301    5.2043    2.7082 C   0  0  0  0  0  0  0  0  0  0  0  0
   -6.9410    4.2013    3.3576 C   0  0  0  0  0  0  0  0  0  0  0  0
   -7.3044    4.4345    5.0718 S   0  0  0  0  0  0  0  0  0  0  0  0
   -7.4658    2.7343    5.6857 C   0  0  0  0  0  0  0  0  0  0  0  0
   -7.3589    3.0922    2.6360 C   0  0  0  0  0  0  0  0  0  0  0  0
   -7.0525    2.9814    1.2955 C   0  0  0  0  0  0  0  0  0  0  0  0
   -5.2484    4.8732   -1.3207 C   0  0  0  0  0  0  0  0  0  0  0  0
   -5.8761    6.0377   -1.7406 C   0  0  0  0  0  0  0  0  0  0  0  0
   -5.1392    7.0757   -2.2825 C   0  0  0  0  0  0  0  0  0  0  0  0
   -3.7597    6.9564   -2.4073 C   0  0  0  0  0  0  0  0  0  0  0  0
   -2.6979    8.1865   -3.0797 S   0  0  0  0  0  0  0  0  0  0  0  0
   -3.8068    9.5846   -3.4169 C   0  0  0  0  0  0  0  0  0  0  0  0
   -3.1319    5.7856   -1.9832 C   0  0  0  0  0  0  0  0  0  0  0  0
   -3.8659    4.7524   -1.4440 C   0  0  0  0  0  0  0  0  0  0  0  0
   -5.0824    1.5549   -0.5448 C   0  0  0  0  0  0  0  0  0  0  0  0
   -3.9003    1.6736    0.7028 S   0  0  0  0  0  0  0  0  0  0  0  0
   -7.3797    2.5820   -3.2523 C   0  0  0  0  0  0  0  0  0  0  0  0
   -7.2170    3.7117   -3.9862 C   0  0  0  0  0  0  0  0  0  0  0  0
   -8.3988    4.2864   -4.6882 C   0  0  0  0  0  0  0  0  0  0  0  0
   -9.5045    3.7975   -4.7480 O   0  0  0  0  0  0  0  0  0  0  0  0
   -7.9425    5.5662   -5.2559 C   0  0  0  0  0  0  0  0  0  0  0  0
   -8.7124    6.5049   -5.9392 C   0  0  0  0  0  0  0  0  0  0  0  0
   -8.0130    7.6168   -6.3394 C   0  0  0  0  0  0  0  0  0  0  0  0
   -6.6492    7.7951   -6.0665 C   0  0  0  0  0  0  0  0  0  0  0  0
   -5.8716    6.8606   -5.4237 C   0  0  0  0  0  0  0  0  0  0  0  0
   -6.5616    5.7150   -5.0167 C   0  0  0  0  0  0  0  0  0  0  0  0
   -6.0664    4.5187   -4.3344 C   0  0  0  0  0  0  0  0  0  0  0  0
   -4.7498    4.1415   -4.2972 C   0  0  0  0  0  0  0  0  0  0  0  0
   -4.2267    2.9438   -3.7720 C   0  0  0  0  0  0  0  0  0  0  0  0
   -3.6695    2.0090   -3.4027 N   0  0  0  0  0  0  0  0  0  0  0  0
   -3.6918    4.8808   -4.8678 C   0  0  0  0  0  0  0  0  0  0  0  0
   -2.7719    5.3902   -5.3298 N   0  0  0  0  0  0  0  0  0  0  0  0
   -6.6141    9.1484   -6.7342 C   0  0  0  0  0  0  0  0  0  0  0  0
   -6.6528   10.4158   -5.8412 C   0  0  0  0  0  0  0  0  0  0  0  0
   -7.3798   10.0422   -4.5730 C   0  0  0  0  0  0  0  0  0  0  0  0
   -8.6583    9.8605   -4.8742 C   0  0  0  0  0  0  0  0  0  0  0  0
   -8.8201   10.1098   -6.3527 C   0  0  0  0  0  0  0  0  0  0  0  0
   -7.7602   11.2034   -6.5605 C   0  0  0  0  0  0  0  0  0  0  0  0
   -8.1230    8.9308   -7.0718 C   0  0  0  0  0  0  0  0  0  0  0  0
    7.6145   -4.3437    2.2582 H   0  0  0  0  0  0  0  0  0  0  0  0
   12.5411   -2.8875    0.8947 H   0  0  0  0  0  0  0  0  0  0  0  0
   10.5211    1.2164    3.0735 H   0  0  0  0  0  0  0  0  0  0  0  0
   13.9041    1.6243    2.6349 H   0  0  0  0  0  0  0  0  0  0  0  0
   13.1640    3.2378    0.8898 H   0  0  0  0  0  0  0  0  0  0  0  0
   11.3248    2.0249   -0.5184 H   0  0  0  0  0  0  0  0  0  0  0  0
   12.4206   -0.1109   -1.6550 H   0  0  0  0  0  0  0  0  0  0  0  0
   14.9368   -0.2139   -0.9478 H   0  0  0  0  0  0  0  0  0  0  0  0
   14.7488    2.4244   -1.0700 H   0  0  0  0  0  0  0  0  0  0  0  0
   15.5159    1.9939    0.4791 H   0  0  0  0  0  0  0  0  0  0  0  0
   14.9671   -0.4524    1.5315 H   0  0  0  0  0  0  0  0  0  0  0  0
    6.4899   -0.8350    1.8837 H   0  0  0  0  0  0  0  0  0  0  0  0
    4.1382   -0.2401    1.7609 H   0  0  0  0  0  0  0  0  0  0  0  0
    3.8762   -6.7127    6.3361 H   0  0  0  0  0  0  0  0  0  0  0  0
    2.3082   -7.9613    7.7599 H   0  0  0  0  0  0  0  0  0  0  0  0
   -0.0936   -8.0231    7.2042 H   0  0  0  0  0  0  0  0  0  0  0  0
   -0.9291   -6.8051    5.2230 H   0  0  0  0  0  0  0  0  0  0  0  0
    0.6469   -5.5485    3.8005 H   0  0  0  0  0  0  0  0  0  0  0  0
    3.0331   -8.0223    3.4161 H   0  0  0  0  0  0  0  0  0  0  0  0
    3.7420  -10.3644    3.5908 H   0  0  0  0  0  0  0  0  0  0  0  0
    6.0790  -10.9171    4.1529 H   0  0  0  0  0  0  0  0  0  0  0  0
    7.7182   -9.1072    4.5130 H   0  0  0  0  0  0  0  0  0  0  0  0
    7.0022   -6.7461    4.3378 H   0  0  0  0  0  0  0  0  0  0  0  0
    2.0690   -6.3117    1.6115 H   0  0  0  0  0  0  0  0  0  0  0  0
    4.2885   -7.0868    0.8702 H   0  0  0  0  0  0  0  0  0  0  0  0
    7.1157   -3.5650   -0.1493 H   0  0  0  0  0  0  0  0  0  0  0  0
    7.1420   -4.0508   -1.8756 H   0  0  0  0  0  0  0  0  0  0  0  0
    8.4007   -4.6297   -0.7561 H   0  0  0  0  0  0  0  0  0  0  0  0
    4.9641   -3.3101   -1.0184 H   0  0  0  0  0  0  0  0  0  0  0  0
    2.7717   -2.5493   -0.2903 H   0  0  0  0  0  0  0  0  0  0  0  0
    0.5176   -5.7062   -0.5207 H   0  0  0  0  0  0  0  0  0  0  0  0
   -1.5954   -6.9476   -0.7069 H   0  0  0  0  0  0  0  0  0  0  0  0
   -4.7040   -6.7294    3.0481 H   0  0  0  0  0  0  0  0  0  0  0  0
   -5.1310   -5.3060    2.0346 H   0  0  0  0  0  0  0  0  0  0  0  0
   -6.0288   -6.8282    1.8658 H   0  0  0  0  0  0  0  0  0  0  0  0
   -2.9723   -5.1360    2.9134 H   0  0  0  0  0  0  0  0  0  0  0  0
   -0.8884   -3.9002    3.0906 H   0  0  0  0  0  0  0  0  0  0  0  0
   -2.6125    4.0286    2.1322 H   0  0  0  0  0  0  0  0  0  0  0  0
   -3.7449    4.7205    4.1626 H   0  0  0  0  0  0  0  0  0  0  0  0
   -4.9340    5.4712    6.0452 H   0  0  0  0  0  0  0  0  0  0  0  0
   -4.3757    5.4898    7.7299 H   0  0  0  0  0  0  0  0  0  0  0  0
   -3.1784    5.5750    6.4152 H   0  0  0  0  0  0  0  0  0  0  0  0
   -2.6163    1.0593    6.0561 H   0  0  0  0  0  0  0  0  0  0  0  0
   -1.4610    0.3585    4.0128 H   0  0  0  0  0  0  0  0  0  0  0  0
   -1.1346    1.2906   -0.8566 H   0  0  0  0  0  0  0  0  0  0  0  0
   -0.3714    2.8381   -2.5545 H   0  0  0  0  0  0  0  0  0  0  0  0
    0.9569    3.9896   -4.0622 H   0  0  0  0  0  0  0  0  0  0  0  0
    0.7192    5.6530   -4.6423 H   0  0  0  0  0  0  0  0  0  0  0  0
   -0.6794    4.7329   -4.0632 H   0  0  0  0  0  0  0  0  0  0  0  0
    0.6213    5.6838    0.4796 H   0  0  0  0  0  0  0  0  0  0  0  0
   -0.1648    4.1166    2.2044 H   0  0  0  0  0  0  0  0  0  0  0  0
   -2.4066   -4.0873   -1.4057 H   0  0  0  0  0  0  0  0  0  0  0  0
   -0.1858   -4.3147   -2.3389 H   0  0  0  0  0  0  0  0  0  0  0  0
    1.4006   -4.5857   -4.0503 H   0  0  0  0  0  0  0  0  0  0  0  0
    3.0973   -4.0802   -3.8986 H   0  0  0  0  0  0  0  0  0  0  0  0
    2.1555   -4.3992   -2.4296 H   0  0  0  0  0  0  0  0  0  0  0  0
   -0.1668   -0.1609   -3.3510 H   0  0  0  0  0  0  0  0  0  0  0  0
   -2.4585    0.0539   -2.4976 H   0  0  0  0  0  0  0  0  0  0  0  0
   -4.2760   -3.8390   -2.9000 H   0  0  0  0  0  0  0  0  0  0  0  0
   -5.8770   -5.6436   -2.5807 H   0  0  0  0  0  0  0  0  0  0  0  0
   -6.1196   -7.6643   -1.1691 H   0  0  0  0  0  0  0  0  0  0  0  0
   -7.7223   -8.4234   -1.0041 H   0  0  0  0  0  0  0  0  0  0  0  0
   -7.3850   -7.4007   -2.4152 H   0  0  0  0  0  0  0  0  0  0  0  0
   -7.2237   -3.8216    1.0426 H   0  0  0  0  0  0  0  0  0  0  0  0
   -5.5669   -2.0254    0.7506 H   0  0  0  0  0  0  0  0  0  0  0  0
   -5.3335    5.8667    0.8984 H   0  0  0  0  0  0  0  0  0  0  0  0
   -5.9254    6.0798    3.2619 H   0  0  0  0  0  0  0  0  0  0  0  0
   -6.6502    2.1359    5.2920 H   0  0  0  0  0  0  0  0  0  0  0  0
   -7.3862    2.7997    6.7661 H   0  0  0  0  0  0  0  0  0  0  0  0
   -8.4322    2.3216    5.4097 H   0  0  0  0  0  0  0  0  0  0  0  0
   -7.9370    2.3127    3.1066 H   0  0  0  0  0  0  0  0  0  0  0  0
   -7.4049    2.1217    0.7450 H   0  0  0  0  0  0  0  0  0  0  0  0
   -6.9465    6.1319   -1.6321 H   0  0  0  0  0  0  0  0  0  0  0  0
   -5.6545    7.9663   -2.6034 H   0  0  0  0  0  0  0  0  0  0  0  0
   -3.1670   10.3770   -3.7930 H   0  0  0  0  0  0  0  0  0  0  0  0
   -4.2880    9.9075   -2.4982 H   0  0  0  0  0  0  0  0  0  0  0  0
   -4.5346    9.3076   -4.1731 H   0  0  0  0  0  0  0  0  0  0  0  0
   -2.0600    5.7097   -2.0658 H   0  0  0  0  0  0  0  0  0  0  0  0
   -3.3649    3.8591   -1.1016 H   0  0  0  0  0  0  0  0  0  0  0  0
   -8.3206    2.0622   -3.4185 H   0  0  0  0  0  0  0  0  0  0  0  0
   -9.7611    6.3327   -6.1239 H   0  0  0  0  0  0  0  0  0  0  0  0
   -4.8165    6.9889   -5.2442 H   0  0  0  0  0  0  0  0  0  0  0  0
   -5.9135    9.2530   -7.5605 H   0  0  0  0  0  0  0  0  0  0  0  0
   -5.6930   10.9120   -5.7186 H   0  0  0  0  0  0  0  0  0  0  0  0
   -6.9028    9.9103   -3.6194 H   0  0  0  0  0  0  0  0  0  0  0  0
   -9.4533    9.5358   -4.2288 H   0  0  0  0  0  0  0  0  0  0  0  0
   -9.8294   10.3185   -6.6967 H   0  0  0  0  0  0  0  0  0  0  0  0
   -8.0102   12.1346   -6.0544 H   0  0  0  0  0  0  0  0  0  0  0  0
   -7.5407   11.4016   -7.6085 H   0  0  0  0  0  0  0  0  0  0  0  0
   -8.3987    8.8610   -8.1221 H   0  0  0  0  0  0  0  0  0  0  0  0
  1  2  2  0  0  0  0
  2  3  1  0  0  0  0
  3  4  2  0  0  0  0
  3  5  1  0  0  0  0
  5  6  2  0  0  0  0
  6  7  1  0  0  0  0
  7  8  2  0  0  0  0
  8  9  1  0  0  0  0
  9 10  2  0  0  0  0
 10 11  1  0  0  0  0
 11 12  2  0  0  0  0
 12 13  1  0  0  0  0
 13 14  3  0  0  0  0
 12 15  1  0  0  0  0
 15 16  3  0  0  0  0
  8 17  1  0  0  0  0
 17 18  1  0  0  0  0
 18 19  1  0  0  0  0
 19 20  2  0  0  0  0
 20 21  1  0  0  0  0
 21 22  1  0  0  0  0
 21 23  1  0  0  0  0
  1 24  1  0  0  0  0
 24 25  2  0  0  0  0
 25 26  1  0  0  0  0
 26 27  2  0  0  0  0
 27 28  1  0  0  0  0
 28 29  2  0  0  0  0
 29 30  1  0  0  0  0
 30 31  1  0  0  0  0
 31 32  2  0  0  0  0
 32 33  1  0  0  0  0
 33 34  2  0  0  0  0
 34 35  1  0  0  0  0
 35 36  2  0  0  0  0
 30 37  2  0  0  0  0
 37 38  1  0  0  0  0
 38 39  2  0  0  0  0
 37 40  1  0  0  0  0
 40 41  2  0  0  0  0
 41 42  1  0  0  0  0
 42 43  2  0  0  0  0
 43 44  1  0  0  0  0
 44 45  2  0  0  0  0
 27 46  1  0  0  0  0
 46 47  2  0  0  0  0
 47 48  1  0  0  0  0
 48 49  1  0  0  0  0
 49 50  2  0  0  0  0
 50 51  1  0  0  0  0
 51 52  2  0  0  0  0
 52 53  1  0  0  0  0
 53 54  1  0  0  0  0
 52 55  1  0  0  0  0
 55 56  2  0  0  0  0
 48 57  1  0  0  0  0
 57 58  2  0  0  0  0
 58 59  1  0  0  0  0
 59 60  2  0  0  0  0
 60 61  1  0  0  0  0
 61 62  1  0  0  0  0
 60 63  1  0  0  0  0
 63 64  2  0  0  0  0
 47 65  1  0  0  0  0
 65 66  1  0  0  0  0
 66 67  1  0  0  0  0
 67 68  2  0  0  0  0
 68 69  1  0  0  0  0
 69 70  1  0  0  0  0
 70 71  2  0  0  0  0
 71 72  1  0  0  0  0
 72 73  2  0  0  0  0
 73 74  1  0  0  0  0
 74 75  1  0  0  0  0
 73 76  1  0  0  0  0
 76 77  2  0  0  0  0
 69 78  1  0  0  0  0
 78 79  2  0  0  0  0
 79 80  1  0  0  0  0
 80 81  2  0  0  0  0
 81 82  1  0  0  0  0
 82 83  1  0  0  0  0
 81 84  1  0  0  0  0
 84 85  2  0  0  0  0
 68 86  1  0  0  0  0
 86 87  1  0  0  0  0
 67 88  1  0  0  0  0
 88 89  2  0  0  0  0
 89 90  1  0  0  0  0
 90 91  1  0  0  0  0
 91 92  2  0  0  0  0
 92 93  1  0  0  0  0
 93 94  2  0  0  0  0
 94 95  1  0  0  0  0
 95 96  1  0  0  0  0
 94 97  1  0  0  0  0
 97 98  2  0  0  0  0
 90 99  1  0  0  0  0
 99100  2  0  0  0  0
100101  1  0  0  0  0
101102  2  0  0  0  0
102103  1  0  0  0  0
103104  1  0  0  0  0
102105  1  0  0  0  0
105106  2  0  0  0  0
 89107  1  0  0  0  0
107108  1  0  0  0  0
108109  1  0  0  0  0
109110  2  0  0  0  0
110111  1  0  0  0  0
111112  1  0  0  0  0
112113  2  0  0  0  0
113114  1  0  0  0  0
114115  2  0  0  0  0
115116  1  0  0  0  0
116117  1  0  0  0  0
115118  1  0  0  0  0
118119  2  0  0  0  0
111120  1  0  0  0  0
120121  2  0  0  0  0
121122  1  0  0  0  0
122123  2  0  0  0  0
123124  1  0  0  0  0
124125  1  0  0  0  0
123126  1  0  0  0  0
126127  2  0  0  0  0
110128  1  0  0  0  0
128129  1  0  0  0  0
109130  1  0  0  0  0
130131  2  0  0  0  0
131132  1  0  0  0  0
132133  2  0  0  0  0
132134  1  0  0  0  0
134135  2  0  0  0  0
135136  1  0  0  0  0
136137  2  0  0  0  0
137138  1  0  0  0  0
138139  2  0  0  0  0
139140  1  0  0  0  0
140141  2  0  0  0  0
141142  1  0  0  0  0
142143  3  0  0  0  0
141144  1  0  0  0  0
144145  3  0  0  0  0
137146  1  0  0  0  0
146147  1  0  0  0  0
147148  1  0  0  0  0
148149  2  0  0  0  0
149150  1  0  0  0  0
150151  1  0  0  0  0
150152  1  0  0  0  0
 11  2  1  0  0  0  0
 23 17  1  0  0  0  0
 39 24  1  0  0  0  0
 45 40  1  0  0  0  0
 87 46  1  0  0  0  0
129 88  1  0  0  0  0
140131  1  0  0  0  0
152146  1  0  0  0  0
 10  5  1  0  0  0  0
 22 18  1  0  0  0  0
 39 28  1  0  0  0  0
 56 49  1  0  0  0  0
 64 57  1  0  0  0  0
 86 65  2  0  0  0  0
 98 91  1  0  0  0  0
106 99  1  0  0  0  0
128107  2  0  0  0  0
139134  1  0  0  0  0
151147  1  0  0  0  0
 23  7  1  0  0  0  0
 36 31  1  0  0  0  0
 77 70  1  0  0  0  0
 85 78  1  0  0  0  0
119112  1  0  0  0  0
127120  1  0  0  0  0
152136  1  0  0  0  0
  1153  1  0  0  0  0
  6154  1  0  0  0  0
  9155  1  0  0  0  0
 17156  1  0  0  0  0
 18157  1  0  0  0  0
 19158  1  0  0  0  0
 20159  1  0  0  0  0
 21160  1  0  0  0  0
 22161  1  0  0  0  0
 22162  1  0  0  0  0
 23163  1  0  0  0  0
 25164  1  0  0  0  0
 26165  1  0  0  0  0
 32166  1  0  0  0  0
 33167  1  0  0  0  0
 34168  1  0  0  0  0
 35169  1  0  0  0  0
 36170  1  0  0  0  0
 41171  1  0  0  0  0
 42172  1  0  0  0  0
 43173  1  0  0  0  0
 44174  1  0  0  0  0
 45175  1  0  0  0  0
 50176  1  0  0  0  0
 51177  1  0  0  0  0
 54178  1  0  0  0  0
 54179  1  0  0  0  0
 54180  1  0  0  0  0
 55181  1  0  0  0  0
 56182  1  0  0  0  0
 58183  1  0  0  0  0
 59184  1  0  0  0  0
 62185  1  0  0  0  0
 62186  1  0  0  0  0
 62187  1  0  0  0  0
 63188  1  0  0  0  0
 64189  1  0  0  0  0
 71190  1  0  0  0  0
 72191  1  0  0  0  0
 75192  1  0  0  0  0
 75193  1  0  0  0  0
 75194  1  0  0  0  0
 76195  1  0  0  0  0
 77196  1  0  0  0  0
 79197  1  0  0  0  0
 80198  1  0  0  0  0
 83199  1  0  0  0  0
 83200  1  0  0  0  0
 83201  1  0  0  0  0
 84202  1  0  0  0  0
 85203  1  0  0  0  0
 92204  1  0  0  0  0
 93205  1  0  0  0  0
 96206  1  0  0  0  0
 96207  1  0  0  0  0
 96208  1  0  0  0  0
 97209  1  0  0  0  0
 98210  1  0  0  0  0
100211  1  0  0  0  0
101212  1  0  0  0  0
104213  1  0  0  0  0
104214  1  0  0  0  0
104215  1  0  0  0  0
105216  1  0  0  0  0
106217  1  0  0  0  0
113218  1  0  0  0  0
114219  1  0  0  0  0
117220  1  0  0  0  0
117221  1  0  0  0  0
117222  1  0  0  0  0
118223  1  0  0  0  0
119224  1  0  0  0  0
121225  1  0  0  0  0
122226  1  0  0  0  0
125227  1  0  0  0  0
125228  1  0  0  0  0
125229  1  0  0  0  0
126230  1  0  0  0  0
127231  1  0  0  0  0
130232  1  0  0  0  0
135233  1  0  0  0  0
138234  1  0  0  0  0
146235  1  0  0  0  0
147236  1  0  0  0  0
148237  1  0  0  0  0
149238  1  0  0  0  0
150239  1  0  0  0  0
151240  1  0  0  0  0
151241  1  0  0  0  0
152242  1  0  0  0  0
M  END
