
  xtb     02172221063D
 energy: -358.262600788102 gnorm: 0.000910187236 xtb: 6.4.1 (unknown)
208230  0     0  0            999 V2000
   -1.0181   -8.5209    1.8527 C   0  0  0  0  0  0  0  0  0  0  0  0
   -0.7603   -9.6429    1.0980 C   0  0  0  0  0  0  0  0  0  0  0  0
   -0.4684   -9.6740   -0.3348 C   0  0  0  0  0  0  0  0  0  0  0  0
   -0.3604   -8.7251   -1.0979 O   0  0  0  0  0  0  0  0  0  0  0  0
   -0.3930  -11.0940   -0.7146 C   0  0  0  0  0  0  0  0  0  0  0  0
   -0.1079  -11.6114   -1.9762 C   0  0  0  0  0  0  0  0  0  0  0  0
   -0.1140  -12.9848   -2.0296 C   0  0  0  0  0  0  0  0  0  0  0  0
   -0.3892  -13.7837   -0.9126 C   0  0  0  0  0  0  0  0  0  0  0  0
   -0.6645  -13.2846    0.3394 C   0  0  0  0  0  0  0  0  0  0  0  0
   -0.6570  -11.8894    0.4186 C   0  0  0  0  0  0  0  0  0  0  0  0
   -0.8657  -11.0055    1.5666 C   0  0  0  0  0  0  0  0  0  0  0  0
   -1.0861  -11.4203    2.8581 C   0  0  0  0  0  0  0  0  0  0  0  0
   -1.1486  -10.5816    3.9877 C   0  0  0  0  0  0  0  0  0  0  0  0
   -1.1826   -9.9750    4.9640 N   0  0  0  0  0  0  0  0  0  0  0  0
   -1.2520  -12.7652    3.2455 C   0  0  0  0  0  0  0  0  0  0  0  0
   -1.4148  -13.8359    3.6282 N   0  0  0  0  0  0  0  0  0  0  0  0
   -0.2203  -15.0667   -1.6885 C   0  0  0  0  0  0  0  0  0  0  0  0
    1.1014  -15.8333   -1.4738 C   0  0  0  0  0  0  0  0  0  0  0  0
    1.1956  -16.7389   -2.6807 C   0  0  0  0  0  0  0  0  0  0  0  0
    1.4646  -15.9797   -3.7351 C   0  0  0  0  0  0  0  0  0  0  0  0
    1.5553  -14.5478   -3.2590 C   0  0  0  0  0  0  0  0  0  0  0  0
    2.1407  -14.7725   -1.8588 C   0  0  0  0  0  0  0  0  0  0  0  0
    0.0933  -14.1749   -2.9327 C   0  0  0  0  0  0  0  0  0  0  0  0
   -0.9012   -7.1706    1.5251 C   0  0  0  0  0  0  0  0  0  0  0  0
   -1.2467   -6.1178    2.4081 C   0  0  0  0  0  0  0  0  0  0  0  0
   -1.8839   -6.2482    3.6159 N   0  0  0  0  0  0  0  0  0  0  0  0
   -1.5670   -5.3272    4.6319 C   0  0  0  0  0  0  0  0  0  0  0  0
   -0.2342   -4.9821    4.8612 C   0  0  0  0  0  0  0  0  0  0  0  0
    0.0866   -4.0591    5.8294 C   0  0  0  0  0  0  0  0  0  0  0  0
   -0.9124   -3.4683    6.6018 C   0  0  0  0  0  0  0  0  0  0  0  0
   -0.3911   -2.2807    7.7950 S   0  0  0  0  0  0  0  0  0  0  0  0
   -1.7756   -2.2167    8.9668 C   0  0  0  0  0  0  0  0  0  0  0  0
   -2.2390   -3.8225    6.3870 C   0  0  0  0  0  0  0  0  0  0  0  0
   -2.5623   -4.7431    5.4094 C   0  0  0  0  0  0  0  0  0  0  0  0
   -2.9025   -7.1895    3.8377 C   0  0  0  0  0  0  0  0  0  0  0  0
   -3.0428   -7.7867    5.0908 C   0  0  0  0  0  0  0  0  0  0  0  0
   -4.0373   -8.7139    5.3060 C   0  0  0  0  0  0  0  0  0  0  0  0
   -4.9061   -9.0740    4.2777 C   0  0  0  0  0  0  0  0  0  0  0  0
   -6.1218  -10.2903    4.6664 S   0  0  0  0  0  0  0  0  0  0  0  0
   -6.8799  -10.6808    3.0629 C   0  0  0  0  0  0  0  0  0  0  0  0
   -4.7823   -8.4642    3.0349 C   0  0  0  0  0  0  0  0  0  0  0  0
   -3.7936   -7.5250    2.8212 C   0  0  0  0  0  0  0  0  0  0  0  0
   -0.8378   -4.8783    1.8874 C   0  0  0  0  0  0  0  0  0  0  0  0
   -0.9632   -3.2481    2.4516 S   0  0  0  0  0  0  0  0  0  0  0  0
   -0.1688   -2.6590    0.9898 C   0  0  0  0  0  0  0  0  0  0  0  0
    0.2059   -3.6942    0.1374 C   0  0  0  0  0  0  0  0  0  0  0  0
    0.9352   -3.5741   -1.0293 N   0  0  0  0  0  0  0  0  0  0  0  0
    2.0107   -2.6862   -1.1431 C   0  0  0  0  0  0  0  0  0  0  0  0
    2.7679   -2.3162   -0.0350 C   0  0  0  0  0  0  0  0  0  0  0  0
    3.7922   -1.3971   -0.1536 C   0  0  0  0  0  0  0  0  0  0  0  0
    4.0923   -0.8455   -1.3916 C   0  0  0  0  0  0  0  0  0  0  0  0
    5.3365    0.3778   -1.6616 S   0  0  0  0  0  0  0  0  0  0  0  0
    6.0940    0.6022   -0.0276 C   0  0  0  0  0  0  0  0  0  0  0  0
    3.3654   -1.2466   -2.5136 C   0  0  0  0  0  0  0  0  0  0  0  0
    2.3353   -2.1505   -2.3918 C   0  0  0  0  0  0  0  0  0  0  0  0
    0.7355   -4.5497   -2.0240 C   0  0  0  0  0  0  0  0  0  0  0  0
   -0.5593   -4.9117   -2.3852 C   0  0  0  0  0  0  0  0  0  0  0  0
   -0.7755   -5.9410   -3.2786 C   0  0  0  0  0  0  0  0  0  0  0  0
    0.3037   -6.6212   -3.8248 C   0  0  0  0  0  0  0  0  0  0  0  0
    0.1028   -7.9941   -4.9151 S   0  0  0  0  0  0  0  0  0  0  0  0
   -1.4464   -8.7223   -4.3009 C   0  0  0  0  0  0  0  0  0  0  0  0
    1.5996   -6.2179   -3.5180 C   0  0  0  0  0  0  0  0  0  0  0  0
    1.8164   -5.1935   -2.6236 C   0  0  0  0  0  0  0  0  0  0  0  0
   -0.2141   -4.9511    0.6501 C   0  0  0  0  0  0  0  0  0  0  0  0
   -0.1616   -6.5669    0.0402 S   0  0  0  0  0  0  0  0  0  0  0  0
   -0.0544   -1.2461    0.8922 C   0  0  0  0  0  0  0  0  0  0  0  0
   -0.2573   -0.3875    1.9401 C   0  0  0  0  0  0  0  0  0  0  0  0
   -0.1730    0.9779    1.6014 C   0  0  0  0  0  0  0  0  0  0  0  0
   -0.3780    2.0962    2.4388 C   0  0  0  0  0  0  0  0  0  0  0  0
   -0.8771    1.9565    3.7866 C   0  0  0  0  0  0  0  0  0  0  0  0
   -0.6575    2.7475    4.8821 C   0  0  0  0  0  0  0  0  0  0  0  0
   -1.4042    2.3480    6.0024 C   0  0  0  0  0  0  0  0  0  0  0  0
   -1.3262    2.9833    7.1799 F   0  0  0  0  0  0  0  0  0  0  0  0
   -2.2213    1.2674    5.7929 C   0  0  0  0  0  0  0  0  0  0  0  0
   -3.2349    0.4924    6.9808 S   0  0  0  0  0  0  0  0  0  0  0  0
   -4.3058   -0.5507    5.9261 C   0  0  0  0  0  0  0  0  0  0  0  0
   -5.3331    0.2635    5.1656 C   0  0  0  0  0  0  0  0  0  0  0  0
   -2.0343    0.7011    4.1668 S   0  0  0  0  0  0  0  0  0  0  0  0
   -0.1398    3.3453    1.8666 C   0  0  0  0  0  0  0  0  0  0  0  0
    0.2220    3.5175    0.5067 C   0  0  0  0  0  0  0  0  0  0  0  0
    0.3576    2.3998   -0.3454 C   0  0  0  0  0  0  0  0  0  0  0  0
    0.6709    2.5203   -1.7530 C   0  0  0  0  0  0  0  0  0  0  0  0
   -0.0911    3.7223   -2.7595 S   0  0  0  0  0  0  0  0  0  0  0  0
    0.6793    3.0993   -4.1905 C   0  0  0  0  0  0  0  0  0  0  0  0
    0.4905    3.8103   -5.7744 S   0  0  0  0  0  0  0  0  0  0  0  0
   -1.3110    4.1412   -5.7708 C   0  0  0  0  0  0  0  0  0  0  0  0
   -2.1198    2.8606   -5.7539 C   0  0  0  0  0  0  0  0  0  0  0  0
    1.4993    2.0557   -3.8556 C   0  0  0  0  0  0  0  0  0  0  0  0
    1.4936    1.7170   -2.4922 C   0  0  0  0  0  0  0  0  0  0  0  0
    2.2331    1.3842   -4.7529 F   0  0  0  0  0  0  0  0  0  0  0  0
    0.1651    1.1535    0.2361 C   0  0  0  0  0  0  0  0  0  0  0  0
    0.2576   -0.3772   -0.5959 S   0  0  0  0  0  0  0  0  0  0  0  0
    0.4120    4.8766    0.1788 C   0  0  0  0  0  0  0  0  0  0  0  0
    0.1899    5.7417    1.2153 C   0  0  0  0  0  0  0  0  0  0  0  0
   -0.2801    4.8753    2.6707 S   0  0  0  0  0  0  0  0  0  0  0  0
    0.3192    7.1755    1.2086 C   0  0  0  0  0  0  0  0  0  0  0  0
   -0.0084    7.9462    2.3184 C   0  0  0  0  0  0  0  0  0  0  0  0
   -0.4378    7.3629    3.4506 F   0  0  0  0  0  0  0  0  0  0  0  0
    0.0607    9.3418    2.3273 C   0  0  0  0  0  0  0  0  0  0  0  0
   -0.3157    9.9845    3.4410 F   0  0  0  0  0  0  0  0  0  0  0  0
    0.4530   10.0677    1.2201 C   0  0  0  0  0  0  0  0  0  0  0  0
    0.8694    9.3167    0.0820 C   0  0  0  0  0  0  0  0  0  0  0  0
    1.3962    9.9706   -0.9647 N   0  0  0  0  0  0  0  0  0  0  0  0
    1.7341    9.3226   -2.0481 C   0  0  0  0  0  0  0  0  0  0  0  0
    2.3767   10.1266   -3.1372 C   0  0  0  0  0  0  0  0  0  0  0  0
    3.8996   10.1096   -2.9847 C   0  0  0  0  0  0  0  0  0  0  0  0
    1.5378    7.9151   -2.1163 C   0  0  0  0  0  0  0  0  0  0  0  0
    1.1124    7.2565   -1.0691 N   0  0  0  0  0  0  0  0  0  0  0  0
    0.7790    7.9014    0.0603 C   0  0  0  0  0  0  0  0  0  0  0  0
    1.7614    7.1151   -3.3620 C   0  0  0  0  0  0  0  0  0  0  0  0
    0.5064    7.1735   -4.2365 C   0  0  0  0  0  0  0  0  0  0  0  0
    0.5476   11.5048    1.2253 C   0  0  0  0  0  0  0  0  0  0  0  0
    0.2991   12.2474    0.1240 C   0  0  0  0  0  0  0  0  0  0  0  0
   -0.3941   11.7366   -1.0967 C   0  0  0  0  0  0  0  0  0  0  0  0
   -1.1568   10.7982   -1.1746 O   0  0  0  0  0  0  0  0  0  0  0  0
   -0.1068   12.7304   -2.1479 C   0  0  0  0  0  0  0  0  0  0  0  0
   -0.4091   12.6284   -3.5042 C   0  0  0  0  0  0  0  0  0  0  0  0
   -0.0053   13.7075   -4.2518 C   0  0  0  0  0  0  0  0  0  0  0  0
    0.6404   14.8184   -3.6898 C   0  0  0  0  0  0  0  0  0  0  0  0
    0.9211   14.9450   -2.3514 C   0  0  0  0  0  0  0  0  0  0  0  0
    0.5252   13.8521   -1.5721 C   0  0  0  0  0  0  0  0  0  0  0  0
    0.6788   13.6275   -0.1380 C   0  0  0  0  0  0  0  0  0  0  0  0
    1.1085   14.5453    0.7796 C   0  0  0  0  0  0  0  0  0  0  0  0
    1.4564   15.8784    0.4725 C   0  0  0  0  0  0  0  0  0  0  0  0
    1.7475   16.9736    0.2904 N   0  0  0  0  0  0  0  0  0  0  0  0
    1.2334   14.3022    2.1652 C   0  0  0  0  0  0  0  0  0  0  0  0
    1.3687   14.1789    3.2980 N   0  0  0  0  0  0  0  0  0  0  0  0
    0.7817   15.5098   -5.0223 C   0  0  0  0  0  0  0  0  0  0  0  0
    2.1709   15.4743   -5.7065 C   0  0  0  0  0  0  0  0  0  0  0  0
    2.8642   14.2291   -5.2119 C   0  0  0  0  0  0  0  0  0  0  0  0
    2.2492   13.1832   -5.7477 C   0  0  0  0  0  0  0  0  0  0  0  0
    1.1266   13.7022   -6.6115 C   0  0  0  0  0  0  0  0  0  0  0  0
    1.7547   15.0125   -7.1124 C   0  0  0  0  0  0  0  0  0  0  0  0
    0.0580   14.2757   -5.6474 C   0  0  0  0  0  0  0  0  0  0  0  0
   -1.3538   -8.6988    2.8660 H   0  0  0  0  0  0  0  0  0  0  0  0
    0.1045  -10.9609   -2.8101 H   0  0  0  0  0  0  0  0  0  0  0  0
   -0.8700  -13.9144    1.1886 H   0  0  0  0  0  0  0  0  0  0  0  0
   -1.0910  -15.7190   -1.7216 H   0  0  0  0  0  0  0  0  0  0  0  0
    1.2015  -16.3038   -0.4996 H   0  0  0  0  0  0  0  0  0  0  0  0
    1.0085  -17.7964   -2.6533 H   0  0  0  0  0  0  0  0  0  0  0  0
    1.5471  -16.2759   -4.7644 H   0  0  0  0  0  0  0  0  0  0  0  0
    2.0694  -13.8465   -3.9107 H   0  0  0  0  0  0  0  0  0  0  0  0
    3.1499  -15.1793   -1.8954 H   0  0  0  0  0  0  0  0  0  0  0  0
    2.1277  -13.8879   -1.2248 H   0  0  0  0  0  0  0  0  0  0  0  0
   -0.5641  -14.2372   -3.7982 H   0  0  0  0  0  0  0  0  0  0  0  0
    0.5450   -5.4525    4.2801 H   0  0  0  0  0  0  0  0  0  0  0  0
    1.1158   -3.7905    6.0093 H   0  0  0  0  0  0  0  0  0  0  0  0
   -2.0750   -3.2271    9.2273 H   0  0  0  0  0  0  0  0  0  0  0  0
   -1.3923   -1.7034    9.8429 H   0  0  0  0  0  0  0  0  0  0  0  0
   -2.6005   -1.6477    8.5482 H   0  0  0  0  0  0  0  0  0  0  0  0
   -3.0290   -3.3764    6.9696 H   0  0  0  0  0  0  0  0  0  0  0  0
   -3.5959   -5.0054    5.2386 H   0  0  0  0  0  0  0  0  0  0  0  0
   -2.3572   -7.5348    5.8839 H   0  0  0  0  0  0  0  0  0  0  0  0
   -4.1372   -9.1888    6.2690 H   0  0  0  0  0  0  0  0  0  0  0  0
   -7.4396   -9.8269    2.6920 H   0  0  0  0  0  0  0  0  0  0  0  0
   -6.1129  -10.9889    2.3583 H   0  0  0  0  0  0  0  0  0  0  0  0
   -7.5571  -11.5071    3.2553 H   0  0  0  0  0  0  0  0  0  0  0  0
   -5.4554   -8.7025    2.2272 H   0  0  0  0  0  0  0  0  0  0  0  0
   -3.7064   -7.0515    1.8542 H   0  0  0  0  0  0  0  0  0  0  0  0
    2.5495   -2.7422    0.9331 H   0  0  0  0  0  0  0  0  0  0  0  0
    4.3471   -1.1238    0.7293 H   0  0  0  0  0  0  0  0  0  0  0  0
    6.8820    1.3351   -0.1707 H   0  0  0  0  0  0  0  0  0  0  0  0
    6.5215   -0.3353    0.3155 H   0  0  0  0  0  0  0  0  0  0  0  0
    5.3598    0.9845    0.6760 H   0  0  0  0  0  0  0  0  0  0  0  0
    3.6075   -0.8231   -3.4764 H   0  0  0  0  0  0  0  0  0  0  0  0
    1.7619   -2.4372   -3.2597 H   0  0  0  0  0  0  0  0  0  0  0  0
   -1.3985   -4.3885   -1.9499 H   0  0  0  0  0  0  0  0  0  0  0  0
   -1.7868   -6.2104   -3.5372 H   0  0  0  0  0  0  0  0  0  0  0  0
   -2.3033   -8.1663   -4.6704 H   0  0  0  0  0  0  0  0  0  0  0  0
   -1.4119   -8.7256   -3.2152 H   0  0  0  0  0  0  0  0  0  0  0  0
   -1.4796   -9.7369   -4.6862 H   0  0  0  0  0  0  0  0  0  0  0  0
    2.4331   -6.7379   -3.9642 H   0  0  0  0  0  0  0  0  0  0  0  0
    2.8235   -4.9076   -2.3588 H   0  0  0  0  0  0  0  0  0  0  0  0
   -0.4202   -0.7529    2.9374 H   0  0  0  0  0  0  0  0  0  0  0  0
    0.0277    3.5734    4.9144 H   0  0  0  0  0  0  0  0  0  0  0  0
   -3.6577   -1.1211    5.2596 H   0  0  0  0  0  0  0  0  0  0  0  0
   -4.7916   -1.2298    6.6268 H   0  0  0  0  0  0  0  0  0  0  0  0
   -4.8495    0.9559    4.4807 H   0  0  0  0  0  0  0  0  0  0  0  0
   -5.9529    0.8315    5.8554 H   0  0  0  0  0  0  0  0  0  0  0  0
   -5.9712   -0.4014    4.5876 H   0  0  0  0  0  0  0  0  0  0  0  0
   -1.4827    4.7083   -6.6848 H   0  0  0  0  0  0  0  0  0  0  0  0
   -1.5281    4.7706   -4.9082 H   0  0  0  0  0  0  0  0  0  0  0  0
   -1.9279    2.2963   -4.8433 H   0  0  0  0  0  0  0  0  0  0  0  0
   -3.1813    3.0954   -5.7964 H   0  0  0  0  0  0  0  0  0  0  0  0
   -1.8647    2.2373   -6.6078 H   0  0  0  0  0  0  0  0  0  0  0  0
    2.0913    0.9197   -2.0925 H   0  0  0  0  0  0  0  0  0  0  0  0
    0.7167    5.2299   -0.7866 H   0  0  0  0  0  0  0  0  0  0  0  0
    2.0968    9.7341   -4.1148 H   0  0  0  0  0  0  0  0  0  0  0  0
    2.0226   11.1554   -3.0547 H   0  0  0  0  0  0  0  0  0  0  0  0
    4.2877    9.0955   -3.0529 H   0  0  0  0  0  0  0  0  0  0  0  0
    4.3596   10.7113   -3.7647 H   0  0  0  0  0  0  0  0  0  0  0  0
    4.1807   10.5208   -2.0183 H   0  0  0  0  0  0  0  0  0  0  0  0
    1.9529    6.0790   -3.0814 H   0  0  0  0  0  0  0  0  0  0  0  0
    2.6203    7.4908   -3.9171 H   0  0  0  0  0  0  0  0  0  0  0  0
    0.6628    6.6010   -5.1468 H   0  0  0  0  0  0  0  0  0  0  0  0
    0.2648    8.1998   -4.5039 H   0  0  0  0  0  0  0  0  0  0  0  0
   -0.3384    6.7548   -3.6947 H   0  0  0  0  0  0  0  0  0  0  0  0
    0.9007   11.9601    2.1411 H   0  0  0  0  0  0  0  0  0  0  0  0
   -0.9090   11.7556   -3.8946 H   0  0  0  0  0  0  0  0  0  0  0  0
    1.4115   15.8083   -1.9333 H   0  0  0  0  0  0  0  0  0  0  0  0
    0.3018   16.4823   -5.1094 H   0  0  0  0  0  0  0  0  0  0  0  0
    2.7351   16.3997   -5.6296 H   0  0  0  0  0  0  0  0  0  0  0  0
    3.6704   14.2348   -4.5018 H   0  0  0  0  0  0  0  0  0  0  0  0
    2.4399   12.1399   -5.5768 H   0  0  0  0  0  0  0  0  0  0  0  0
    0.7386   13.0152   -7.3590 H   0  0  0  0  0  0  0  0  0  0  0  0
    2.6060   14.8467   -7.7708 H   0  0  0  0  0  0  0  0  0  0  0  0
    1.0413   15.6793   -7.5943 H   0  0  0  0  0  0  0  0  0  0  0  0
   -0.8985   14.4414   -6.1390 H   0  0  0  0  0  0  0  0  0  0  0  0
  1  2  2  0  0  0  0
  2  3  1  0  0  0  0
  3  4  2  0  0  0  0
  3  5  1  0  0  0  0
  5  6  2  0  0  0  0
  6  7  1  0  0  0  0
  7  8  2  0  0  0  0
  8  9  1  0  0  0  0
  9 10  2  0  0  0  0
 10 11  1  0  0  0  0
 11 12  2  0  0  0  0
 12 13  1  0  0  0  0
 13 14  3  0  0  0  0
 12 15  1  0  0  0  0
 15 16  3  0  0  0  0
  8 17  1  0  0  0  0
 17 18  1  0  0  0  0
 18 19  1  0  0  0  0
 19 20  2  0  0  0  0
 20 21  1  0  0  0  0
 21 22  1  0  0  0  0
 21 23  1  0  0  0  0
  1 24  1  0  0  0  0
 24 25  2  0  0  0  0
 25 26  1  0  0  0  0
 26 27  1  0  0  0  0
 27 28  2  0  0  0  0
 28 29  1  0  0  0  0
 29 30  2  0  0  0  0
 30 31  1  0  0  0  0
 31 32  1  0  0  0  0
 30 33  1  0  0  0  0
 33 34  2  0  0  0  0
 26 35  1  0  0  0  0
 35 36  2  0  0  0  0
 36 37  1  0  0  0  0
 37 38  2  0  0  0  0
 38 39  1  0  0  0  0
 39 40  1  0  0  0  0
 38 41  1  0  0  0  0
 41 42  2  0  0  0  0
 25 43  1  0  0  0  0
 43 44  1  0  0  0  0
 44 45  1  0  0  0  0
 45 46  2  0  0  0  0
 46 47  1  0  0  0  0
 47 48  1  0  0  0  0
 48 49  2  0  0  0  0
 49 50  1  0  0  0  0
 50 51  2  0  0  0  0
 51 52  1  0  0  0  0
 52 53  1  0  0  0  0
 51 54  1  0  0  0  0
 54 55  2  0  0  0  0
 47 56  1  0  0  0  0
 56 57  2  0  0  0  0
 57 58  1  0  0  0  0
 58 59  2  0  0  0  0
 59 60  1  0  0  0  0
 60 61  1  0  0  0  0
 59 62  1  0  0  0  0
 62 63  2  0  0  0  0
 46 64  1  0  0  0  0
 64 65  1  0  0  0  0
 45 66  1  0  0  0  0
 66 67  2  0  0  0  0
 67 68  1  0  0  0  0
 68 69  2  0  0  0  0
 69 70  1  0  0  0  0
 70 71  2  0  0  0  0
 71 72  1  0  0  0  0
 72 73  1  0  0  0  0
 72 74  2  0  0  0  0
 74 75  1  0  0  0  0
 75 76  1  0  0  0  0
 76 77  1  0  0  0  0
 74 78  1  0  0  0  0
 69 79  1  0  0  0  0
 79 80  2  0  0  0  0
 80 81  1  0  0  0  0
 81 82  1  0  0  0  0
 82 83  1  0  0  0  0
 83 84  1  0  0  0  0
 84 85  1  0  0  0  0
 85 86  1  0  0  0  0
 86 87  1  0  0  0  0
 84 88  2  0  0  0  0
 88 89  1  0  0  0  0
 88 90  1  0  0  0  0
 81 91  2  0  0  0  0
 91 92  1  0  0  0  0
 80 93  1  0  0  0  0
 93 94  2  0  0  0  0
 94 95  1  0  0  0  0
 94 96  1  0  0  0  0
 96 97  2  0  0  0  0
 97 98  1  0  0  0  0
 97 99  1  0  0  0  0
 99100  1  0  0  0  0
 99101  2  0  0  0  0
101102  1  0  0  0  0
102103  2  0  0  0  0
103104  1  0  0  0  0
104105  1  0  0  0  0
105106  1  0  0  0  0
104107  2  0  0  0  0
107108  1  0  0  0  0
108109  2  0  0  0  0
107110  1  0  0  0  0
110111  1  0  0  0  0
101112  1  0  0  0  0
112113  2  0  0  0  0
113114  1  0  0  0  0
114115  2  0  0  0  0
114116  1  0  0  0  0
116117  2  0  0  0  0
117118  1  0  0  0  0
118119  2  0  0  0  0
119120  1  0  0  0  0
120121  2  0  0  0  0
121122  1  0  0  0  0
122123  2  0  0  0  0
123124  1  0  0  0  0
124125  3  0  0  0  0
123126  1  0  0  0  0
126127  3  0  0  0  0
119128  1  0  0  0  0
128129  1  0  0  0  0
129130  1  0  0  0  0
130131  2  0  0  0  0
131132  1  0  0  0  0
132133  1  0  0  0  0
132134  1  0  0  0  0
 11  2  1  0  0  0  0
 23 17  1  0  0  0  0
 65 24  1  0  0  0  0
 92 66  1  0  0  0  0
109 96  1  0  0  0  0
122113  1  0  0  0  0
134128  1  0  0  0  0
 10  5  1  0  0  0  0
 22 18  1  0  0  0  0
 34 27  1  0  0  0  0
 42 35  1  0  0  0  0
 64 43  2  0  0  0  0
 91 68  1  0  0  0  0
109102  1  0  0  0  0
121116  1  0  0  0  0
133129  1  0  0  0  0
 23  7  1  0  0  0  0
 55 48  1  0  0  0  0
 63 56  1  0  0  0  0
 78 70  1  0  0  0  0
 95 79  1  0  0  0  0
134118  1  0  0  0  0
 89 82  2  0  0  0  0
  1135  1  0  0  0  0
  6136  1  0  0  0  0
  9137  1  0  0  0  0
 17138  1  0  0  0  0
 18139  1  0  0  0  0
 19140  1  0  0  0  0
 20141  1  0  0  0  0
 21142  1  0  0  0  0
 22143  1  0  0  0  0
 22144  1  0  0  0  0
 23145  1  0  0  0  0
 28146  1  0  0  0  0
 29147  1  0  0  0  0
 32148  1  0  0  0  0
 32149  1  0  0  0  0
 32150  1  0  0  0  0
 33151  1  0  0  0  0
 34152  1  0  0  0  0
 36153  1  0  0  0  0
 37154  1  0  0  0  0
 40155  1  0  0  0  0
 40156  1  0  0  0  0
 40157  1  0  0  0  0
 41158  1  0  0  0  0
 42159  1  0  0  0  0
 49160  1  0  0  0  0
 50161  1  0  0  0  0
 53162  1  0  0  0  0
 53163  1  0  0  0  0
 53164  1  0  0  0  0
 54165  1  0  0  0  0
 55166  1  0  0  0  0
 57167  1  0  0  0  0
 58168  1  0  0  0  0
 61169  1  0  0  0  0
 61170  1  0  0  0  0
 61171  1  0  0  0  0
 62172  1  0  0  0  0
 63173  1  0  0  0  0
 67174  1  0  0  0  0
 71175  1  0  0  0  0
 76176  1  0  0  0  0
 76177  1  0  0  0  0
 77178  1  0  0  0  0
 77179  1  0  0  0  0
 77180  1  0  0  0  0
 86181  1  0  0  0  0
 86182  1  0  0  0  0
 87183  1  0  0  0  0
 87184  1  0  0  0  0
 87185  1  0  0  0  0
 89186  1  0  0  0  0
 93187  1  0  0  0  0
105188  1  0  0  0  0
105189  1  0  0  0  0
106190  1  0  0  0  0
106191  1  0  0  0  0
106192  1  0  0  0  0
110193  1  0  0  0  0
110194  1  0  0  0  0
111195  1  0  0  0  0
111196  1  0  0  0  0
111197  1  0  0  0  0
112198  1  0  0  0  0
117199  1  0  0  0  0
120200  1  0  0  0  0
128201  1  0  0  0  0
129202  1  0  0  0  0
130203  1  0  0  0  0
131204  1  0  0  0  0
132205  1  0  0  0  0
133206  1  0  0  0  0
133207  1  0  0  0  0
134208  1  0  0  0  0
M  END
