
  xtb     02142221403D
 energy: -381.571922231735 gnorm: 0.000954627746 xtb: 6.4.1 (unknown)
235259  0     0  0            999 V2000
    5.9933   -3.1476    5.8802 C   0  0  0  0  0  0  0  0  0  0  0  0
    6.0344   -3.2104    7.2483 C   0  0  0  0  0  0  0  0  0  0  0  0
    7.2341   -2.7443    7.9778 C   0  0  0  0  0  0  0  0  0  0  0  0
    8.3386   -2.5404    7.5175 O   0  0  0  0  0  0  0  0  0  0  0  0
    6.7723   -2.4923    9.3602 C   0  0  0  0  0  0  0  0  0  0  0  0
    7.4925   -1.9074   10.3996 C   0  0  0  0  0  0  0  0  0  0  0  0
    6.7815   -1.7746   11.5692 C   0  0  0  0  0  0  0  0  0  0  0  0
    5.4525   -2.1975   11.7027 C   0  0  0  0  0  0  0  0  0  0  0  0
    4.7294   -2.7816   10.6897 C   0  0  0  0  0  0  0  0  0  0  0  0
    5.4323   -2.9145    9.4904 C   0  0  0  0  0  0  0  0  0  0  0  0
    5.0026   -3.4845    8.2165 C   0  0  0  0  0  0  0  0  0  0  0  0
    3.9399   -4.3383    8.0422 C   0  0  0  0  0  0  0  0  0  0  0  0
    3.7558   -5.0890    6.8649 C   0  0  0  0  0  0  0  0  0  0  0  0
    3.6075   -5.7507    5.9373 N   0  0  0  0  0  0  0  0  0  0  0  0
    2.9638   -4.6112    9.0172 C   0  0  0  0  0  0  0  0  0  0  0  0
    2.1190   -4.8520    9.7575 N   0  0  0  0  0  0  0  0  0  0  0  0
    5.3711   -1.7571   13.1427 C   0  0  0  0  0  0  0  0  0  0  0  0
    5.4694   -2.8690   14.2080 C   0  0  0  0  0  0  0  0  0  0  0  0
    5.8417   -2.1273   15.4713 C   0  0  0  0  0  0  0  0  0  0  0  0
    7.1007   -1.7267   15.3480 C   0  0  0  0  0  0  0  0  0  0  0  0
    7.6004   -2.1911   13.9988 C   0  0  0  0  0  0  0  0  0  0  0  0
    6.8227   -3.5069   13.8682 C   0  0  0  0  0  0  0  0  0  0  0  0
    6.8543   -1.2864   12.9959 C   0  0  0  0  0  0  0  0  0  0  0  0
    4.8617   -2.9302    5.0818 C   0  0  0  0  0  0  0  0  0  0  0  0
    4.8300   -2.8094    3.6810 C   0  0  0  0  0  0  0  0  0  0  0  0
    5.8168   -3.2361    2.8417 N   0  0  0  0  0  0  0  0  0  0  0  0
    6.6117   -4.3660    3.1039 C   0  0  0  0  0  0  0  0  0  0  0  0
    7.9208   -4.4021    2.6352 C   0  0  0  0  0  0  0  0  0  0  0  0
    8.7202   -5.5065    2.8610 C   0  0  0  0  0  0  0  0  0  0  0  0
    8.2194   -6.5934    3.5639 C   0  0  0  0  0  0  0  0  0  0  0  0
    9.1398   -8.0538    3.9196 S   0  0  0  0  0  0  0  0  0  0  0  0
   10.8281   -7.6465    3.3890 C   0  0  0  0  0  0  0  0  0  0  0  0
    6.9005   -6.5645    4.0183 C   0  0  0  0  0  0  0  0  0  0  0  0
    6.1010   -5.4695    3.7884 C   0  0  0  0  0  0  0  0  0  0  0  0
    5.9776   -2.5902    1.5918 C   0  0  0  0  0  0  0  0  0  0  0  0
    5.7826   -3.2823    0.4035 C   0  0  0  0  0  0  0  0  0  0  0  0
    5.9561   -2.6470   -0.8108 C   0  0  0  0  0  0  0  0  0  0  0  0
    6.3474   -1.3141   -0.8486 C   0  0  0  0  0  0  0  0  0  0  0  0
    6.6233   -0.4069   -2.3305 S   0  0  0  0  0  0  0  0  0  0  0  0
    6.0719   -1.5277   -3.6439 C   0  0  0  0  0  0  0  0  0  0  0  0
    6.5671   -0.6278    0.3446 C   0  0  0  0  0  0  0  0  0  0  0  0
    6.3747   -1.2573    1.5549 C   0  0  0  0  0  0  0  0  0  0  0  0
    3.6171   -2.2202    3.2535 C   0  0  0  0  0  0  0  0  0  0  0  0
    2.9450   -1.7562    1.7291 S   0  0  0  0  0  0  0  0  0  0  0  0
    1.4407   -1.2417    2.5064 C   0  0  0  0  0  0  0  0  0  0  0  0
    1.4452   -1.5073    3.8650 C   0  0  0  0  0  0  0  0  0  0  0  0
    0.3995   -1.3127    4.7588 N   0  0  0  0  0  0  0  0  0  0  0  0
    0.7861   -1.0167    6.0847 C   0  0  0  0  0  0  0  0  0  0  0  0
    0.3745   -1.7870    7.1719 C   0  0  0  0  0  0  0  0  0  0  0  0
    0.8915   -1.5415    8.4259 C   0  0  0  0  0  0  0  0  0  0  0  0
    1.8203   -0.5217    8.6217 C   0  0  0  0  0  0  0  0  0  0  0  0
    2.4833   -0.3221   10.2472 S   0  0  0  0  0  0  0  0  0  0  0  0
    4.0241    0.5912    9.9431 C   0  0  0  0  0  0  0  0  0  0  0  0
    2.1851    0.2869    7.5546 C   0  0  0  0  0  0  0  0  0  0  0  0
    1.6731    0.0335    6.2984 C   0  0  0  0  0  0  0  0  0  0  0  0
   -0.8492   -1.9158    4.5471 C   0  0  0  0  0  0  0  0  0  0  0  0
   -0.9884   -3.0736    3.7844 C   0  0  0  0  0  0  0  0  0  0  0  0
   -2.2126   -3.7069    3.6938 C   0  0  0  0  0  0  0  0  0  0  0  0
   -3.3067   -3.1983    4.3775 C   0  0  0  0  0  0  0  0  0  0  0  0
   -4.8590   -4.0456    4.4234 S   0  0  0  0  0  0  0  0  0  0  0  0
   -4.3127   -5.7792    4.5419 C   0  0  0  0  0  0  0  0  0  0  0  0
   -3.1895   -2.0072    5.0860 C   0  0  0  0  0  0  0  0  0  0  0  0
   -1.9719   -1.3696    5.1688 C   0  0  0  0  0  0  0  0  0  0  0  0
    2.7082   -1.9991    4.2744 C   0  0  0  0  0  0  0  0  0  0  0  0
    3.3390   -2.4267    5.8171 S   0  0  0  0  0  0  0  0  0  0  0  0
    0.4845   -0.5871    1.6652 C   0  0  0  0  0  0  0  0  0  0  0  0
    0.8388    0.3616    0.7174 C   0  0  0  0  0  0  0  0  0  0  0  0
    2.1081    0.9258    0.6091 N   0  0  0  0  0  0  0  0  0  0  0  0
    2.6927    1.0298   -0.6536 C   0  0  0  0  0  0  0  0  0  0  0  0
    3.5557    2.0771   -0.9653 C   0  0  0  0  0  0  0  0  0  0  0  0
    4.0906    2.1964   -2.2322 C   0  0  0  0  0  0  0  0  0  0  0  0
    3.7652    1.2738   -3.2162 C   0  0  0  0  0  0  0  0  0  0  0  0
    4.3595    1.3603   -4.8790 S   0  0  0  0  0  0  0  0  0  0  0  0
    5.7787    2.4868   -4.7611 C   0  0  0  0  0  0  0  0  0  0  0  0
    2.9063    0.2224   -2.9096 C   0  0  0  0  0  0  0  0  0  0  0  0
    2.3837    0.0946   -1.6425 C   0  0  0  0  0  0  0  0  0  0  0  0
    2.7269    1.3929    1.7719 C   0  0  0  0  0  0  0  0  0  0  0  0
    4.0960    1.2232    1.9637 C   0  0  0  0  0  0  0  0  0  0  0  0
    4.6848    1.5742    3.1602 C   0  0  0  0  0  0  0  0  0  0  0  0
    3.9185    2.1135    4.1836 C   0  0  0  0  0  0  0  0  0  0  0  0
    4.6019    2.4774    5.7789 S   0  0  0  0  0  0  0  0  0  0  0  0
    5.7737    1.1010    5.9914 C   0  0  0  0  0  0  0  0  0  0  0  0
    2.5677    2.3681    3.9661 C   0  0  0  0  0  0  0  0  0  0  0  0
    1.9741    1.9999    2.7772 C   0  0  0  0  0  0  0  0  0  0  0  0
   -0.2594    0.7314   -0.0828 C   0  0  0  0  0  0  0  0  0  0  0  0
   -0.4601    1.8337   -1.3945 S   0  0  0  0  0  0  0  0  0  0  0  0
   -2.1619    1.3930   -1.5200 C   0  0  0  0  0  0  0  0  0  0  0  0
   -2.5501    0.4907   -0.5354 C   0  0  0  0  0  0  0  0  0  0  0  0
   -3.8456    0.0515   -0.3234 N   0  0  0  0  0  0  0  0  0  0  0  0
   -4.9132    0.9534   -0.4167 C   0  0  0  0  0  0  0  0  0  0  0  0
   -4.7487    2.2822   -0.0357 C   0  0  0  0  0  0  0  0  0  0  0  0
   -5.7775    3.1926   -0.1765 C   0  0  0  0  0  0  0  0  0  0  0  0
   -7.0006    2.7860   -0.6919 C   0  0  0  0  0  0  0  0  0  0  0  0
   -8.3795    3.8582   -0.9407 S   0  0  0  0  0  0  0  0  0  0  0  0
   -7.8568    5.4265   -0.1884 C   0  0  0  0  0  0  0  0  0  0  0  0
   -7.1772    1.4524   -1.0579 C   0  0  0  0  0  0  0  0  0  0  0  0
   -6.1488    0.5478   -0.9269 C   0  0  0  0  0  0  0  0  0  0  0  0
   -4.0595   -1.2881    0.0228 C   0  0  0  0  0  0  0  0  0  0  0  0
   -3.2439   -2.2877   -0.5078 C   0  0  0  0  0  0  0  0  0  0  0  0
   -3.4668   -3.6084   -0.1882 C   0  0  0  0  0  0  0  0  0  0  0  0
   -4.5188   -3.9606    0.6515 C   0  0  0  0  0  0  0  0  0  0  0  0
   -4.7486   -5.6841    0.9675 S   0  0  0  0  0  0  0  0  0  0  0  0
   -6.4696   -5.7764    1.5395 C   0  0  0  0  0  0  0  0  0  0  0  0
   -5.3222   -2.9694    1.1981 C   0  0  0  0  0  0  0  0  0  0  0  0
   -5.0860   -1.6449    0.8932 C   0  0  0  0  0  0  0  0  0  0  0  0
   -1.4450    0.1044    0.2631 C   0  0  0  0  0  0  0  0  0  0  0  0
   -1.2345   -0.9585    1.6174 S   0  0  0  0  0  0  0  0  0  0  0  0
   -2.8903    1.9280   -2.6158 C   0  0  0  0  0  0  0  0  0  0  0  0
   -4.2532    1.1029   -3.3257 S   0  0  0  0  0  0  0  0  0  0  0  0
   -4.3507    2.2961   -4.5680 C   0  0  0  0  0  0  0  0  0  0  0  0
   -5.2138    2.3600   -5.6826 C   0  0  0  0  0  0  0  0  0  0  0  0
   -5.0267    3.4169   -6.5803 C   0  0  0  0  0  0  0  0  0  0  0  0
   -3.5735    4.5700   -5.9222 Ge  0  0  0  0  0  4  0  0  0  0  0  0
   -2.0138    4.5980   -7.1858 C   0  0  0  0  0  0  0  0  0  0  0  0
   -2.4333    4.8780   -8.6217 C   0  0  0  0  0  0  0  0  0  0  0  0
   -4.2406    6.3528   -5.2808 C   0  0  0  0  0  0  0  0  0  0  0  0
   -4.6267    7.2888   -6.4153 C   0  0  0  0  0  0  0  0  0  0  0  0
   -3.3789    3.2836   -4.4355 C   0  0  0  0  0  0  0  0  0  0  0  0
   -2.5568    3.0607   -3.3386 C   0  0  0  0  0  0  0  0  0  0  0  0
   -5.8522    3.3238   -7.6843 C   0  0  0  0  0  0  0  0  0  0  0  0
   -6.6840    2.2082   -7.6675 C   0  0  0  0  0  0  0  0  0  0  0  0
   -6.4478    1.2827   -6.1862 S   0  0  0  0  0  0  0  0  0  0  0  0
   -7.6312    1.7228   -8.5824 C   0  0  0  0  0  0  0  0  0  0  0  0
   -7.8203    2.0290   -9.9069 C   0  0  0  0  0  0  0  0  0  0  0  0
   -6.9231    2.7892  -10.8020 C   0  0  0  0  0  0  0  0  0  0  0  0
   -5.9713    3.4908  -10.5179 O   0  0  0  0  0  0  0  0  0  0  0  0
   -7.3850    2.4977  -12.1738 C   0  0  0  0  0  0  0  0  0  0  0  0
   -6.7896    2.9246  -13.3588 C   0  0  0  0  0  0  0  0  0  0  0  0
   -7.4217    2.4781  -14.4940 C   0  0  0  0  0  0  0  0  0  0  0  0
   -8.5643    1.6685  -14.4549 C   0  0  0  0  0  0  0  0  0  0  0  0
   -9.1662    1.2473  -13.2930 C   0  0  0  0  0  0  0  0  0  0  0  0
   -8.5360    1.6890  -12.1256 C   0  0  0  0  0  0  0  0  0  0  0  0
   -8.8671    1.4464  -10.7239 C   0  0  0  0  0  0  0  0  0  0  0  0
  -10.0133    0.8426  -10.2724 C   0  0  0  0  0  0  0  0  0  0  0  0
  -11.0114    0.3028  -11.1087 C   0  0  0  0  0  0  0  0  0  0  0  0
  -11.8621   -0.1592  -11.7271 N   0  0  0  0  0  0  0  0  0  0  0  0
  -10.3905    0.7174   -8.9188 C   0  0  0  0  0  0  0  0  0  0  0  0
  -10.7863    0.5889   -7.8480 N   0  0  0  0  0  0  0  0  0  0  0  0
   -8.6528    1.5821  -15.9586 C   0  0  0  0  0  0  0  0  0  0  0  0
   -8.1626    0.2684  -16.6035 C   0  0  0  0  0  0  0  0  0  0  0  0
   -7.9145    0.6438  -18.0465 C   0  0  0  0  0  0  0  0  0  0  0  0
   -6.8323    1.4107  -18.0836 C   0  0  0  0  0  0  0  0  0  0  0  0
   -6.3312    1.5668  -16.6660 C   0  0  0  0  0  0  0  0  0  0  0  0
   -6.7161    0.1948  -16.0977 C   0  0  0  0  0  0  0  0  0  0  0  0
   -7.3790    2.4856  -16.0022 C   0  0  0  0  0  0  0  0  0  0  0  0
    6.9553   -3.0946    5.3812 H   0  0  0  0  0  0  0  0  0  0  0  0
    8.5167   -1.5981   10.2600 H   0  0  0  0  0  0  0  0  0  0  0  0
    3.7028   -3.0888   10.7969 H   0  0  0  0  0  0  0  0  0  0  0  0
    4.6051   -1.0179   13.3701 H   0  0  0  0  0  0  0  0  0  0  0  0
    4.6047   -3.5245   14.2606 H   0  0  0  0  0  0  0  0  0  0  0  0
    5.1565   -1.9284   16.2744 H   0  0  0  0  0  0  0  0  0  0  0  0
    7.6773   -1.1265   16.0272 H   0  0  0  0  0  0  0  0  0  0  0  0
    8.6781   -2.2298   13.8632 H   0  0  0  0  0  0  0  0  0  0  0  0
    7.1297   -4.2416   14.6107 H   0  0  0  0  0  0  0  0  0  0  0  0
    6.8667   -3.9520   12.8760 H   0  0  0  0  0  0  0  0  0  0  0  0
    7.0818   -0.2295   13.1266 H   0  0  0  0  0  0  0  0  0  0  0  0
    8.3197   -3.5565    2.0941 H   0  0  0  0  0  0  0  0  0  0  0  0
    9.7307   -5.5003    2.4861 H   0  0  0  0  0  0  0  0  0  0  0  0
   11.4382   -8.4954    3.6818 H   0  0  0  0  0  0  0  0  0  0  0  0
   11.1685   -6.7522    3.9023 H   0  0  0  0  0  0  0  0  0  0  0  0
   10.8645   -7.5235    2.3103 H   0  0  0  0  0  0  0  0  0  0  0  0
    6.5066   -7.4166    4.5496 H   0  0  0  0  0  0  0  0  0  0  0  0
    5.0827   -5.4710    4.1450 H   0  0  0  0  0  0  0  0  0  0  0  0
    5.4902   -4.3211    0.4351 H   0  0  0  0  0  0  0  0  0  0  0  0
    5.7884   -3.2027   -1.7187 H   0  0  0  0  0  0  0  0  0  0  0  0
    6.7270   -2.3924   -3.6976 H   0  0  0  0  0  0  0  0  0  0  0  0
    6.1350   -0.9566   -4.5649 H   0  0  0  0  0  0  0  0  0  0  0  0
    5.0404   -1.8139   -3.4633 H   0  0  0  0  0  0  0  0  0  0  0  0
    6.9008    0.3984    0.3029 H   0  0  0  0  0  0  0  0  0  0  0  0
    6.5425   -0.7318    2.4828 H   0  0  0  0  0  0  0  0  0  0  0  0
   -0.3179   -2.6020    7.0251 H   0  0  0  0  0  0  0  0  0  0  0  0
    0.6049   -2.1622    9.2606 H   0  0  0  0  0  0  0  0  0  0  0  0
    4.5851    0.5465   10.8712 H   0  0  0  0  0  0  0  0  0  0  0  0
    4.5823    0.0983    9.1524 H   0  0  0  0  0  0  0  0  0  0  0  0
    3.8121    1.6260    9.6902 H   0  0  0  0  0  0  0  0  0  0  0  0
    2.8704    1.1090    7.6803 H   0  0  0  0  0  0  0  0  0  0  0  0
    1.9803    0.6371    5.4588 H   0  0  0  0  0  0  0  0  0  0  0  0
   -0.1296   -3.4978    3.2855 H   0  0  0  0  0  0  0  0  0  0  0  0
   -2.3018   -4.6078    3.1073 H   0  0  0  0  0  0  0  0  0  0  0  0
   -5.1635   -6.3406    4.9151 H   0  0  0  0  0  0  0  0  0  0  0  0
   -3.4883   -5.8393    5.2450 H   0  0  0  0  0  0  0  0  0  0  0  0
   -4.0214   -6.1540    3.5651 H   0  0  0  0  0  0  0  0  0  0  0  0
   -4.0550   -1.6026    5.5877 H   0  0  0  0  0  0  0  0  0  0  0  0
   -1.8682   -0.4620    5.7442 H   0  0  0  0  0  0  0  0  0  0  0  0
    3.7954    2.8144   -0.2137 H   0  0  0  0  0  0  0  0  0  0  0  0
    4.7488    3.0236   -2.4429 H   0  0  0  0  0  0  0  0  0  0  0  0
    6.2904    2.4182   -5.7162 H   0  0  0  0  0  0  0  0  0  0  0  0
    5.4385    3.5059   -4.6017 H   0  0  0  0  0  0  0  0  0  0  0  0
    6.4337    2.1558   -3.9604 H   0  0  0  0  0  0  0  0  0  0  0  0
    2.6537   -0.4927   -3.6781 H   0  0  0  0  0  0  0  0  0  0  0  0
    1.7345   -0.7359   -1.4079 H   0  0  0  0  0  0  0  0  0  0  0  0
    4.6849    0.7836    1.1752 H   0  0  0  0  0  0  0  0  0  0  0  0
    5.7439    1.4206    3.2955 H   0  0  0  0  0  0  0  0  0  0  0  0
    6.0354    1.0849    7.0449 H   0  0  0  0  0  0  0  0  0  0  0  0
    6.6708    1.2650    5.4017 H   0  0  0  0  0  0  0  0  0  0  0  0
    5.2874    0.1698    5.7138 H   0  0  0  0  0  0  0  0  0  0  0  0
    1.9883    2.8518    4.7382 H   0  0  0  0  0  0  0  0  0  0  0  0
    0.9183    2.1692    2.6271 H   0  0  0  0  0  0  0  0  0  0  0  0
   -3.8032    2.6097    0.3712 H   0  0  0  0  0  0  0  0  0  0  0  0
   -5.6090    4.2147    0.1222 H   0  0  0  0  0  0  0  0  0  0  0  0
   -8.7169    6.0846   -0.2614 H   0  0  0  0  0  0  0  0  0  0  0  0
   -7.0227    5.8495   -0.7411 H   0  0  0  0  0  0  0  0  0  0  0  0
   -7.6010    5.2685    0.8552 H   0  0  0  0  0  0  0  0  0  0  0  0
   -8.1276    1.1409   -1.4627 H   0  0  0  0  0  0  0  0  0  0  0  0
   -6.2871   -0.4766   -1.2364 H   0  0  0  0  0  0  0  0  0  0  0  0
   -2.4495   -2.0258   -1.1909 H   0  0  0  0  0  0  0  0  0  0  0  0
   -2.8411   -4.3833   -0.6042 H   0  0  0  0  0  0  0  0  0  0  0  0
   -7.1105   -5.2664    0.8269 H   0  0  0  0  0  0  0  0  0  0  0  0
   -6.7141   -6.8337    1.5714 H   0  0  0  0  0  0  0  0  0  0  0  0
   -6.5615   -5.3444    2.5317 H   0  0  0  0  0  0  0  0  0  0  0  0
   -6.1227   -3.2129    1.8765 H   0  0  0  0  0  0  0  0  0  0  0  0
   -5.7055   -0.8783    1.3336 H   0  0  0  0  0  0  0  0  0  0  0  0
   -1.2999    5.3477   -6.8448 H   0  0  0  0  0  0  0  0  0  0  0  0
   -1.5225    3.6271   -7.1235 H   0  0  0  0  0  0  0  0  0  0  0  0
   -1.5661    4.8521   -9.2794 H   0  0  0  0  0  0  0  0  0  0  0  0
   -3.1482    4.1348   -8.9674 H   0  0  0  0  0  0  0  0  0  0  0  0
   -2.8972    5.8575   -8.7090 H   0  0  0  0  0  0  0  0  0  0  0  0
   -5.1027    6.1645   -4.6402 H   0  0  0  0  0  0  0  0  0  0  0  0
   -3.4666    6.8083   -4.6629 H   0  0  0  0  0  0  0  0  0  0  0  0
   -5.3765    6.8275   -7.0542 H   0  0  0  0  0  0  0  0  0  0  0  0
   -3.7595    7.5326   -7.0249 H   0  0  0  0  0  0  0  0  0  0  0  0
   -5.0362    8.2174   -6.0208 H   0  0  0  0  0  0  0  0  0  0  0  0
   -1.7355    3.6968   -3.0563 H   0  0  0  0  0  0  0  0  0  0  0  0
   -5.8588    4.0296   -8.4940 H   0  0  0  0  0  0  0  0  0  0  0  0
   -8.2660    0.9430   -8.1768 H   0  0  0  0  0  0  0  0  0  0  0  0
   -5.9100    3.5491  -13.3426 H   0  0  0  0  0  0  0  0  0  0  0  0
  -10.0437    0.6229  -13.2791 H   0  0  0  0  0  0  0  0  0  0  0  0
   -9.5730    1.9569  -16.4027 H   0  0  0  0  0  0  0  0  0  0  0  0
   -8.8010   -0.5924  -16.4243 H   0  0  0  0  0  0  0  0  0  0  0  0
   -8.5622    0.3684  -18.8581 H   0  0  0  0  0  0  0  0  0  0  0  0
   -6.3956    1.9039  -18.9322 H   0  0  0  0  0  0  0  0  0  0  0  0
   -5.3002    1.8883  -16.5440 H   0  0  0  0  0  0  0  0  0  0  0  0
   -6.1577   -0.6153  -16.5642 H   0  0  0  0  0  0  0  0  0  0  0  0
   -6.6273    0.1221  -15.0154 H   0  0  0  0  0  0  0  0  0  0  0  0
   -7.4498    3.4627  -16.4767 H   0  0  0  0  0  0  0  0  0  0  0  0
  1  2  2  0  0  0  0
  2  3  1  0  0  0  0
  3  4  2  0  0  0  0
  3  5  1  0  0  0  0
  5  6  2  0  0  0  0
  6  7  1  0  0  0  0
  7  8  2  0  0  0  0
  8  9  1  0  0  0  0
  9 10  2  0  0  0  0
 10 11  1  0  0  0  0
 11 12  2  0  0  0  0
 12 13  1  0  0  0  0
 13 14  3  0  0  0  0
 12 15  1  0  0  0  0
 15 16  3  0  0  0  0
  8 17  1  0  0  0  0
 17 18  1  0  0  0  0
 18 19  1  0  0  0  0
 19 20  2  0  0  0  0
 20 21  1  0  0  0  0
 21 22  1  0  0  0  0
 21 23  1  0  0  0  0
  1 24  1  0  0  0  0
 24 25  2  0  0  0  0
 25 26  1  0  0  0  0
 26 27  1  0  0  0  0
 27 28  2  0  0  0  0
 28 29  1  0  0  0  0
 29 30  2  0  0  0  0
 30 31  1  0  0  0  0
 31 32  1  0  0  0  0
 30 33  1  0  0  0  0
 33 34  2  0  0  0  0
 26 35  1  0  0  0  0
 35 36  2  0  0  0  0
 36 37  1  0  0  0  0
 37 38  2  0  0  0  0
 38 39  1  0  0  0  0
 39 40  1  0  0  0  0
 38 41  1  0  0  0  0
 41 42  2  0  0  0  0
 25 43  1  0  0  0  0
 43 44  1  0  0  0  0
 44 45  1  0  0  0  0
 45 46  2  0  0  0  0
 46 47  1  0  0  0  0
 47 48  1  0  0  0  0
 48 49  2  0  0  0  0
 49 50  1  0  0  0  0
 50 51  2  0  0  0  0
 51 52  1  0  0  0  0
 52 53  1  0  0  0  0
 51 54  1  0  0  0  0
 54 55  2  0  0  0  0
 47 56  1  0  0  0  0
 56 57  2  0  0  0  0
 57 58  1  0  0  0  0
 58 59  2  0  0  0  0
 59 60  1  0  0  0  0
 60 61  1  0  0  0  0
 59 62  1  0  0  0  0
 62 63  2  0  0  0  0
 46 64  1  0  0  0  0
 64 65  1  0  0  0  0
 45 66  1  0  0  0  0
 66 67  2  0  0  0  0
 67 68  1  0  0  0  0
 68 69  1  0  0  0  0
 69 70  2  0  0  0  0
 70 71  1  0  0  0  0
 71 72  2  0  0  0  0
 72 73  1  0  0  0  0
 73 74  1  0  0  0  0
 72 75  1  0  0  0  0
 75 76  2  0  0  0  0
 68 77  1  0  0  0  0
 77 78  2  0  0  0  0
 78 79  1  0  0  0  0
 79 80  2  0  0  0  0
 80 81  1  0  0  0  0
 81 82  1  0  0  0  0
 80 83  1  0  0  0  0
 83 84  2  0  0  0  0
 67 85  1  0  0  0  0
 85 86  1  0  0  0  0
 86 87  1  0  0  0  0
 87 88  2  0  0  0  0
 88 89  1  0  0  0  0
 89 90  1  0  0  0  0
 90 91  2  0  0  0  0
 91 92  1  0  0  0  0
 92 93  2  0  0  0  0
 93 94  1  0  0  0  0
 94 95  1  0  0  0  0
 93 96  1  0  0  0  0
 96 97  2  0  0  0  0
 89 98  1  0  0  0  0
 98 99  2  0  0  0  0
 99100  1  0  0  0  0
100101  2  0  0  0  0
101102  1  0  0  0  0
102103  1  0  0  0  0
101104  1  0  0  0  0
104105  2  0  0  0  0
 88106  1  0  0  0  0
106107  1  0  0  0  0
 87108  1  0  0  0  0
108109  1  0  0  0  0
109110  1  0  0  0  0
110111  1  0  0  0  0
111112  2  0  0  0  0
112113  1  0  0  0  0
113114  1  0  0  0  0
114115  1  0  0  0  0
113116  1  0  0  0  0
116117  1  0  0  0  0
113118  1  0  0  0  0
118119  1  0  0  0  0
112120  1  0  0  0  0
120121  2  0  0  0  0
121122  1  0  0  0  0
121123  1  0  0  0  0
123124  2  0  0  0  0
124125  1  0  0  0  0
125126  2  0  0  0  0
125127  1  0  0  0  0
127128  2  0  0  0  0
128129  1  0  0  0  0
129130  2  0  0  0  0
130131  1  0  0  0  0
131132  2  0  0  0  0
132133  1  0  0  0  0
133134  2  0  0  0  0
134135  1  0  0  0  0
135136  3  0  0  0  0
134137  1  0  0  0  0
137138  3  0  0  0  0
130139  1  0  0  0  0
139140  1  0  0  0  0
140141  1  0  0  0  0
141142  2  0  0  0  0
142143  1  0  0  0  0
143144  1  0  0  0  0
143145  1  0  0  0  0
 11  2  1  0  0  0  0
 23 17  1  0  0  0  0
 65 24  1  0  0  0  0
107 66  1  0  0  0  0
119108  2  0  0  0  0
133124  1  0  0  0  0
145139  1  0  0  0  0
 10  5  1  0  0  0  0
 22 18  1  0  0  0  0
 34 27  1  0  0  0  0
 42 35  1  0  0  0  0
 64 43  2  0  0  0  0
 76 69  1  0  0  0  0
 84 77  1  0  0  0  0
106 85  2  0  0  0  0
118110  2  0  0  0  0
132127  1  0  0  0  0
144140  1  0  0  0  0
 23  7  1  0  0  0  0
 55 48  1  0  0  0  0
 63 56  1  0  0  0  0
 97 90  1  0  0  0  0
105 98  1  0  0  0  0
122111  1  0  0  0  0
145129  1  0  0  0  0
  1146  1  0  0  0  0
  6147  1  0  0  0  0
  9148  1  0  0  0  0
 17149  1  0  0  0  0
 18150  1  0  0  0  0
 19151  1  0  0  0  0
 20152  1  0  0  0  0
 21153  1  0  0  0  0
 22154  1  0  0  0  0
 22155  1  0  0  0  0
 23156  1  0  0  0  0
 28157  1  0  0  0  0
 29158  1  0  0  0  0
 32159  1  0  0  0  0
 32160  1  0  0  0  0
 32161  1  0  0  0  0
 33162  1  0  0  0  0
 34163  1  0  0  0  0
 36164  1  0  0  0  0
 37165  1  0  0  0  0
 40166  1  0  0  0  0
 40167  1  0  0  0  0
 40168  1  0  0  0  0
 41169  1  0  0  0  0
 42170  1  0  0  0  0
 49171  1  0  0  0  0
 50172  1  0  0  0  0
 53173  1  0  0  0  0
 53174  1  0  0  0  0
 53175  1  0  0  0  0
 54176  1  0  0  0  0
 55177  1  0  0  0  0
 57178  1  0  0  0  0
 58179  1  0  0  0  0
 61180  1  0  0  0  0
 61181  1  0  0  0  0
 61182  1  0  0  0  0
 62183  1  0  0  0  0
 63184  1  0  0  0  0
 70185  1  0  0  0  0
 71186  1  0  0  0  0
 74187  1  0  0  0  0
 74188  1  0  0  0  0
 74189  1  0  0  0  0
 75190  1  0  0  0  0
 76191  1  0  0  0  0
 78192  1  0  0  0  0
 79193  1  0  0  0  0
 82194  1  0  0  0  0
 82195  1  0  0  0  0
 82196  1  0  0  0  0
 83197  1  0  0  0  0
 84198  1  0  0  0  0
 91199  1  0  0  0  0
 92200  1  0  0  0  0
 95201  1  0  0  0  0
 95202  1  0  0  0  0
 95203  1  0  0  0  0
 96204  1  0  0  0  0
 97205  1  0  0  0  0
 99206  1  0  0  0  0
100207  1  0  0  0  0
103208  1  0  0  0  0
103209  1  0  0  0  0
103210  1  0  0  0  0
104211  1  0  0  0  0
105212  1  0  0  0  0
114213  1  0  0  0  0
114214  1  0  0  0  0
115215  1  0  0  0  0
115216  1  0  0  0  0
115217  1  0  0  0  0
116218  1  0  0  0  0
116219  1  0  0  0  0
117220  1  0  0  0  0
117221  1  0  0  0  0
117222  1  0  0  0  0
119223  1  0  0  0  0
120224  1  0  0  0  0
123225  1  0  0  0  0
128226  1  0  0  0  0
131227  1  0  0  0  0
139228  1  0  0  0  0
140229  1  0  0  0  0
141230  1  0  0  0  0
142231  1  0  0  0  0
143232  1  0  0  0  0
144233  1  0  0  0  0
144234  1  0  0  0  0
145235  1  0  0  0  0
M  END
