202

C         -1.83280        5.32080       -1.95040
C         -1.07690        6.40450       -2.33830
C          0.34020        6.41340       -2.73060
O          0.98730        5.51790       -3.24500
C          0.83430        7.77140       -2.43600
C          2.15160        8.21890       -2.48470
C          2.29790        9.55170       -2.18230
C          1.21720       10.37820       -1.84890
C         -0.08660        9.94490       -1.78350
C         -0.25690        8.59380       -2.09190
C         -1.47110        7.78390       -2.15510
C         -2.75420        8.27100       -2.17340
C         -3.86870        7.51490       -2.57400
N         -4.80080        6.99570       -3.00120
C         -3.09890        9.61940       -1.95600
N         -3.44650       10.69800       -1.76940
C          2.09500       11.59360       -1.68400
C          2.09610       12.63840       -2.82730
C          1.73290       11.89460       -4.08840
C          2.75570       11.11190       -4.40530
C          3.82880       11.31200       -3.36360
C          3.61100       12.79720       -3.03340
C          3.29920       10.67200       -2.05620
C         -1.47140        3.96910       -1.91140
C         -2.07640        2.97600       -1.09860
N         -3.24500        3.08970       -0.40070
C         -4.36230        3.81750       -0.86430
C         -5.20990        4.39680        0.07850
C         -6.35630        5.04180       -0.32740
C         -6.68370        5.11200       -1.68000
S         -8.17600        5.94120       -2.09970
C         -7.93420        6.35040       -3.85220
C         -5.84850        4.51560       -2.61890
C         -4.69520        3.87660       -2.21400
C         -3.56810        2.08080        0.54650
C         -4.61860        1.21010        0.27430
C         -4.93840        0.20280        1.15920
C         -4.21220        0.06090        2.33500
S         -4.55760       -1.20170        3.50960
C         -5.31640       -2.52370        2.52260
C         -3.18440        0.95320        2.62900
C         -2.85930        1.95580        1.73790
C         -1.28550        1.80990       -1.08030
S         -1.29590        0.33040       -0.18040
C          0.11540       -0.27540       -1.06340
C          0.49060        0.60040       -2.07210
N          1.42870        0.41820       -3.09760
C          2.26510        1.54140       -3.27050
C          2.89850        2.05970       -2.14040
C          3.63000        3.22330       -2.21990
C          3.75920        3.88900       -3.43490
S          4.69040        5.38580       -3.44400
C          4.09620        6.21620       -4.94700
C          3.15310        3.36500       -4.56690
C          2.39760        2.21360       -4.48120
C          1.12320       -0.45080       -4.14850
C         -0.08910       -1.13670       -4.19390
C         -0.35770       -2.05770       -5.18880
C          0.58120       -2.30840       -6.17680
S          0.39670       -3.52020       -7.44850
C         -1.30630       -4.11420       -7.25580
C          1.76900       -1.58360       -6.17540
C          2.03900       -0.67020       -5.18090
C         -0.25000        1.81000       -2.00140
S         -0.07050        3.33030       -2.78480
C          0.61880       -1.49850       -0.52550
C          1.32630       -2.58380       -1.02710
N          2.00450       -2.70460       -2.24900
C          3.19960       -1.99900       -2.41630
C          3.91020       -2.03130       -3.61860
C          5.04730       -1.27220       -3.78590
C          5.51670       -0.44920       -2.76810
S          6.95710        0.51100       -3.11830
C          6.99940        1.72410       -1.77000
C          4.84410       -0.44080       -1.55600
C          3.70770       -1.20760       -1.38540
C          1.62550       -3.82580       -3.00440
C          2.52760       -4.67250       -3.64330
C          2.07790       -5.70970       -4.43630
C          0.71840       -5.95070       -4.57320
S          0.06280       -7.22090       -5.61360
C          1.32860       -7.34120       -6.91170
C         -0.18300       -5.18250       -3.84380
C          0.26350       -4.12930       -3.07920
C          1.34580       -3.65070       -0.09990
S          1.86250       -5.29960       -0.21530
C          1.36300       -5.57610        1.44800
C          0.96790       -4.38970        2.08260
N          0.76960       -4.35750        3.44770
C          1.84130       -4.73050        4.29400
C          1.56570       -5.02340        5.62880
C          2.57310       -5.39970        6.49480
C          3.88050       -5.50040        6.03730
S          5.24960       -5.98390        7.03520
C          4.50190       -6.40680        8.63380
C          4.16090       -5.19720        4.70570
C          3.15820       -4.81350        3.84400
C         -0.12470       -3.40350        4.02030
C         -1.43810       -3.77100        4.26480
C         -2.27770       -2.94120        4.98030
C         -1.80820       -1.71470        5.43660
S         -2.76430       -0.60140        6.40740
C         -4.15040       -1.61500        6.98610
C         -0.50680       -1.31790        5.13140
C          0.33650       -2.16090        4.44120
C          0.84550       -3.34010        1.15850
S          0.18600       -1.74480        1.17630
C          1.11880       -6.85850        1.96470
C          1.26720       -8.08220        1.31500
C          0.65560       -9.16050        1.92740
C         -0.05650       -8.87540        3.09190
Se         0.16970       -7.06440        3.56680
C         -0.79380       -9.77540        3.87040
C         -1.72660       -9.46060        4.83220
C         -2.01960      -10.41040        5.92800
O         -1.69030      -11.57390        6.00060
C         -2.75400       -9.61660        6.94380
C         -3.15620       -9.97320        8.21580
C         -3.79200       -9.02230        9.00210
C         -4.00250       -7.74660        8.49990
Br        -4.83940       -6.44480        9.60620
C         -3.61820       -7.37420        7.21720
C         -2.99330       -8.32820        6.43600
C         -2.49390       -8.26400        5.06030
C         -2.97020       -7.38000        4.11590
C         -2.69390       -7.48270        2.73710
N         -2.53600       -7.52820        1.59940
C         -3.84580       -6.31600        4.39260
N         -4.54620       -5.41620        4.54550
H         -2.79240        5.55140       -1.49780
H          2.96170        7.54980       -2.72610
H         -0.90880       10.58620       -1.51160
H          2.09160       12.05650       -0.69920
H          1.52150       13.53670       -2.61830
H          0.77670       11.96830       -4.57240
H          2.82390       10.40110       -5.20830
H          4.83310       11.00350       -3.64250
H          3.85610       13.45450       -3.86630
H          4.13880       13.12440       -2.13860
H          4.08380       10.53230       -1.31510
H         -4.95730        4.33710        1.12680
H         -7.01030        5.50190        0.39690
H         -8.67820        7.10530       -4.08650
H         -6.93430        6.75350       -3.97570
H         -8.09460        5.47230       -4.47150
H         -6.09320        4.53540       -3.66740
H         -4.05220        3.41040       -2.94610
H         -5.17850        1.32220       -0.64250
H         -5.75180       -0.46610        0.92750
H         -6.35270       -2.28810        2.29830
H         -5.26690       -3.41800        3.13830
H         -4.73730       -2.66730        1.61580
H         -2.64250        0.84490        3.55570
H         -2.05240        2.63960        1.95460
H          2.77940        1.55760       -1.19190
H          4.08520        3.64590       -1.33580
H          4.44370        7.24320       -4.88270
H          3.01040        6.18190       -4.95560
H          4.51710        5.74450       -5.83050
H          3.23300        3.86130       -5.51990
H          1.87520        1.86050       -5.35670
H         -0.84020       -0.95730       -3.43940
H         -1.30500       -2.57180       -5.17720
H         -1.99710       -3.28010       -7.33640
H         -1.46800       -4.80910       -8.07400
H         -1.41350       -4.63270       -6.30820
H          2.49050       -1.75590       -6.95980
H          2.97540       -0.13800       -5.19230
H          3.55780       -2.62640       -4.44270
H          5.57850       -1.29960       -4.72520
H          6.03810        2.22500       -1.70950
H          7.77230        2.43690       -2.03970
H          7.25810        1.23860       -0.83320
H          5.19550        0.15640       -0.72980
H          3.21150       -1.18090       -0.42690
H          3.58900       -4.54200       -3.50430
H          2.80010       -6.33790       -4.93280
H          1.60580       -6.34000       -7.22830
H          2.19040       -7.89660       -6.55330
H          0.86380       -7.87840       -7.73240
H         -1.23690       -5.41270       -3.89240
H         -0.44680       -3.52360       -2.53690
H          0.54920       -4.94550        5.98780
H          2.32150       -5.61760        7.51980
H          3.77170       -7.19970        8.50180
H          4.05420       -5.52490        9.08260
H          5.32060       -6.75900        9.25350
H          5.18020       -5.26120        4.35720
H          3.40130       -4.57030        2.82060
H         -1.78720       -4.73200        3.91170
H         -3.28570       -3.26640        5.17820
H         -3.76890       -2.51780        7.45280
H         -4.81550       -1.84300        6.15920
H         -4.66900       -1.00830        7.72160
H         -0.15940       -0.35400        5.46990
H          1.35910       -1.87340        4.24540
H          1.79430       -8.15340        0.37780
H          0.66290      -10.15140        1.50460
H         -0.55320      -10.82990        3.77460
H         -2.97560      -10.97040        8.58560
H         -4.11780       -9.26630       10.00140
H         -3.79560       -6.37090        6.86450
