235

C          6.72360       -4.34120        1.84000
C          7.82360       -4.73150        1.11680
C          7.98240       -4.63410       -0.33670
O          7.21810       -4.11800       -1.13500
C          9.24640       -5.31720       -0.66020
C          9.80920       -5.48750       -1.92300
C         10.99920       -6.17520       -1.91620
C         11.58230       -6.66440       -0.74020
C         11.03770       -6.50270        0.51210
C          9.83040       -5.79850        0.52920
C          8.98120       -5.40980        1.65500
C          9.27140       -5.62130        2.98110
C          8.53140       -5.11840        4.06880
N          8.00920       -4.71060        5.00880
C         10.39040       -6.34000        3.44800
N         11.26960       -6.92580        3.89870
C         12.76440       -7.24810       -1.47320
C         14.08650       -6.45680       -1.38710
C         14.89610       -6.97700       -2.55280
C         14.34590       -6.51020       -3.66630
C         13.15500       -5.66660       -3.27190
C         13.66760       -5.09070       -1.94560
C         12.11620       -6.69910       -2.78460
C          5.56810       -3.66580        1.43950
C          4.52980       -3.33290        2.33950
N          4.43740       -3.70770        3.65850
C          4.73330       -5.00600        4.09730
C          5.23400       -5.22100        5.38200
C          5.52030       -6.49910        5.80550
C          5.32780       -7.58860        4.95820
S          5.74990       -9.17200        5.60840
C          5.49920      -10.30460        4.21110
C          4.81830       -7.37830        3.68240
C          4.51720       -6.09920        3.26100
C          3.92990       -2.75440        4.56000
C          4.35910       -1.43200        4.46800
C          3.86490       -0.46860        5.32230
C          2.94320       -0.82020        6.29940
S          2.26690        0.34050        7.44240
C          3.48960        1.68490        7.44150
C          2.50960       -2.14090        6.39490
C          2.99430       -3.10020        5.53320
C          3.57870       -2.50180        1.72190
S          2.08000       -1.80930        2.24170
C          1.84840       -1.09720        0.65040
C          2.86130       -1.41240       -0.22900
N          2.93470       -1.00200       -1.55260
C          4.18440       -0.62330       -2.05720
C          4.51560       -0.81780       -3.39620
C          5.74130       -0.41630       -3.88550
C          6.67300        0.16900       -3.03970
S          8.26080        0.72490       -3.58380
C          7.96810        1.09170       -5.33910
C          6.36870        0.32020       -1.69220
C          5.13700       -0.05860       -1.20870
C          1.79010       -1.03800       -2.35620
C          0.81740       -2.01980       -2.16230
C         -0.31020       -2.05460       -2.95290
C         -0.49610       -1.10830       -3.95660
S         -1.95480       -1.24730       -4.94340
C         -2.07420        0.35700       -5.78400
C          0.47360       -0.13830       -4.16650
C          1.60390       -0.10780       -3.37600
C          3.85080       -2.22080        0.39330
S          5.28930       -2.99480       -0.17090
C          0.67660       -0.27120        0.46440
C          0.62880        1.09980        0.54290
N          1.73230        1.92020        0.84030
C          1.71800        2.49640        2.11710
C          1.21760        1.76830        3.19650
C          1.14250        2.32770        4.45620
C          1.56770        3.63300        4.66210
S          1.51070        4.43580        6.23790
C          0.18310        3.54310        7.09900
C          2.08540        4.35990        3.59300
C          2.15450        3.80440        2.33500
C          2.60130        2.33860       -0.16430
C          2.16560        2.43640       -1.48540
C          3.03590        2.83430       -2.47610
C          4.36360        3.12870       -2.18050
S          5.39390        3.55750       -3.54690
C          6.96450        4.04820       -2.78410
C          4.80000        3.04730       -0.86530
C          3.92680        2.65630        0.12970
C         -0.70370        1.57470        0.48380
S         -1.40510        3.14530        0.56620
C         -3.01080        2.44190        0.49770
C         -2.99180        1.04810        0.49680
N         -4.08500        0.23060        0.72220
C         -4.19870       -0.96500        0.00650
C         -4.86740       -2.06200        0.54740
C         -5.02370       -3.22440       -0.18110
C         -4.49690       -3.31790       -1.46330
S         -4.63650       -4.74220       -2.49360
C         -6.01530       -5.66300       -1.75470
C         -3.79760       -2.23650       -1.99280
C         -3.65320       -1.07270       -1.27370
C         -5.12840        0.68340        1.54800
C         -4.84940        1.46730        2.67050
C         -5.86970        2.04520        3.39040
C         -7.20080        1.84760        3.02260
S         -8.41970        2.73860        3.92980
C         -9.98960        2.01630        3.37550
C         -7.48750        0.99070        1.96920
C         -6.46090        0.41160        1.24990
C         -1.65810        0.57150        0.42600
S         -0.92260       -0.99220        0.36070
C         -4.17500        3.28180        0.52860
C         -4.25480        4.40660        1.34120
F         -3.18870        4.76760        2.07350
C         -5.43610        5.12520        1.52900
F         -5.42720        6.09250        2.45100
C         -6.62530        4.74900        0.91830
C         -6.57400        3.60270        0.07460
N         -7.70970        3.17140       -0.48090
C         -7.68500        2.14040       -1.29850
C         -8.99080        1.73120       -1.75960
S        -10.30580        1.99320       -0.66000
C        -11.47320        1.41100       -1.78490
C        -12.92330        1.35440       -1.45370
C        -13.44550        2.71970       -1.00630
C        -10.86210        1.06370       -2.95730
C         -9.46160        1.24180       -2.95060
F         -8.70000        1.00510       -4.02860
F        -11.52660        0.59390       -4.02350
C         -6.44260        1.52000       -1.63840
N         -5.32110        1.93440       -1.09370
C         -5.35530        2.92800       -0.19270
C         -6.39640        0.35590       -2.50820
S         -5.32610        0.20640       -3.85830
C         -5.91580       -1.36480       -4.26750
C         -5.45610       -2.11040       -5.46920
C         -6.02360       -1.48900       -6.74710
C         -6.87520       -1.74660       -3.37700
F         -7.50300       -2.93090       -3.41930
C         -7.15100       -0.77970       -2.38890
F         -8.05250       -0.98000       -1.41170
C         -7.89970        5.36840        1.13740
C         -8.13470        6.69700        1.29190
C         -7.14330        7.77310        1.01300
O         -6.07190        7.66150        0.47270
C         -7.82230        9.03060        1.41370
C         -9.14850        8.75370        1.79390
C         -9.98620        9.77430        2.21560
C         -9.47890       11.06440        2.24810
F        -10.26770       12.06180        2.65530
C         -8.17060       11.35610        1.86670
F         -7.72280       12.61350        1.90960
C         -7.33200       10.32390        1.43900
F         -6.08590       10.60570        1.07540
C         -9.39360        7.32030        1.64890
C        -10.61030        6.70510        1.79800
C        -11.80100        7.37640        2.14960
N        -12.80500        7.85770        2.42900
C        -10.87990        5.33990        1.57650
N        -11.22090        4.25750        1.39450
H          6.74120       -4.57970        2.89580
H          9.32240       -5.09670       -2.80280
H         11.49900       -6.88830        1.40570
H         12.90360       -8.32270       -1.37090
H         14.56450       -6.47490       -0.41150
H         15.72450       -7.65370       -2.45340
H         14.62300       -6.71920       -4.68300
H         12.78570       -4.96370       -4.01390
H         14.51800       -4.42580       -2.08720
H         12.90450       -4.58510       -1.35690
H         11.82540       -7.40760       -3.55830
H          5.41070       -4.38310        6.03680
H          5.91800       -6.66610        6.79380
H          6.12530      -10.00620        3.37530
H          5.80660      -11.28150        4.57080
H          4.44980      -10.32990        3.93170
H          4.64030       -8.20120        3.00910
H          4.11340       -5.94470        2.27110
H          5.08990       -1.16030        3.72020
H          4.20420        0.54940        5.21900
H          3.42610        2.25950        6.52220
H          3.23480        2.32010        8.28420
H          4.48130        1.26540        7.57890
H          1.78600       -2.40360        7.15110
H          2.65240       -4.12130        5.60790
H          3.81210       -1.29810       -4.05920
H          5.96670       -0.57930       -4.92720
H          7.92940        0.17290       -5.91710
H          8.81230        1.69170       -5.66390
H          7.04620        1.65790       -5.43340
H          7.10390        0.74840       -1.02770
H          4.90260        0.10170       -0.16790
H          0.95270       -2.76710       -1.39490
H         -1.05090       -2.82350       -2.80020
H         -1.29540        0.44890       -6.53550
H         -3.04880        0.36600       -6.26140
H         -2.01710        1.15590       -5.05140
H          0.36520        0.59840       -4.94630
H          2.35650        0.64260       -3.55190
H          0.88850        0.74950        3.05530
H          0.75700        1.73270        5.26880
H         -0.05260        4.13950        7.97480
H          0.51830        2.55630        7.40570
H         -0.68260        3.47960        6.44730
H          2.41150        5.37540        3.75710
H          2.52210        4.39240        1.50800
H          1.13830        2.20770       -1.72720
H          2.69470        2.93790       -3.49550
H          7.43720        3.18820       -2.31910
H          6.79120        4.84770       -2.07000
H          7.58510        4.40930       -3.59850
H          5.82070        3.27330       -0.60330
H          4.27740        2.58370        1.14870
H         -5.26840       -2.00300        1.54820
H         -5.55220       -4.05200        0.26410
H         -6.86760       -5.00120       -1.63710
H         -5.71550       -6.09990       -0.80660
H         -6.25500       -6.45070       -2.46200
H         -3.39200       -2.31330       -2.98880
H         -3.14820       -0.22780       -1.71500
H         -3.82430        1.63470        2.96580
H         -5.64840        2.66700        4.24410
H        -10.75120        2.45960        4.00950
H        -10.18270        2.27930        2.33940
H         -9.96660        0.94070        3.52180
H         -8.50410        0.78620        1.67540
H         -6.70280       -0.23710        0.42480
H        -13.07970        0.63120       -0.64870
H        -13.46780        1.00800       -2.33450
H        -13.33620        3.44860       -1.80580
H        -14.49750        2.64800       -0.74530
H        -12.89110        3.07080       -0.13890
H         -5.78860       -3.14600       -5.37900
H         -4.36610       -2.10170       -5.51230
H         -7.11020       -1.51960       -6.73520
H         -5.66880       -2.03690       -7.61540
H         -5.71110       -0.45080       -6.83430
H         -8.73020        4.67520        1.12930
H        -11.00640        9.61020        2.52010
