194

C          9.34080        1.44260        1.39850
C         10.10480        1.86800        2.44540
C         10.22410        1.21780        3.77070
O          9.83210        0.11690        4.09570
C         11.05570        2.12800        4.58460
C         11.36660        1.99270        5.93560
C         12.15290        3.00320        6.43420
C         12.60520        4.06830        5.64420
C         12.31510        4.20890        4.30830
C         11.51350        3.19100        3.78060
C         10.99240        3.01430        2.42570
C         11.26020        3.82860        1.35550
C         12.11680        4.94790        1.40300
N         12.80400        5.86750        1.36670
C         10.75100        3.68110        0.04690
N         10.40180        3.65180       -1.04720
C         13.34370        4.71170        6.79180
C         14.87580        4.52950        6.81630
C         15.25250        4.82900        8.24920
C         14.82420        3.82090        8.99830
C         14.15110        2.82280        8.08400
C         15.00640        3.00090        6.82300
C         12.83910        3.52430        7.67310
C          8.21770        0.57840        1.41910
C          7.34250        0.36660        2.50700
C          6.09100       -0.35950        2.36980
N          5.38590       -0.36070        3.50360
S          6.18480        0.47620        4.61250
N          7.44830        0.90560        3.72190
C          5.60100       -0.77700        1.12000
C          6.49890       -0.63070        0.04590
N          6.29130       -1.03760       -1.20970
S          7.57020       -0.64590       -2.09710
N          8.44930        0.05390       -0.95360
C          7.77970        0.01610        0.19850
C          4.22520       -1.08180        0.88280
C          3.45780       -0.47450       -0.10900
N          3.86430        0.58370       -0.89960
C          3.33730        0.68830       -2.19050
C          3.12370       -0.46280       -2.94560
C          2.53530       -0.38930       -4.19220
C          2.15530        0.84270       -4.70760
S          1.36640        1.06240       -6.26930
C          1.04380       -0.63180       -6.84100
C          2.40460        2.00080       -3.97120
C          2.98810        1.92840       -2.72720
C          4.72290        1.56370       -0.37980
C          5.72790        2.13080       -1.16440
C          6.63700        3.00530       -0.60780
C          6.55620        3.34340        0.74180
S          7.79660        4.42290        1.37920
C          7.65360        4.23610        3.18220
C          5.51020        2.84330        1.50720
C          4.60510        1.96380        0.95030
C          2.13700       -0.96960       -0.08450
S          0.70870       -0.59150       -0.96980
C         -0.24520       -1.69160        0.03540
C          0.53510       -2.30430        1.01260
N          0.12900       -3.23550        1.95480
C          1.02250       -4.29200        2.21080
C          1.34380       -4.67190        3.50970
C          2.24090       -5.69590        3.74180
C          2.84190       -6.35130        2.67510
S          4.00470       -7.66620        2.84390
C          4.27340       -7.78990        4.63480
C          2.52250       -5.97250        1.37210
C          1.62180       -4.95830        1.14150
C         -0.97430       -3.03100        2.78250
C         -1.42370       -1.74460        3.08330
C         -2.50330       -1.56440        3.92010
C         -3.15040       -2.66110        4.48140
S         -4.52890       -2.33630        5.53580
C         -4.67870       -3.87090        6.49900
C         -2.72080       -3.94590        4.16970
C         -1.64330       -4.12590        3.32870
C          1.88750       -1.88530        0.92310
S          3.29830       -2.16490        1.89470
C         -1.61420       -1.79390       -0.32780
C         -2.16570       -1.08960       -1.37030
C         -3.52760       -1.34750       -1.60120
C         -4.36640       -0.78700       -2.59370
C         -3.84590        0.01740       -3.66880
C         -2.59860       -0.06280       -4.24360
C         -2.31910        0.85810       -5.26280
C         -3.34310        1.72060       -5.55300
S         -3.25210        2.95560       -6.77870
C         -4.94630        3.63980       -6.66110
C         -5.14220        4.73830       -7.68500
Se        -4.86230        1.37750       -4.49380
C         -5.72840       -1.05280       -2.45180
C         -6.25700       -1.91250       -1.45600
C         -5.39290       -2.57650       -0.54810
C         -5.92220       -3.49210        0.43950
C         -6.84440       -4.47900        0.22480
C         -7.26980       -5.17500        1.37280
C         -6.72000       -4.73910        2.54070
S         -7.08370       -5.38440        4.13130
C         -7.86920       -3.89810        4.86580
C         -9.18880       -3.57580        4.19780
Se        -5.46230       -3.36130        2.25650
C         -4.05190       -2.24730       -0.63580
S         -2.79790       -2.84160        0.42960
C         -7.65950       -1.92070       -1.47710
C         -8.21540       -1.09850       -2.44030
S         -6.97740       -0.32440       -3.40830
C         -9.60490       -0.89780       -2.56190
C        -10.30380       -0.02540       -3.34860
C         -9.73880        0.95790       -4.29120
O         -8.58570        1.06170       -4.66640
C        -10.86030        1.81310       -4.71190
C        -10.79070        2.92820       -5.54480
C        -11.99830        3.55170       -5.74470
C        -13.18940        3.09610       -5.16300
C        -13.27310        1.99190       -4.34850
C        -12.05340        1.34340       -4.12770
C        -11.74420        0.16590       -3.31950
C        -12.66770       -0.62020       -2.68030
C        -14.06030       -0.39370       -2.70190
N        -15.20200       -0.27510       -2.67300
C        -12.38620       -1.77990       -1.92770
N        -12.25270       -2.73520       -1.30330
C        -14.00660        4.20620       -5.77580
C        -14.39630        5.37150       -4.84150
C        -14.74920        6.49350       -5.79120
C        -13.62220        6.92430       -6.34350
C        -12.48860        6.10050       -5.77640
C        -13.02320        5.85700       -4.35920
C        -12.67900        4.71290       -6.42550
H          9.56820        1.81780        0.40870
H         10.99340        1.15750        6.50750
H         12.67030        5.03520        3.71580
H         13.03140        5.72190        7.05050
H         15.41130        5.07530        6.04450
H         15.72580        5.73940        8.56760
H         14.86820        3.72120       10.06710
H         14.02760        1.81360        8.46770
H         14.59780        2.51710        5.93800
H         16.03470        2.67640        6.97390
H         12.19060        3.74330        8.51960
H          3.43410       -1.41870       -2.55140
H          2.38470       -1.29880       -4.75060
H          1.97990       -1.14230       -7.04810
H          0.47330       -0.52540       -7.75870
H          0.45600       -1.16720       -6.10110
H          2.11780        2.95560       -4.38420
H          3.16050        2.82710       -2.15450
H          5.80710        1.85730       -2.20660
H          7.43830        3.41450       -1.20380
H          6.74230        4.70710        3.53930
H          8.51430        4.75310        3.59630
H          7.69290        3.18240        3.44820
H          5.39170        3.13140        2.53990
H          3.80200        1.57100        1.55720
H          0.89450       -4.15480        4.34430
H          2.46950       -5.96350        4.76050
H          4.64320       -6.84370        5.01870
H          5.02760       -8.56010        4.76310
H          3.35510       -8.08900        5.13170
H          2.98820       -6.48860        0.54680
H          1.37400       -4.67290        0.12970
H         -0.91730       -0.88750        2.66470
H         -2.84910       -0.56990        4.15750
H         -5.09390       -4.66700        5.88700
H         -5.35800       -3.64230        7.31430
H         -3.70400       -4.14110        6.89280
H         -3.22620       -4.81200        4.56670
H         -1.32030       -5.12510        3.07890
H         -1.60270       -0.35570       -1.91720
H         -1.89190       -0.82820       -3.97070
H         -1.37700        0.89820       -5.78080
H         -5.07030        4.01610       -5.64110
H         -5.64030        2.81010       -6.82520
H         -6.15050        5.13890       -7.60830
H         -4.43160        5.54460       -7.51900
H         -4.99510        4.35100       -8.69040
H         -7.20520       -4.72010       -0.76130
H         -7.99050       -5.97420        1.34140
H         -8.00300       -4.14400        5.91820
H         -7.15570       -3.07650        4.76710
H         -9.87440       -4.41620        4.27970
H         -9.03810       -3.35260        3.14280
H         -9.64000       -2.70770        4.67390
H         -8.26300       -2.47490       -0.77950
H        -10.17930       -1.50880       -1.87560
H         -9.85070        3.24180       -5.97140
H        -14.19840        1.65570       -3.91180
H        -14.82000        3.89290       -6.42720
H        -15.13400        5.12050       -4.08440
H        -15.75440        6.81060       -5.99780
H        -13.49790        7.67300       -7.10370
H        -11.48820        6.51460       -5.87050
H        -13.09210        6.77750       -3.78180
H        -12.46240        5.11450       -3.79440
H        -12.60640        4.73700       -7.51110
