234

C         -7.94760       -2.06090        1.66720
C         -8.75220       -0.96280        1.48270
C         -8.23460        0.37850        1.12790
O         -7.08530        0.69290        0.88520
C         -9.41830        1.24120        0.97160
C         -9.42250        2.59970        0.66710
C        -10.67830        3.15600        0.62460
C        -11.84240        2.41030        0.85060
C        -11.85130        1.06090        1.11800
C        -10.58370        0.47570        1.16890
C        -10.19050       -0.91870        1.38410
C        -11.05510       -1.98520        1.43450
C        -10.67920       -3.33800        1.52290
N        -10.47430       -4.46890        1.55940
C        -12.45680       -1.88120        1.33250
N        -13.60270       -1.87650        1.25260
C        -12.74220        3.60230        0.63830
C        -13.48540        3.71090       -0.71610
C        -12.64830        2.96550       -1.72590
C        -11.54580        3.67150       -1.93840
C        -11.61810        4.90760       -1.07630
C        -13.13410        5.15980       -1.09030
C        -11.44430        4.43330        0.38760
C         -6.56990       -1.93630        1.94600
C         -5.50680       -2.61420        1.33210
N         -5.62870       -3.71590        0.53040
C         -4.69500       -3.92240       -0.50020
C         -4.05510       -5.14920       -0.63800
C         -3.05850       -5.31550       -1.57920
C         -2.69060       -4.25450       -2.39700
S         -1.37880       -4.33300       -3.57310
C         -0.47660       -5.83550       -3.09930
C         -3.37780       -3.04550       -2.30600
C         -4.37140       -2.87870       -1.36760
C         -6.55960       -4.71930        0.84640
C         -6.76780       -5.09650        2.17330
C         -7.68870       -6.07310        2.47780
C         -8.42680       -6.68340        1.46720
S         -9.59460       -7.91410        1.93970
C        -10.87640       -7.72250        0.66750
C         -8.20470       -6.32450        0.14280
C         -7.27590       -5.35150       -0.16530
C         -4.29240       -1.93590        1.57510
S         -2.68990       -2.12320        0.97240
C         -2.15010       -0.70970        1.87760
C         -3.15220       -0.18850        2.68990
N         -3.00320        0.80730        3.64240
C         -4.13870        1.55860        4.00440
C         -5.03110        1.98640        3.02600
C         -6.16010        2.70870        3.35950
C         -6.42160        3.01440        4.68540
S         -7.83010        3.94350        5.21460
C         -8.99180        3.75390        3.83090
C         -5.53570        2.58670        5.67160
C         -4.41370        1.86080        5.33880
C         -1.84410        0.90170        4.42310
C         -1.49340        2.12560        4.99950
C         -0.39390        2.22920        5.81850
C          0.40270        1.11560        6.07790
S          1.81970        1.38030        7.10060
C          2.41210       -0.29670        7.46490
C          0.07190       -0.10090        5.49940
C         -1.04330       -0.20650        4.68820
C         -4.37860       -0.87090        2.46040
S         -5.99860       -0.66070        3.01270
C         -0.79480       -0.35120        1.59830
C         -0.12010        0.85630        1.49680
N         -0.57930        2.13240        1.79730
C         -1.81890        2.60960        1.36360
C         -2.49030        2.03010        0.28490
C         -3.69240        2.54630       -0.15080
C         -4.25560        3.65970        0.46900
S         -5.81920        4.20940       -0.13450
C         -6.15900        5.70750        0.83830
C         -3.59510        4.23940        1.54370
C         -2.39990        3.71320        1.98730
C          0.37600        3.00420        2.35300
C          0.48920        4.33820        1.96170
C          1.41970        5.15940        2.55850
C          2.27210        4.67030        3.54720
S          3.39460        5.81890        4.27490
C          4.16880        4.87130        5.61640
C          2.20400        3.32980        3.89790
C          1.26460        2.51200        3.30560
C          1.19080        0.65840        0.98040
S          2.45600        1.74500        0.51980
C          3.41320        0.40040       -0.08200
C          2.76090       -0.81750        0.02620
N          3.19550       -2.01900       -0.50560
C          3.96120       -2.05040       -1.68250
C          3.70830       -1.16730       -2.72810
C          4.54870       -1.10790       -3.82370
C          5.65120       -1.94680       -3.89950
S          6.86250       -1.88310       -5.18120
C          6.19950       -0.67130       -6.35730
C          5.85650       -2.89520       -2.89800
C          5.02460       -2.94750       -1.80260
C          2.79830       -3.22040        0.09420
C          2.46670       -4.32460       -0.69280
C          2.06260       -5.49870       -0.10110
C          1.96310       -5.59830        1.28620
S          1.40120       -7.14800        1.91810
C          1.33350       -6.89210        3.71320
C          2.30430       -4.50780        2.07260
C          2.72570       -3.33290        1.47970
C          1.50410       -0.64880        0.66140
S          0.19520       -1.70720        1.03670
C          4.67220        0.65310       -0.71960
C          4.91290        1.52680       -1.73500
C          6.18990        1.37050       -2.32600
C          6.67930        2.00660       -3.48290
C          5.93230        3.07490       -4.11560
C          5.27380        4.10940       -3.51380
C          4.65300        4.95640       -4.45310
F          3.95550        6.04480       -4.08040
C          4.80260        4.59390       -5.75860
C          4.29650        5.27870       -6.97990
C          5.44480        5.81940       -7.83280
S          5.76010        3.15660       -5.84930
C          7.88320        1.53020       -3.98970
C          8.64860        0.51970       -3.34840
C          8.19620       -0.05930       -2.13950
C          8.98800       -1.02990       -1.41770
S         10.71720       -0.85140       -1.28630
C         10.86260       -2.26340       -0.30680
C         12.17760       -2.73020        0.21280
C         12.78530       -1.72060        1.18730
C          9.62680       -2.80980       -0.11050
C          8.56010       -2.12560       -0.71790
F          9.43730       -3.93010        0.61210
C          6.94810        0.35480       -1.69170
S          6.08380       -0.30800       -0.33160
C          9.79270        0.16960       -4.09030
C          9.94900        0.89130       -5.24710
S          8.64410        2.05870       -5.45720
C         10.90720        0.83960       -6.28360
C         12.06600        0.13080       -6.42050
C         12.74100       -0.76170       -5.43330
O         12.36030       -1.12180       -4.34010
C         14.00360       -1.11090       -6.07760
S         15.37170       -2.04810       -5.65470
C         16.09270       -1.66550       -7.19510
Cl        17.62840       -2.28160       -7.59470
C         15.31710       -0.86310       -7.98730
C         14.11120       -0.54310       -7.33780
C         12.90760        0.21790       -7.60990
C         12.65130        0.84500       -8.80050
C         13.58740        0.83210       -9.85760
N         14.33080        0.84130      -10.73120
C         11.47690        1.53910       -9.15690
N         10.55640        2.10970       -9.53960
H         -8.35490       -3.05540        1.53200
H         -8.49940        3.12680        0.47820
H        -12.75800        0.50060        1.27370
H        -13.37200        3.88210        1.48060
H        -14.53820        3.44490       -0.67550
H        -12.90900        2.00280       -2.12480
H        -10.69980        3.41690       -2.54950
H        -10.97060        5.73190       -1.36460
H        -13.50490        5.44250       -2.07430
H        -13.45960        5.89030       -0.35060
H        -11.22810        5.25540        1.06810
H         -4.32480       -5.96750        0.01330
H         -2.56650       -6.27160       -1.65240
H          0.44110       -5.82220       -3.67930
H         -1.05470       -6.72000       -3.35110
H         -0.24810       -5.79730       -2.03830
H         -3.11040       -2.23750       -2.96930
H         -4.89240       -1.93620       -1.28400
H         -6.20520       -4.61410        2.95910
H         -7.85550       -6.36750        3.50210
H        -11.75990       -8.22000        1.05460
H        -10.56940       -8.19210       -0.26270
H        -11.06810       -6.66180        0.53800
H         -8.75660       -6.79600       -0.65420
H         -7.10450       -5.06800       -1.19350
H         -4.85570        1.74270        1.99210
H         -6.82870        3.00620        2.56900
H         -9.04540        2.70850        3.54320
H         -9.95570        4.08630        4.20360
H         -8.69170        4.37340        2.99080
H         -5.74830        2.81520        6.70460
H         -3.75440        1.51150        6.11910
H         -2.10160        2.99560        4.81000
H         -0.13360        3.17810        6.26130
H          3.21040       -0.17550        8.19040
H          2.80280       -0.76200        6.56430
H          1.60620       -0.88340        7.89570
H          0.66700       -0.98290        5.67630
H         -1.29940       -1.17100        4.27690
H         -2.05990        1.18340       -0.22780
H         -4.21060        2.08830       -0.97950
H         -5.37690        6.44220        0.67180
H         -7.10540        6.08990        0.46720
H         -6.24590        5.46170        1.89330
H         -4.00300        5.09390        2.05830
H         -1.90620        4.17260        2.82930
H         -0.15000        4.72830        1.18430
H          1.50110        6.19350        2.26070
H          4.78650        5.58190        6.15660
H          4.79110        4.08200        5.20480
H          3.40460        4.46770        6.27430
H          2.86360        2.90870        4.63810
H          1.21750        1.47080        3.58380
H          2.85490       -0.50800       -2.67560
H          4.33670       -0.39360       -4.60270
H          5.24000       -1.01120       -6.73540
H          6.92060       -0.62580       -7.16740
H          6.11590        0.30500       -5.88880
H          6.69510       -3.56920       -2.98100
H          5.20470       -3.66500       -1.01550
H          2.52450       -4.24900       -1.76820
H          1.81350       -6.35830       -0.70490
H          0.64710       -6.08290        3.94490
H          2.32910       -6.69230        4.09910
H          0.95950       -7.82340        4.12710
H          2.25620       -4.55850        3.14830
H          3.00980       -2.49430        2.09830
H          4.15720        2.19050       -2.11350
H          5.26200        4.29320       -2.45550
H          3.70630        4.57640       -7.57510
H          3.64450        6.09760       -6.66830
H          6.09900        5.00800       -8.14440
H          5.05240        6.31090       -8.71890
H          6.03130        6.53960       -7.26710
H         12.03000       -3.68980        0.71280
H         12.86390       -2.87850       -0.62500
H         13.74040       -2.08450        1.55640
H         12.94370       -0.76660        0.68930
H         12.12190       -1.56390        2.03490
H          7.54230       -2.46140       -0.66760
H         10.47560       -0.61000       -3.81310
H         10.66210        1.49910       -7.10860
H         15.61160       -0.53410       -8.96600
