222

C          8.30640       -8.38370       -2.30830
C          8.39190       -9.35100       -3.26950
C          7.63660       -9.39320       -4.53450
O          6.91460       -8.53300       -5.00060
C          7.92550      -10.70430       -5.14020
C          7.37650      -11.22150       -6.31190
C          7.80380      -12.49130       -6.61580
C          8.71070      -13.19600       -5.81250
C          9.26210      -12.69610       -4.65700
C          8.84240      -11.40240       -4.32930
C          9.18520      -10.56430       -3.18230
C         10.10740      -10.88290       -2.21850
C         10.87110      -12.06910       -2.20470
N         11.53160      -13.00490       -2.12320
C         10.45460      -10.08510       -1.10820
N         10.79870       -9.50760       -0.17610
C          8.68370      -14.40990       -6.70760
C          9.89350      -14.60500       -7.64550
C          9.38070      -15.55620       -8.70260
C          8.52300      -14.88900       -9.46410
C          8.44160      -13.47540       -8.93450
C          9.88330      -13.29420       -8.44250
C          7.67370      -13.62370       -7.60390
C          7.51430       -7.21860       -2.24810
C          7.45870       -6.44230       -1.10390
C          6.56400       -5.36560       -1.18130
C          6.25630       -4.40250       -0.18650
C          6.79650       -4.52700        1.14840
C          6.96810       -5.67720        1.87190
C          7.55000       -5.46320        3.13310
C          7.83060       -4.15390        3.38540
C          8.44440       -3.57530        4.61370
C          7.46160       -3.59250        5.78610
S          7.34290       -3.14850        2.06250
C          5.38110       -3.39620       -0.56240
C          4.77900       -3.31490       -1.84600
C          5.09600       -4.26460       -2.83400
C          4.60120       -4.19770       -4.19540
C          4.15760       -5.22460       -4.97750
C          3.91180       -4.84370       -6.31090
C          4.17860       -3.53390       -6.56260
C          4.14260       -2.82810       -7.87240
C          5.55600       -2.62550       -8.42320
S          4.71080       -2.72420       -5.12270
C          5.96620       -5.28690       -2.46580
S          6.46890       -6.58990       -3.50410
C          3.80920       -2.28620       -1.92000
C          3.66330       -1.58410       -0.75570
S          4.77690       -2.14280        0.48620
C          2.69640       -0.61490       -0.36190
C          1.47120       -0.28610       -0.92900
N          1.00090       -0.65520       -2.18490
C         -0.36670       -0.98970       -2.24370
C         -1.23750       -0.38520       -3.15000
C         -2.57660       -0.70190       -3.13590
C         -3.08060       -1.61830       -2.21390
S         -4.81670       -1.92450       -2.28450
C         -5.13420       -2.98000       -0.84220
C         -2.21640       -2.22570       -1.31350
C         -0.87120       -1.91260       -1.33270
C          1.70590       -0.33700       -3.34590
C          2.75290        0.58370       -3.32970
C          3.42870        0.90290       -4.48920
C          3.06670        0.31630       -5.69290
S          3.85610        0.72640       -7.22330
C          5.55740        1.08190       -6.69220
C          2.02490       -0.60570       -5.71710
C          1.36360       -0.94270       -4.55760
C          0.69330        0.48910       -0.03350
S         -0.91530        1.11970       -0.09480
C         -0.72760        1.79100        1.51850
C          0.54900        1.61370        2.03130
N          1.04210        2.20050        3.18040
C          2.11280        1.59800        3.85300
C          2.13540        0.21930        4.05530
C          3.22760       -0.37530        4.65550
C          4.29770        0.40310        5.06630
S          5.72070       -0.37340        5.80040
C          6.96380        0.05950        4.54160
C          4.25630        1.78290        4.91980
C          3.17340        2.37880        4.31100
C          0.51840        3.41680        3.64960
C          0.09230        4.40460        2.76640
C         -0.61260        5.50110        3.22200
C         -0.88380        5.64030        4.57710
S         -1.92660        6.89090        5.25020
C         -2.65310        7.67640        3.78910
C         -0.33050        4.72800        5.47560
C          0.35660        3.62500        5.02020
C          1.33140        0.82320        1.14910
S          2.92590        0.15930        1.20150
C         -1.84810        2.44710        2.12150
C         -2.70620        3.32500        1.53290
C         -3.65980        3.87230        2.42490
C         -4.64510        4.83820        2.14260
C         -4.84920        5.35080        0.80240
C         -4.87800        4.66460       -0.37840
C         -5.10500        5.49300       -1.49570
C         -5.23620        6.81040       -1.17950
C         -5.49890        7.96160       -2.08680
C         -6.88950        8.55520       -1.85480
S         -5.09610        7.05690        0.53000
C         -5.39420        5.28230        3.22370
C         -5.22450        4.81010        4.54980
C         -4.27510        3.79890        4.82270
C         -4.12520        3.20860        6.13380
C         -2.98370        2.75600        6.73720
C         -3.20830        2.18000        8.00100
C         -4.51900        2.17000        8.37070
C         -5.13240        1.60950        9.60660
C         -5.88410        0.30940        9.31250
S         -5.50870        2.89330        7.14940
C         -3.50640        3.37490        3.74230
S         -2.24560        2.17350        3.80670
C         -6.08730        5.47360        5.44770
C         -6.91870        6.39300        4.85730
S         -6.66840        6.45880        3.12300
C         -7.95560        7.10080        5.51600
C         -8.79950        8.04220        5.01900
C        -10.12940        8.25790        5.65410
O        -10.46110        7.94450        6.77410
C        -10.96380        8.85970        4.59400
C        -12.33230        9.11980        4.64320
C        -12.84300        9.65560        3.48530
C        -12.05560        9.91680        2.35500
C        -10.70350        9.67810        2.29360
C        -10.16540        9.13270        3.46200
C         -8.78340        8.79650        3.78360
C         -7.66770        9.32450        3.18900
C         -7.67310       10.04180        1.97880
N         -7.61580       10.58850        0.97040
C         -6.39410        9.26720        3.79130
N         -5.36600        9.32140        4.29910
C        -13.22810       10.43020        1.55740
C        -13.81860        9.46940        0.50360
C        -15.19810       10.02780        0.23830
C        -15.94410        9.78520        1.30850
C        -15.08150        9.05800        2.31480
C        -14.18740        8.25300        1.36280
C        -14.10550       10.14290        2.81780
H          8.89760       -8.53170       -1.41230
H          6.67390      -10.64610       -6.89410
H          9.95000      -13.25670       -4.04690
H          8.35410      -15.33570       -6.23990
H         10.81740      -14.88070       -7.14480
H          9.64310      -16.59670       -8.75160
H          7.92580      -15.26080      -10.27600
H          8.04330      -12.72220       -9.60910
H         10.03630      -12.40420       -7.83490
H         10.60160      -13.30450       -9.26060
H          6.67050      -14.02580       -7.73410
H          8.06970       -6.65470       -0.24500
H          6.64640       -6.64270        1.52430
H          7.76470       -6.25530        3.82830
H          8.76090       -2.55070        4.41390
H          9.32990       -4.16030        4.87740
H          7.15150       -4.61100        6.00580
H          7.92730       -3.17120        6.67320
H          6.57870       -3.00410        5.55240
H          3.99690       -6.22070       -4.60700
H          3.56150       -5.52630       -7.06460
H          3.66780       -1.85220       -7.76570
H          3.55680       -3.42400       -8.57550
H          6.04930       -3.58360       -8.57060
H          6.14830       -2.03680       -7.72630
H          5.51500       -2.10080       -9.37430
H          3.22760       -2.10460       -2.80320
H         -0.86190        0.34530       -3.85040
H         -3.25520       -0.23000       -3.82960
H         -4.79980       -2.47850        0.06120
H         -6.21080       -3.11630       -0.81200
H         -4.64590       -3.94230       -0.96630
H         -2.57320       -2.94410       -0.59350
H         -0.19950       -2.38330       -0.62920
H          3.03200        1.06610       -2.40560
H          4.22600        1.62780       -4.44700
H          6.17170        1.00780       -7.58410
H          5.62680        2.08580       -6.28310
H          5.86070        0.33770       -5.96210
H          1.73820       -1.06280       -6.65140
H          0.57660       -1.68100       -4.58370
H          1.29530       -0.37980        3.73670
H          3.25740       -1.44350        4.80280
H          6.96870        1.13280        4.38240
H          6.73560       -0.46520        3.61770
H          7.92240       -0.26290        4.93380
H          5.07690        2.38850        5.27450
H          3.14150        3.45000        4.17720
H          0.28560        4.29890        1.70920
H         -0.95740        6.23110        2.50780
H         -3.07760        6.91690        3.13880
H         -1.90420        8.26680        3.26920
H         -3.44330        8.32500        4.15870
H         -0.48570        4.87910        6.53290
H          0.73560        2.89240        5.71760
H         -2.61200        3.62470        0.50500
H         -4.78270        3.59500       -0.44110
H         -5.16790        5.12020       -2.50290
H         -5.41080        7.61550       -3.11920
H         -4.74940        8.73980       -1.92140
H         -7.07890        9.35280       -2.56830
H         -7.65320        7.78970       -1.97660
H         -6.96600        8.96860       -0.85150
H         -2.00640        2.87020        6.30680
H         -2.42060        1.78610        8.61850
H         -5.82820        2.33510       10.03480
H         -4.34160        1.42080       10.33560
H         -6.31550       -0.09120       10.22620
H         -6.68520        0.49080        8.59940
H         -5.20780       -0.43160        8.89210
H         -6.08970        5.30870        6.50940
H         -8.18410        6.75230        6.51840
H        -12.90530        8.90870        5.53240
H        -10.10220        9.87940        1.42190
H        -13.14680       11.45520        1.20080
H        -13.18460        9.29840       -0.36210
H        -15.46420       10.57310       -0.64810
H        -16.95800       10.08730        1.49450
H        -15.59920        8.51160        3.09860
H        -13.33700        7.77760        1.84800
H        -14.74960        7.50830        0.80180
H        -14.60870       10.97710        3.30280
