224

C        -11.69550        4.09540        4.29070
C        -12.32650        5.18920        3.79270
C        -13.76130        5.10740        3.40060
O        -14.56840        4.28290        3.76420
C        -13.94780        6.19290        2.41740
C        -15.06900        6.42910        1.62450
C        -14.92920        7.48540        0.75680
C        -13.76200        8.25830        0.67950
C        -12.65380        8.04900        1.46550
C        -12.77560        6.97700        2.35190
C        -11.82750        6.47100        3.33880
C        -10.81910        7.18440        3.92880
C        -10.40820        8.46450        3.50950
N        -10.02600        9.49940        3.19180
C        -10.15670        6.73750        5.09320
N         -9.65130        6.42920        6.07630
C        -14.31200        9.12190       -0.42740
C        -13.81680        8.84660       -1.86920
C        -13.41460        7.39340       -1.91560
C        -14.52020        6.66460       -1.84090
C        -15.69020        7.61200       -1.74250
C        -15.16780        8.77660       -2.59890
C        -15.61330        8.26380       -0.33930
C        -10.31260        3.78170        4.26950
C         -9.73360        2.68640        4.85940
C         -8.36230        2.52750        4.56890
C         -7.48470        1.51660        5.02820
C         -7.95640        0.40040        5.81040
C         -9.13450       -0.28330        5.66490
C         -9.36460       -1.32260        6.58290
C         -8.37380       -1.50750        7.50790
S         -8.40550       -2.78080        8.70310
C         -7.05760       -2.27320        9.82640
C         -7.45040       -1.09960       10.70030
Se        -6.94540       -0.30910        7.23400
C         -6.15140        1.65170        4.65480
C         -5.66650        2.71620        3.85970
C         -6.53900        3.72450        3.39300
C         -6.07190        4.86540        2.63800
C         -6.73170        5.54480        1.65020
C         -6.07160        6.67020        1.12050
C         -4.86120        6.95360        1.68500
S         -3.87110        8.32600        1.24980
C         -2.22520        7.77260        1.82520
C         -1.65850        6.66470        0.96110
Se        -4.44530        5.72980        3.05130
C         -7.87700        3.57260        3.74100
S         -9.15430        4.66190        3.28940
C         -4.29370        2.56380        3.56520
C         -3.72870        1.44480        4.10680
S         -4.88290        0.51040        5.02480
C         -2.38290        1.02050        3.89560
C         -1.36220        1.80320        3.43700
C         -0.17610        1.08550        3.16040
C          1.00750        1.58150        2.57310
C          1.23170        3.00290        2.43180
C          0.89140        3.98840        3.31880
C          1.27980        5.27500        2.90070
C          1.91030        5.28450        1.69360
C          2.47390        6.44690        0.95090
C          3.99920        6.48710        1.06140
S          2.05480        3.67950        1.05480
C          1.92570        0.62570        2.15800
C          1.77910       -0.76080        2.41250
C          0.63020       -1.24730        3.07110
C          0.43470       -2.66320        3.30410
C          0.71880       -3.71130        2.47250
C          0.38830       -4.96600        3.02000
C         -0.15010       -4.88610        4.26720
C         -0.56940       -5.99740        5.16570
C          0.48560       -6.26570        6.24150
S         -0.26250       -3.23870        4.79320
C         -0.32690       -0.29920        3.41500
S         -1.90390       -0.65190        4.07340
C          2.87650       -1.49800        1.91660
C          3.80430       -0.74110        1.25300
S          3.38710        0.96020        1.27370
C          4.86190       -1.25960        0.45780
C          5.89640       -0.62060       -0.21840
N          6.27530        0.70020       -0.07560
C          6.27040        1.33830        1.16890
C          6.50040        0.62750        2.34320
C          6.43450        1.25320        3.57320
C          6.15150        2.60950        3.64920
S          6.00560        3.51630        5.15640
C          6.42480        2.30520        6.44160
C          5.95290        3.33260        2.47430
C          6.00850        2.70850        1.25070
C          6.73160        1.38590       -1.21440
C          7.85540        2.20900       -1.14810
C          8.30290        2.85850       -2.27550
C          7.64570        2.69740       -3.49490
S          8.31720        3.57650       -4.86920
C          7.36690        2.95920       -6.28770
C          6.52210        1.88570       -3.56260
C          6.06920        1.23920       -2.42900
C          6.53710       -1.51520       -1.11280
S          7.84370       -1.35360       -2.22780
C          7.62430       -3.02630       -2.76820
C          6.65270       -3.70180       -2.00120
N          6.38680       -5.04120       -2.01580
C          5.13860       -5.51290       -1.55850
C          3.95410       -4.92710       -1.99160
C          2.73600       -5.38210       -1.52420
C          2.68960       -6.43350       -0.61880
S          1.20130       -7.09260        0.05990
C         -0.11190       -6.06170       -0.65270
C          3.87580       -7.03900       -0.20510
C          5.08960       -6.58590       -0.67050
C          7.31390       -5.98650       -2.47300
C          8.66980       -5.88360       -2.15480
C          9.57300       -6.77930       -2.67580
C          9.14920       -7.79720       -3.53350
S         10.40380       -8.82250       -4.22050
C          9.55620       -9.67740       -5.57940
C          7.79370       -7.94580       -3.79470
C          6.88520       -7.04920       -3.26530
C          6.03080       -2.80690       -1.10150
S          4.76560       -2.97340        0.06550
C          8.40560       -3.45050       -3.84800
C          8.07100       -4.45310       -4.73230
C          6.68760       -4.86260       -5.01480
O          5.66700       -4.43510       -4.50410
C          6.76930       -5.80170       -6.15270
C          5.71140       -6.45030       -6.78150
C          6.09180       -7.26770       -7.81950
C          7.42670       -7.41710       -8.21340
C          8.48120       -6.77810       -7.60200
C          8.11540       -5.95310       -6.53590
C          8.94390       -5.14830       -5.63850
C         10.31480       -5.18050       -5.56410
C         11.13670       -5.94820       -6.41030
N         11.84890       -6.55660       -7.07550
C         11.06070       -4.49810       -4.58290
N         11.72100       -3.98850       -3.79300
C          7.07430       -8.36580       -9.33270
C          7.06730       -7.80800      -10.77730
C          6.78180       -6.33100      -10.66630
C          5.51750       -6.19010      -10.29120
C          4.92510       -7.56970      -10.14230
C          5.69350       -8.31450      -11.24550
C          5.58550       -8.20060       -8.89160
H        -12.34520        3.29980        4.64210
H        -15.94970        5.81220        1.71070
H        -11.75620        8.64240        1.39940
H        -14.38590       10.18560       -0.21050
H        -13.08430        9.55950       -2.23830
H        -12.39550        7.05440       -1.93920
H        -14.60910        5.59510       -1.78950
H        -16.66350        7.20060       -1.99680
H        -15.06540        8.51290       -3.65050
H        -15.76030        9.68540       -2.50340
H        -16.53790        8.76730       -0.06410
H        -10.28120        2.04140        5.52220
H         -9.82410       -0.07070        4.86510
H        -10.25160       -1.93200        6.56540
H         -6.18780       -2.04360        9.20250
H         -6.84680       -3.15980       10.42370
H         -7.67790       -0.22510       10.09040
H         -6.63060       -0.84790       11.36950
H         -8.32710       -1.34540       11.29480
H         -7.66990        5.20420        1.24590
H         -6.48100        7.26160        0.32010
H         -1.60340        8.66610        1.78550
H         -2.33530        7.45820        2.86800
H         -1.55390        7.00160       -0.06750
H         -0.68240        6.36180        1.33490
H         -2.31590        5.79490        0.97450
H         -3.74450        3.21560        2.90880
H         -1.46820        2.85740        3.26010
H          0.41620        3.79160        4.26300
H          1.09930        6.16410        3.47960
H          2.05240        7.36720        1.36160
H          2.19350        6.38040       -0.10320
H          4.29870        6.57530        2.10340
H          4.39560        7.33720        0.51180
H          4.42740        5.57550        0.65080
H          1.11780       -3.58410        1.48180
H          0.54450       -5.89720        2.50460
H         -0.71650       -6.89750        4.56500
H         -1.51670       -5.74460        5.64740
H          1.43500       -6.52910        5.78100
H          0.17030       -7.08450        6.88320
H          0.63210       -5.37890        6.85410
H          2.99260       -2.55880        2.04340
H          6.72330       -0.42830        2.29760
H          6.60680        0.66720        4.46160
H          7.43130        1.92980        6.28170
H          5.69670        1.49910        6.44660
H          6.37890        2.84820        7.38050
H          5.73920        4.38780        2.54020
H          5.82750        3.26900        0.34640
H          8.37690        2.32630       -0.21020
H          9.17630        3.49060       -2.23070
H          7.82460        3.40870       -7.16350
H          6.33050        3.27570       -6.21210
H          7.44850        1.87770       -6.34180
H          5.98420        1.75120       -4.48680
H          5.18860        0.61590       -2.48450
H          3.99730       -4.13130       -2.71820
H          1.83400       -4.91060       -1.87930
H          0.03160       -5.02420       -0.36680
H         -1.03840       -6.43330       -0.22580
H         -0.13120       -6.17830       -1.73230
H          3.83000       -7.86290        0.49030
H          6.00720       -7.05290       -0.34470
H          9.01350       -5.09040       -1.50860
H         10.62260       -6.69260       -2.44120
H          9.03120       -8.95170       -6.19440
H          8.87890      -10.43180       -5.18920
H         10.34340      -10.15130       -6.15730
H          7.43250       -8.74530       -4.42120
H          5.83320       -7.16030       -3.48080
H          9.31890       -2.89250       -4.01600
H          4.69460       -6.30210       -6.45200
H          9.50370       -6.89080       -7.92360
H          7.51580       -9.35930       -9.27500
H          7.93310       -8.08620      -11.37230
H          7.52160       -5.56570      -10.81090
H          4.99020       -5.28330      -10.05930
H          3.83990       -7.63060      -10.15940
H          5.43540       -7.96920      -12.24540
H          5.58870       -9.39740      -11.19180
H          5.05570       -9.08670       -8.54590
