150

C         -2.44010       -4.27710        4.90830
C         -2.23730       -5.62660        4.82880
C         -1.29430       -6.27060        3.88510
O         -0.71400       -5.77230        2.94140
C         -1.09630       -7.64010        4.40130
C         -0.21800       -8.59880        3.90280
C         -0.24240       -9.79030        4.58660
C         -1.06550      -10.00960        5.69870
C         -1.91670       -9.06300        6.21820
C         -1.91480       -7.84700        5.52970
C         -2.65830       -6.61810        5.79140
C         -3.64870       -6.45200        6.72550
C         -4.06820       -7.44820        7.62890
N         -4.45520       -8.21640        8.39040
C         -4.40780       -5.27240        6.87490
N         -5.08240       -4.35890        7.04600
C         -0.57120      -11.42250        5.88530
C         -1.48820      -12.57630        5.40960
C         -2.34670      -12.01440        4.30400
C         -1.56680      -11.80750        3.25130
C         -0.16640      -12.22480        3.62670
C         -0.47760      -13.38730        4.58270
C          0.34660      -11.17750        4.64610
C         -2.15800       -3.35720        3.87000
C         -2.33790       -3.63330        2.49670
C         -1.93530       -2.71580        1.44770
N         -2.31260       -3.15270        0.24580
S         -3.07830       -4.55670        0.41370
N         -2.98470       -4.68840        2.00850
C         -1.29030       -1.48620        1.72370
C         -1.30200       -1.13960        3.09860
N         -0.88410        0.02310        3.59370
S         -1.02160       -0.00290        5.19830
N         -1.59700       -1.49410        5.35070
C         -1.73070       -2.04100        4.14240
C         -0.71090       -0.60400        0.78070
C         -0.35140       -0.79000       -0.56670
N         -0.36360       -1.93630       -1.32910
C          0.00050       -3.19320       -0.87070
C         -0.44150       -4.33350       -1.54650
C         -0.12890       -5.59170       -1.08290
C          0.65390       -5.74280        0.05730
S          1.10210       -7.30930        0.70870
C         -0.23640       -8.39280        0.12350
C          1.14270       -4.61040        0.70590
C          0.82250       -3.35290        0.24960
C         -0.70960       -1.73840       -2.68330
C          0.10700       -2.18520       -3.72060
C         -0.20270       -1.86390       -5.02350
C         -1.32810       -1.09390       -5.31740
S         -1.57730       -0.67840       -7.01050
C         -3.15830        0.21380       -7.01670
C         -2.16800       -0.68840       -4.28820
C         -1.85810       -1.01180       -2.98350
C          0.08460        0.42910       -1.13770
S          0.65570        0.87610       -2.70620
C          0.92860        2.52480       -2.17810
C          0.58440        2.71130       -0.83490
N          0.46440        3.90920       -0.14870
C          1.55160        4.75800        0.11480
C          1.39790        6.13540       -0.00370
C          2.44700        6.98520        0.28750
C          3.66260        6.46250        0.71320
S          5.07980        7.44520        1.07610
C          4.46010        9.15070        1.04690
C          3.81340        5.08150        0.84170
C          2.76960        4.23460        0.54440
C         -0.75570        4.15460        0.48640
C         -1.95120        3.73690       -0.10610
C         -3.15370        3.96180        0.52030
C         -3.20110        4.61490        1.75210
S         -4.79970        4.83750        2.45790
C         -4.48980        5.81090        3.95800
C         -2.01720        5.04030        2.34120
C         -0.80930        4.81030        1.71500
C          0.10370        1.50460       -0.27080
S         -0.40050        1.04730        1.32360
C          1.28190        3.45510       -3.19990
C          2.26350        4.46050       -3.09760
C          2.44290        5.48790       -4.10100
N          3.47360        6.28120       -3.80440
S          4.15350        5.78020       -2.43500
N          3.18450        4.54250       -2.13880
C          1.65290        5.55490       -5.27180
C          0.82560        4.42300       -5.46790
N          0.08440        4.18530       -6.54820
S         -0.73370        2.82020       -6.33600
N         -0.22260        2.46540       -4.85730
C          0.64620        3.39840       -4.46150
C          1.69320        6.57960       -6.24160
C          2.16840        7.85930       -6.14450
C          2.51070        8.60420       -7.37740
O          2.25490        8.31640       -8.53610
C          3.29160        9.75620       -6.93100
C          3.91460       10.70640       -7.73100
O          3.83210       10.66410       -9.06610
C          4.63320       11.71760       -7.07810
C          4.70180       11.74220       -5.69900
C          4.06640       10.79130       -4.89990
C          3.35310        9.78870       -5.52720
C          2.54720        8.67740       -5.02010
C          2.07790        8.57450       -3.73270
C          1.05680        7.69650       -3.32570
N          0.20370        7.03410       -2.93350
C          2.52630        9.36270       -2.66070
N          2.87480        9.92580       -1.72060
H         -2.76790       -3.83800        5.84280
H          0.41760       -8.38210        3.05880
H         -2.52670       -9.23440        7.08970
H         -0.09360      -11.63950        6.83870
H         -2.01300      -13.09390        6.20780
H         -3.38840      -11.77760        4.41640
H         -1.82950      -11.36430        2.30820
H          0.51410      -12.42390        2.80240
H          0.38600      -13.71910        5.15730
H         -0.93260      -14.23830        4.07780
H          1.42390      -11.23280        4.79070
H         -1.07410       -4.22560       -2.41380
H         -0.50150       -6.45180       -1.61620
H         -1.19090       -7.93000        0.35700
H         -0.13030       -9.32390        0.67180
H         -0.13750       -8.58510       -0.94090
H          1.76030       -4.73290        1.58120
H          1.20340       -2.48370        0.76370
H          0.99360       -2.75830       -3.49540
H          0.43670       -2.18590       -5.83080
H         -3.33980        0.47840       -8.05370
H         -3.08150        1.11480       -6.41510
H         -3.95090       -0.43710       -6.65940
H         -3.05750       -0.11390       -4.48540
H         -2.50200       -0.69070       -2.17830
H          0.45730        6.53770       -0.34830
H          2.30920        8.04700        0.16420
H          5.30800        9.77090        1.32080
H          4.11380        9.41540        0.05170
H          3.66890        9.26100        1.78260
H          4.75960        4.68760        1.17880
H          2.88620        3.16600        0.63970
H         -1.92870        3.24800       -1.06860
H         -4.07700        3.64370        0.06080
H         -3.89080        5.23680        4.65890
H         -5.46820        6.00720        4.38560
H         -4.00660        6.74780        3.69720
H         -2.01840        5.54180        3.29530
H          0.10560        5.12930        2.19050
H          1.33010        6.29210       -7.22350
H          3.29320        9.89010       -9.32200
H          5.12740       12.46910       -7.67290
H          5.26650       12.52800       -5.21980
H          4.14900       10.84560       -3.82700
