
  xtb     02082208093D
 energy: -289.425531551870 gnorm: 0.000875507475 xtb: 6.4.1 (unknown)
168188  0     0  0            999 V2000
    2.1159    2.7483    6.2543 C   0  0  0  0  0  0  0  0  0  0  0  0
    2.7244    3.9538    6.4219 C   0  0  0  0  0  0  0  0  0  0  0  0
    2.4861    5.1641    5.5931 C   0  0  0  0  0  0  0  0  0  0  0  0
    1.6424    5.3307    4.7389 O   0  0  0  0  0  0  0  0  0  0  0  0
    3.3935    6.1981    6.1282 C   0  0  0  0  0  0  0  0  0  0  0  0
    3.5730    7.4868    5.6321 C   0  0  0  0  0  0  0  0  0  0  0  0
    4.4789    8.2394    6.3393 C   0  0  0  0  0  0  0  0  0  0  0  0
    5.1457    7.7516    7.4712 C   0  0  0  0  0  0  0  0  0  0  0  0
    4.9683    6.4876    7.9794 C   0  0  0  0  0  0  0  0  0  0  0  0
    4.0593    5.6998    7.2654 C   0  0  0  0  0  0  0  0  0  0  0  0
    3.6313    4.3222    7.4941 C   0  0  0  0  0  0  0  0  0  0  0  0
    4.0540    3.5212    8.5238 C   0  0  0  0  0  0  0  0  0  0  0  0
    3.6600    2.1850    8.7449 C   0  0  0  0  0  0  0  0  0  0  0  0
    3.3991    1.0972    9.0074 N   0  0  0  0  0  0  0  0  0  0  0  0
    4.9486    3.9228    9.5378 C   0  0  0  0  0  0  0  0  0  0  0  0
    5.6715    4.1708   10.3951 N   0  0  0  0  0  0  0  0  0  0  0  0
    5.9091    9.0365    7.6738 C   0  0  0  0  0  0  0  0  0  0  0  0
    7.3959    9.0652    7.2416 C   0  0  0  0  0  0  0  0  0  0  0  0
    7.5437    8.0366    6.1482 C   0  0  0  0  0  0  0  0  0  0  0  0
    6.9160    8.4953    5.0737 C   0  0  0  0  0  0  0  0  0  0  0  0
    6.3326    9.8425    5.4211 C   0  0  0  0  0  0  0  0  0  0  0  0
    7.3984   10.3537    6.4034 C   0  0  0  0  0  0  0  0  0  0  0  0
    5.1698    9.5783    6.4100 C   0  0  0  0  0  0  0  0  0  0  0  0
    1.4033    2.3197    5.0933 C   0  0  0  0  0  0  0  0  0  0  0  0
    1.7275    2.7275    3.7792 C   0  0  0  0  0  0  0  0  0  0  0  0
    2.7474    3.4452    3.2891 N   0  0  0  0  0  0  0  0  0  0  0  0
    2.5525    3.4512    2.0024 N   0  0  0  0  0  0  0  0  0  0  0  0
    3.4290    4.1557    1.1130 C   0  0  0  0  0  0  0  0  0  0  0  0
    2.6610    5.2508    0.3829 C   0  0  0  0  0  0  0  0  0  0  0  0
    1.5095    2.8022    1.5648 N   0  0  0  0  0  0  0  0  0  0  0  0
    0.9456    2.3016    2.6707 C   0  0  0  0  0  0  0  0  0  0  0  0
   -0.1768    1.4522    2.8079 C   0  0  0  0  0  0  0  0  0  0  0  0
   -0.3960    0.9778    4.1024 C   0  0  0  0  0  0  0  0  0  0  0  0
    0.3676    1.3904    5.1863 C   0  0  0  0  0  0  0  0  0  0  0  0
   -0.9201    1.0885    1.6461 C   0  0  0  0  0  0  0  0  0  0  0  0
   -2.1129    0.3747    1.5093 C   0  0  0  0  0  0  0  0  0  0  0  0
   -2.9745   -0.0528    2.5103 N   0  0  0  0  0  0  0  0  0  0  0  0
   -3.6837   -1.2364    2.2150 C   0  0  0  0  0  0  0  0  0  0  0  0
   -5.0775   -1.2676    2.1898 C   0  0  0  0  0  0  0  0  0  0  0  0
   -5.7299   -2.3684    1.6802 C   0  0  0  0  0  0  0  0  0  0  0  0
   -5.0062   -3.4559    1.1964 C   0  0  0  0  0  0  0  0  0  0  0  0
   -5.9166   -4.7436    0.3987 S   0  0  0  0  0  0  0  0  0  0  0  0
   -4.6618   -5.5426   -0.6446 C   0  0  0  0  0  0  0  0  0  0  0  0
   -3.6244   -3.4764    1.3295 C   0  0  0  0  0  0  0  0  0  0  0  0
   -2.9703   -2.3707    1.8346 C   0  0  0  0  0  0  0  0  0  0  0  0
   -3.3722    0.7603    3.5729 C   0  0  0  0  0  0  0  0  0  0  0  0
   -3.2283    2.1481    3.5324 C   0  0  0  0  0  0  0  0  0  0  0  0
   -3.5854    2.9148    4.6178 C   0  0  0  0  0  0  0  0  0  0  0  0
   -4.1028    2.3228    5.7685 C   0  0  0  0  0  0  0  0  0  0  0  0
   -4.5127    3.4104    7.0961 S   0  0  0  0  0  0  0  0  0  0  0  0
   -5.0006    2.2937    8.4423 C   0  0  0  0  0  0  0  0  0  0  0  0
   -4.2693    0.9447    5.8062 C   0  0  0  0  0  0  0  0  0  0  0  0
   -3.9019    0.1737    4.7217 C   0  0  0  0  0  0  0  0  0  0  0  0
   -2.3709    0.0857    0.1510 C   0  0  0  0  0  0  0  0  0  0  0  0
   -3.6366   -0.7806   -0.6544 S   0  0  0  0  0  0  0  0  0  0  0  0
   -2.7852   -0.6205   -2.1845 C   0  0  0  0  0  0  0  0  0  0  0  0
   -1.7047    0.2786   -2.0933 C   0  0  0  0  0  0  0  0  0  0  0  0
   -1.0527    0.8573   -3.1494 N   0  0  0  0  0  0  0  0  0  0  0  0
   -1.6907    1.1029   -4.3690 C   0  0  0  0  0  0  0  0  0  0  0  0
   -0.9484    1.1271   -5.5491 C   0  0  0  0  0  0  0  0  0  0  0  0
   -1.5560    1.3592   -6.7657 C   0  0  0  0  0  0  0  0  0  0  0  0
   -2.9268    1.5789   -6.8296 C   0  0  0  0  0  0  0  0  0  0  0  0
   -3.8196    1.8783   -8.3173 S   0  0  0  0  0  0  0  0  0  0  0  0
   -2.5764    1.6824   -9.6255 C   0  0  0  0  0  0  0  0  0  0  0  0
   -3.6697    1.5819   -5.6488 C   0  0  0  0  0  0  0  0  0  0  0  0
   -3.0628    1.3523   -4.4358 C   0  0  0  0  0  0  0  0  0  0  0  0
    0.2608    1.3175   -2.9576 C   0  0  0  0  0  0  0  0  0  0  0  0
    0.6223    2.6019   -3.3520 C   0  0  0  0  0  0  0  0  0  0  0  0
    1.9024    3.0697   -3.1327 C   0  0  0  0  0  0  0  0  0  0  0  0
    2.8423    2.2535   -2.5173 C   0  0  0  0  0  0  0  0  0  0  0  0
    4.4990    2.7546   -2.1676 S   0  0  0  0  0  0  0  0  0  0  0  0
    4.6886    4.3082   -3.0889 C   0  0  0  0  0  0  0  0  0  0  0  0
    2.4876    0.9625   -2.1319 C   0  0  0  0  0  0  0  0  0  0  0  0
    1.2103    0.4970   -2.3497 C   0  0  0  0  0  0  0  0  0  0  0  0
   -1.4456    0.6060   -0.7409 C   0  0  0  0  0  0  0  0  0  0  0  0
   -0.2180    1.5077    0.0862 S   0  0  0  0  0  0  0  0  0  0  0  0
   -3.1519   -1.5349   -3.1961 C   0  0  0  0  0  0  0  0  0  0  0  0
   -2.3138   -1.9894   -4.2426 C   0  0  0  0  0  0  0  0  0  0  0  0
   -2.6561   -3.1387   -5.0582 C   0  0  0  0  0  0  0  0  0  0  0  0
   -1.7245   -3.3841   -5.9762 N   0  0  0  0  0  0  0  0  0  0  0  0
   -0.5135   -2.3503   -5.7878 S   0  0  0  0  0  4  0  0  0  0  0  0
   -1.1163   -1.5013   -4.5625 N   0  0  0  0  0  0  0  0  0  0  0  0
   -3.8390   -3.8909   -4.8770 C   0  0  0  0  0  0  0  0  0  0  0  0
   -4.7236   -3.3708   -3.9117 C   0  0  0  0  0  0  0  0  0  0  0  0
   -5.8976   -3.8985   -3.5492 N   0  0  0  0  0  0  0  0  0  0  0  0
   -6.4951   -3.0666   -2.3138 S   0  0  0  0  0  0  0  0  0  0  0  0
   -5.3015   -2.0026   -2.1569 N   0  0  0  0  0  0  0  0  0  0  0  0
   -4.3695   -2.2478   -3.0807 C   0  0  0  0  0  0  0  0  0  0  0  0
   -4.1179   -5.0938   -5.5745 C   0  0  0  0  0  0  0  0  0  0  0  0
   -3.1723   -6.0266   -5.9003 C   0  0  0  0  0  0  0  0  0  0  0  0
   -1.8774   -6.1669   -5.1954 C   0  0  0  0  0  0  0  0  0  0  0  0
   -1.4294   -5.4747   -4.3020 O   0  0  0  0  0  0  0  0  0  0  0  0
   -1.2961   -7.4346   -5.6795 C   0  0  0  0  0  0  0  0  0  0  0  0
   -0.0874   -8.0025   -5.2826 C   0  0  0  0  0  0  0  0  0  0  0  0
    0.1857   -9.2111   -5.8765 C   0  0  0  0  0  0  0  0  0  0  0  0
   -0.6822   -9.8164   -6.7943 C   0  0  0  0  0  0  0  0  0  0  0  0
   -1.8787   -9.2687   -7.1932 C   0  0  0  0  0  0  0  0  0  0  0  0
   -2.1744   -8.0369   -6.6016 C   0  0  0  0  0  0  0  0  0  0  0  0
   -3.3357   -7.1662   -6.7714 C   0  0  0  0  0  0  0  0  0  0  0  0
   -4.3577   -7.3504   -7.6685 C   0  0  0  0  0  0  0  0  0  0  0  0
   -4.4787   -8.4624   -8.5245 C   0  0  0  0  0  0  0  0  0  0  0  0
   -4.6402   -9.3469   -9.2397 N   0  0  0  0  0  0  0  0  0  0  0  0
   -5.4082   -6.4331   -7.8784 C   0  0  0  0  0  0  0  0  0  0  0  0
   -6.2769   -5.7255   -8.1319 N   0  0  0  0  0  0  0  0  0  0  0  0
    0.2143  -11.0173   -6.9719 C   0  0  0  0  0  0  0  0  0  0  0  0
   -0.2092  -12.3087   -6.2405 C   0  0  0  0  0  0  0  0  0  0  0  0
    1.0583  -13.1311   -6.1938 C   0  0  0  0  0  0  0  0  0  0  0  0
    1.8800  -12.5573   -5.3242 C   0  0  0  0  0  0  0  0  0  0  0  0
    1.1817  -11.3371   -4.7689 C   0  0  0  0  0  0  0  0  0  0  0  0
   -0.2695  -11.8345   -4.7827 C   0  0  0  0  0  0  0  0  0  0  0  0
    1.1826  -10.3416   -5.9487 C   0  0  0  0  0  0  0  0  0  0  0  0
    2.1566    2.0259    7.0599 H   0  0  0  0  0  0  0  0  0  0  0  0
    3.0316    7.8245    4.7620 H   0  0  0  0  0  0  0  0  0  0  0  0
    5.4850    6.1315    8.8546 H   0  0  0  0  0  0  0  0  0  0  0  0
    5.7420    9.5472    8.6201 H   0  0  0  0  0  0  0  0  0  0  0  0
    8.1058    8.9992    8.0616 H   0  0  0  0  0  0  0  0  0  0  0  0
    8.0239    7.0850    6.2822 H   0  0  0  0  0  0  0  0  0  0  0  0
    6.7670    8.0027    4.1305 H   0  0  0  0  0  0  0  0  0  0  0  0
    6.0754   10.4852    4.5829 H   0  0  0  0  0  0  0  0  0  0  0  0
    8.3578   10.5425    5.9238 H   0  0  0  0  0  0  0  0  0  0  0  0
    7.0866   11.2351    6.9620 H   0  0  0  0  0  0  0  0  0  0  0  0
    4.5228   10.4453    6.5300 H   0  0  0  0  0  0  0  0  0  0  0  0
    3.8455    3.4443    0.3931 H   0  0  0  0  0  0  0  0  0  0  0  0
    4.2289    4.5708    1.7280 H   0  0  0  0  0  0  0  0  0  0  0  0
    2.2148    5.9374    1.0984 H   0  0  0  0  0  0  0  0  0  0  0  0
    1.8703    4.8060   -0.2167 H   0  0  0  0  0  0  0  0  0  0  0  0
    3.3348    5.8073   -0.2627 H   0  0  0  0  0  0  0  0  0  0  0  0
   -1.1682    0.2494    4.2794 H   0  0  0  0  0  0  0  0  0  0  0  0
    0.1201    0.9988    6.1626 H   0  0  0  0  0  0  0  0  0  0  0  0
   -5.6375   -0.4046    2.5165 H   0  0  0  0  0  0  0  0  0  0  0  0
   -6.8061   -2.3793    1.6078 H   0  0  0  0  0  0  0  0  0  0  0  0
   -4.0516   -4.7852   -1.1279 H   0  0  0  0  0  0  0  0  0  0  0  0
   -5.2097   -6.1080   -1.3926 H   0  0  0  0  0  0  0  0  0  0  0  0
   -4.0487   -6.2154   -0.0521 H   0  0  0  0  0  0  0  0  0  0  0  0
   -3.0484   -4.3341    1.0214 H   0  0  0  0  0  0  0  0  0  0  0  0
   -1.8917   -2.3625    1.8947 H   0  0  0  0  0  0  0  0  0  0  0  0
   -2.8398    2.6248    2.6462 H   0  0  0  0  0  0  0  0  0  0  0  0
   -3.4672    3.9868    4.5872 H   0  0  0  0  0  0  0  0  0  0  0  0
   -5.2022    2.9357    9.2940 H   0  0  0  0  0  0  0  0  0  0  0  0
   -5.9010    1.7499    8.1713 H   0  0  0  0  0  0  0  0  0  0  0  0
   -4.1837    1.6172    8.6760 H   0  0  0  0  0  0  0  0  0  0  0  0
   -4.6749    0.4545    6.6762 H   0  0  0  0  0  0  0  0  0  0  0  0
   -4.0186   -0.8994    4.7663 H   0  0  0  0  0  0  0  0  0  0  0  0
    0.1126    0.9343   -5.5109 H   0  0  0  0  0  0  0  0  0  0  0  0
   -0.9502    1.3579   -7.6573 H   0  0  0  0  0  0  0  0  0  0  0  0
   -3.1147    1.8121  -10.5592 H   0  0  0  0  0  0  0  0  0  0  0  0
   -2.1487    0.6851   -9.5823 H   0  0  0  0  0  0  0  0  0  0  0  0
   -1.8113    2.4478   -9.5331 H   0  0  0  0  0  0  0  0  0  0  0  0
   -4.7306    1.7735   -5.6984 H   0  0  0  0  0  0  0  0  0  0  0  0
   -3.6541    1.3744   -3.5334 H   0  0  0  0  0  0  0  0  0  0  0  0
   -0.1105    3.2420   -3.8206 H   0  0  0  0  0  0  0  0  0  0  0  0
    2.1484    4.0747   -3.4348 H   0  0  0  0  0  0  0  0  0  0  0  0
    4.0584    5.0817   -2.6604 H   0  0  0  0  0  0  0  0  0  0  0  0
    5.7330    4.5848   -2.9837 H   0  0  0  0  0  0  0  0  0  0  0  0
    4.4538    4.1428   -4.1360 H   0  0  0  0  0  0  0  0  0  0  0  0
    3.2273    0.3316   -1.6640 H   0  0  0  0  0  0  0  0  0  0  0  0
    0.9372   -0.5076   -2.0661 H   0  0  0  0  0  0  0  0  0  0  0  0
   -5.1629   -5.2864   -5.7835 H   0  0  0  0  0  0  0  0  0  0  0  0
    0.5520   -7.5026   -4.5716 H   0  0  0  0  0  0  0  0  0  0  0  0
   -2.5392   -9.7477   -7.8967 H   0  0  0  0  0  0  0  0  0  0  0  0
    0.5704  -11.1987   -7.9842 H   0  0  0  0  0  0  0  0  0  0  0  0
   -1.0926  -12.7933   -6.6472 H   0  0  0  0  0  0  0  0  0  0  0  0
    1.2429  -13.9852   -6.8188 H   0  0  0  0  0  0  0  0  0  0  0  0
    2.8879  -12.8362   -5.0776 H   0  0  0  0  0  0  0  0  0  0  0  0
    1.5653  -10.9368   -3.8341 H   0  0  0  0  0  0  0  0  0  0  0  0
   -0.4292  -12.6579   -4.0882 H   0  0  0  0  0  0  0  0  0  0  0  0
   -1.0073  -11.0554   -4.5999 H   0  0  0  0  0  0  0  0  0  0  0  0
    2.1848  -10.0741   -6.2789 H   0  0  0  0  0  0  0  0  0  0  0  0
  1  2  2  0  0  0  0
  2  3  1  0  0  0  0
  3  4  2  0  0  0  0
  3  5  1  0  0  0  0
  5  6  2  0  0  0  0
  6  7  1  0  0  0  0
  7  8  2  0  0  0  0
  8  9  1  0  0  0  0
  9 10  2  0  0  0  0
 10 11  1  0  0  0  0
 11 12  2  0  0  0  0
 12 13  1  0  0  0  0
 13 14  3  0  0  0  0
 12 15  1  0  0  0  0
 15 16  3  0  0  0  0
  8 17  1  0  0  0  0
 17 18  1  0  0  0  0
 18 19  1  0  0  0  0
 19 20  2  0  0  0  0
 20 21  1  0  0  0  0
 21 22  1  0  0  0  0
 21 23  1  0  0  0  0
  1 24  1  0  0  0  0
 24 25  1  0  0  0  0
 25 26  2  0  0  0  0
 26 27  1  0  0  0  0
 27 28  1  0  0  0  0
 28 29  1  0  0  0  0
 27 30  1  0  0  0  0
 30 31  2  0  0  0  0
 31 32  1  0  0  0  0
 32 33  2  0  0  0  0
 33 34  1  0  0  0  0
 32 35  1  0  0  0  0
 35 36  2  0  0  0  0
 36 37  1  0  0  0  0
 37 38  1  0  0  0  0
 38 39  2  0  0  0  0
 39 40  1  0  0  0  0
 40 41  2  0  0  0  0
 41 42  1  0  0  0  0
 42 43  1  0  0  0  0
 41 44  1  0  0  0  0
 44 45  2  0  0  0  0
 37 46  1  0  0  0  0
 46 47  2  0  0  0  0
 47 48  1  0  0  0  0
 48 49  2  0  0  0  0
 49 50  1  0  0  0  0
 50 51  1  0  0  0  0
 49 52  1  0  0  0  0
 52 53  2  0  0  0  0
 36 54  1  0  0  0  0
 54 55  1  0  0  0  0
 55 56  1  0  0  0  0
 56 57  2  0  0  0  0
 57 58  1  0  0  0  0
 58 59  1  0  0  0  0
 59 60  2  0  0  0  0
 60 61  1  0  0  0  0
 61 62  2  0  0  0  0
 62 63  1  0  0  0  0
 63 64  1  0  0  0  0
 62 65  1  0  0  0  0
 65 66  2  0  0  0  0
 58 67  1  0  0  0  0
 67 68  2  0  0  0  0
 68 69  1  0  0  0  0
 69 70  2  0  0  0  0
 70 71  1  0  0  0  0
 71 72  1  0  0  0  0
 70 73  1  0  0  0  0
 73 74  2  0  0  0  0
 57 75  1  0  0  0  0
 75 76  1  0  0  0  0
 56 77  1  0  0  0  0
 77 78  2  0  0  0  0
 78 79  1  0  0  0  0
 79 80  1  0  0  0  0
 80 81  2  0  0  0  0
 81 82  2  0  0  0  0
 79 83  2  0  0  0  0
 83 84  1  0  0  0  0
 84 85  2  0  0  0  0
 85 86  1  0  0  0  0
 86 87  1  0  0  0  0
 87 88  2  0  0  0  0
 83 89  1  0  0  0  0
 89 90  2  0  0  0  0
 90 91  1  0  0  0  0
 91 92  2  0  0  0  0
 91 93  1  0  0  0  0
 93 94  2  0  0  0  0
 94 95  1  0  0  0  0
 95 96  2  0  0  0  0
 96 97  1  0  0  0  0
 97 98  2  0  0  0  0
 98 99  1  0  0  0  0
 99100  2  0  0  0  0
100101  1  0  0  0  0
101102  3  0  0  0  0
100103  1  0  0  0  0
103104  3  0  0  0  0
 96105  1  0  0  0  0
105106  1  0  0  0  0
106107  1  0  0  0  0
107108  2  0  0  0  0
108109  1  0  0  0  0
109110  1  0  0  0  0
109111  1  0  0  0  0
 11  2  1  0  0  0  0
 23 17  1  0  0  0  0
 34 24  2  0  0  0  0
 76 35  1  0  0  0  0
 88 77  1  0  0  0  0
 99 90  1  0  0  0  0
111105  1  0  0  0  0
 10  5  1  0  0  0  0
 22 18  1  0  0  0  0
 31 25  1  0  0  0  0
 45 38  1  0  0  0  0
 53 46  1  0  0  0  0
 75 54  2  0  0  0  0
 82 78  1  0  0  0  0
 88 84  1  0  0  0  0
 98 93  1  0  0  0  0
110106  1  0  0  0  0
 23  7  1  0  0  0  0
 66 59  1  0  0  0  0
 74 67  1  0  0  0  0
111 95  1  0  0  0  0
  1112  1  0  0  0  0
  6113  1  0  0  0  0
  9114  1  0  0  0  0
 17115  1  0  0  0  0
 18116  1  0  0  0  0
 19117  1  0  0  0  0
 20118  1  0  0  0  0
 21119  1  0  0  0  0
 22120  1  0  0  0  0
 22121  1  0  0  0  0
 23122  1  0  0  0  0
 28123  1  0  0  0  0
 28124  1  0  0  0  0
 29125  1  0  0  0  0
 29126  1  0  0  0  0
 29127  1  0  0  0  0
 33128  1  0  0  0  0
 34129  1  0  0  0  0
 39130  1  0  0  0  0
 40131  1  0  0  0  0
 43132  1  0  0  0  0
 43133  1  0  0  0  0
 43134  1  0  0  0  0
 44135  1  0  0  0  0
 45136  1  0  0  0  0
 47137  1  0  0  0  0
 48138  1  0  0  0  0
 51139  1  0  0  0  0
 51140  1  0  0  0  0
 51141  1  0  0  0  0
 52142  1  0  0  0  0
 53143  1  0  0  0  0
 60144  1  0  0  0  0
 61145  1  0  0  0  0
 64146  1  0  0  0  0
 64147  1  0  0  0  0
 64148  1  0  0  0  0
 65149  1  0  0  0  0
 66150  1  0  0  0  0
 68151  1  0  0  0  0
 69152  1  0  0  0  0
 72153  1  0  0  0  0
 72154  1  0  0  0  0
 72155  1  0  0  0  0
 73156  1  0  0  0  0
 74157  1  0  0  0  0
 89158  1  0  0  0  0
 94159  1  0  0  0  0
 97160  1  0  0  0  0
105161  1  0  0  0  0
106162  1  0  0  0  0
107163  1  0  0  0  0
108164  1  0  0  0  0
109165  1  0  0  0  0
110166  1  0  0  0  0
110167  1  0  0  0  0
111168  1  0  0  0  0
M  END
