153

C         -2.12110        3.15100        5.98820
C         -3.32930        3.78000        6.07040
C         -4.52350        3.44050        5.25640
O         -4.65990        2.50970        4.49010
C         -5.58430        4.36720        5.69760
C         -6.87280        4.47170        5.17980
C         -7.65040        5.42220        5.79670
C         -7.18210        6.20940        6.85710
C         -5.91710        6.11010        7.38410
C         -5.10960        5.14790        6.77020
C         -3.72620        4.77030        7.04940
C         -2.94360        5.30510        8.04110
C         -3.37920        6.26470        8.97850
N         -3.65740        7.03380        9.78510
C         -1.59500        4.98420        8.29000
N         -0.49550        4.80460        8.57180
C         -8.49010        6.94760        6.99300
C         -9.42640        6.54970        8.16040
C         -9.11480        5.11050        8.48750
C         -9.55850        4.36270        7.48610
C        -10.17850        5.28280        6.46370
C        -10.74360        6.37300        7.38820
C         -9.01320        6.06900        5.81320
C         -1.65720        2.38180        4.88790
C         -1.98380        2.63780        3.53920
C         -1.42190        1.87350        2.44580
N         -1.89560        2.27760        1.26380
S         -2.89510        3.50960        1.50130
N         -2.78050        3.60930        3.09330
C         -0.49300        0.82900        2.64140
C         -0.23070        0.51840        3.99070
N          0.59080       -0.43960        4.42220
S          0.69540       -0.35660        6.02270
N         -0.28170        0.89770        6.25770
C         -0.75040        1.31660        5.08050
C          0.19280        0.19610        1.57050
C          0.65160        0.79370        0.38940
N          0.73880        2.14430        0.14920
C          0.79770        2.56460       -1.18790
C         -0.09650        2.03230       -2.11430
C          0.07200        2.26850       -3.46300
C          1.14420        3.03630       -3.90030
S          1.54360        3.22860       -5.60770
C          0.85880        1.71080       -6.33770
C          1.96370        3.66940       -2.96780
C          1.79150        3.44170       -1.62060
C          0.89090        3.05320        1.20310
C          1.63120        2.71370        2.33380
C          1.63060        3.52540        3.44830
C          0.89420        4.70540        3.45040
S          0.70140        5.73680        4.86170
C          1.53620        4.81720        6.18230
C          0.25280        5.10520        2.27740
C          0.25690        4.29510        1.16360
C          1.18970       -0.17820       -0.48140
S          1.92730       -0.08190       -2.04170
C          2.19060       -1.82050       -2.04480
C          1.87540       -2.40580       -0.79820
N          2.21270       -3.65910       -0.35700
C          3.31070       -4.36600       -0.84230
C          4.42680       -3.70650       -1.36040
C          5.42420       -4.40740       -2.00230
C          5.34750       -5.79360       -2.11050
S          6.48660       -6.75450       -3.03940
C          7.16600       -5.55090       -4.21410
C          4.31100       -6.46570       -1.46020
C          3.30770       -5.76510       -0.83350
C          1.40940       -4.24120        0.64430
C          1.98900       -4.78420        1.79030
C          1.19250       -5.32500        2.77280
C         -0.19600       -5.33860        2.63220
S         -1.10640       -6.04530        3.96230
C         -2.84130       -5.76740        3.50670
C         -0.77280       -4.81660        1.48110
C          0.02690       -4.27120        0.49630
C          1.24440       -1.45900        0.04620
S          0.60960       -1.50480        1.66540
C          2.62540       -2.37080       -3.27160
C          2.52620       -3.72320       -3.67480
C          3.07830       -4.19590       -4.92780
N          2.85050       -5.49560       -5.10810
S          2.00760       -6.06270       -3.86260
N          1.89380       -4.69730       -3.01920
C          3.68710       -3.34720       -5.88130
C          3.74070       -1.98740       -5.50380
N          4.32700       -0.99970       -6.18000
S          4.14390        0.37800       -5.38430
N          3.35630       -0.20540       -4.10580
C          3.19450       -1.52010       -4.25380
C          4.21140       -3.85550       -7.09110
C          4.26620       -3.17820       -8.28100
C          3.36840       -2.05940       -8.66290
O          2.52480       -1.50630       -7.98500
C          3.60310       -1.85140      -10.10210
C          3.00970       -0.94850      -10.96000
C          3.36910       -0.95070      -12.29930
C          4.31100       -1.86340      -12.77610
O          4.71580       -1.94860      -14.06230
C          4.17040       -1.06820      -15.01690
C          4.91250       -2.78530      -11.90450
C          4.55780       -2.77320      -10.57390
C          5.01340       -3.58220       -9.44570
C          6.05510       -4.47630       -9.46030
C          6.57770       -5.09540       -8.30830
N          7.08970       -5.59610       -7.40900
C          6.77330       -4.83950      -10.61670
N          7.38910       -5.18380      -11.52280
H         -1.43950        3.20120        6.82850
H         -7.19190        3.84730        4.35990
H         -5.57470        6.72120        8.20230
H         -8.44610        8.02490        6.84530
H         -9.42470        7.24330        8.99690
H         -8.56900        4.79940        9.35890
H         -9.45700        3.30140        7.35330
H        -10.86340        4.82250        5.75620
H        -11.05940        7.27070        6.85820
H        -11.55600        6.01250        8.01750
H         -9.31450        6.57340        4.89690
H         -0.90860        1.41300       -1.76420
H         -0.62100        1.83540       -4.16620
H         -0.20640        1.82340       -6.51860
H          1.05690        0.87490       -5.67450
H          1.37670        1.56240       -7.28010
H          2.76240        4.30510       -3.31670
H          2.45550        3.89470       -0.89970
H          2.19500        1.79250        2.34880
H          2.20260        3.22480        4.31090
H          1.31240        5.35070        7.10100
H          1.12840        3.81290        6.24650
H          2.60830        4.80460        6.00770
H         -0.27600        6.04570        2.26630
H         -0.27030        4.59190        0.26910
H          4.50400       -2.63290       -1.27940
H          6.26030       -3.86830       -2.41850
H          6.36090       -4.93530       -4.60370
H          7.59980       -6.12690       -5.02510
H          7.93170       -4.94530       -3.73770
H          4.28550       -7.54370       -1.49350
H          2.47620       -6.29400       -0.39510
H          3.06210       -4.76600        1.90590
H          1.63190       -5.73600        3.66830
H         -3.42510       -6.13450        4.34510
H         -3.08880       -6.33230        2.61260
H         -3.02080       -4.70530        3.36900
H         -1.84040       -4.83100        1.33610
H         -0.41750       -3.87130       -0.40270
H          4.53900       -4.88810       -7.05730
H          2.27770       -0.24840      -10.58730
H          2.90900       -0.23880      -12.96600
H          3.08710       -1.19490      -15.10740
H          4.39840       -0.02500      -14.77740
H          4.64350       -1.33200      -15.96110
H          5.62910       -3.47760      -12.31390
