208

C          4.99130        7.29830       -3.95430
C          6.33550        7.38220       -3.79340
C          6.92990        8.55320       -3.08880
O          6.40240        9.62360       -2.89030
C          8.25320        8.08980       -2.62910
C          9.13750        8.76370       -1.78900
C         10.28110        8.05980       -1.49810
C         10.53490        6.77700       -2.00420
C          9.68050        6.10460       -2.84500
C          8.51080        6.80330       -3.15140
C          7.40210        6.42900       -4.02270
C          7.45660        5.53190       -5.05520
C          6.46430        5.46350       -6.05770
N          5.71160        5.43160       -6.92350
C          8.53510        4.65590       -5.28660
N          9.37520        3.90420       -5.50300
C         11.85140        6.66430       -1.27790
C         11.89450        5.79580        0.00410
C         10.49810        5.80220        0.57500
C         10.26090        7.01710        1.05160
C         11.49270        7.85440        0.81120
C         12.58280        6.78130        0.96200
C         11.57120        8.09420       -0.71730
C          4.18470        6.14940       -4.16370
C          2.85280        6.16280       -4.49280
C          2.25700        4.88540       -4.55140
C          0.89690        4.56760       -4.77330
C         -0.13770        5.57000       -4.89160
C         -1.25250        5.51670       -5.68220
C         -2.16180        6.58190       -5.54310
C         -1.82460        7.51820       -4.60750
S         -2.84050        8.87360       -4.17870
C         -1.63850        9.99670       -3.38270
C         -0.69170       10.62560       -4.38390
Se        -0.19710        7.08740       -3.76640
C          0.57780        3.21350       -4.77610
C          1.53620        2.19340       -4.57140
C          2.87380        2.50880       -4.26440
C          3.81690        1.49810       -3.83480
C          5.15510        1.43860       -4.11530
C          5.86630        0.40320       -3.47990
C          5.12020       -0.37750       -2.64910
S          5.73530       -1.73070       -1.70800
C          6.13680       -0.85720       -0.14220
C          4.90280       -0.53630        0.67430
Se         3.31510        0.14780       -2.63490
C          3.19610        3.85860       -4.27470
S          4.75450        4.51580       -3.87290
C          0.95280        0.90960       -4.57020
C         -0.40860        0.91940       -4.64670
S         -1.03010        2.54480       -4.87230
C         -1.28430       -0.16490       -4.30540
C         -0.78310       -1.29880       -3.63040
N          0.52640       -1.66640       -3.54690
C          0.72630       -2.67480       -2.79080
C          2.04760       -3.28690       -2.51900
C          2.44550       -3.08910       -1.05690
S         -0.72680       -3.31070       -2.00950
C         -1.64580       -2.09880       -2.84590
C         -2.99220       -1.79570       -2.66560
C         -3.53020       -0.87720       -3.57500
C         -2.67730       -0.08720       -4.38090
S         -3.64690        0.96630       -5.35850
C         -5.09290        0.21340       -4.66590
C         -6.44890        0.56430       -5.15390
C         -6.45850        1.74540       -6.11320
N         -4.85740       -0.66010       -3.76370
C         -3.66610       -2.13860       -1.42920
C         -4.01680       -1.18120       -0.49560
N         -3.92280        0.21070       -0.72410
C         -2.66580        0.81230       -0.71290
C         -2.52100        2.20220       -0.72670
C         -1.28140        2.79810       -0.84460
C         -0.13460        2.02170       -0.91500
S          1.49750        2.66960       -1.13520
C          1.25830        4.46730       -1.17110
C         -0.25340        0.64510       -0.76320
C         -1.49190        0.05340       -0.64260
C         -5.08720        0.87270       -1.14810
C         -6.32850        0.48890       -0.63920
C         -7.48230        1.12530       -1.03950
C         -7.43400        2.17210       -1.95540
S         -8.97540        2.91510       -2.39920
C         -8.49500        4.33390       -3.42600
C         -6.20780        2.54300       -2.48800
C         -5.05510        1.88680       -2.10360
C         -4.34690       -1.78220        0.73940
S         -4.88570       -1.18830        2.26540
C         -4.82860       -2.81780        2.95360
C         -4.48010       -3.78270        1.99020
N         -4.46360       -5.14230        2.15130
C         -5.29110       -5.78890        3.07400
C         -4.81110       -6.86130        3.82320
C         -5.60050       -7.45340        4.79120
C         -6.88680       -6.98510        5.02430
S         -7.95780       -7.60910        6.27410
C         -6.84080       -8.51940        7.37790
C         -7.39430       -5.95660        4.22680
C         -6.60850       -5.36490        3.26760
C         -3.57280       -5.89970        1.36530
C         -2.27040       -5.45250        1.16200
C         -1.40950       -6.14980        0.34030
C         -1.84100       -7.30930       -0.29090
S         -0.83260       -8.24510       -1.39420
C          0.49250       -7.08060       -1.82920
C         -3.12740       -7.78700       -0.04700
C         -3.98850       -7.08990        0.77250
C         -4.20560       -3.16380        0.74730
S         -3.72320       -3.75910       -0.80590
C         -5.15890       -2.94760        4.31060
C         -4.71260       -3.94360        5.14780
C         -3.44840       -4.66950        4.94390
O         -2.66730       -4.54910        4.01810
C         -3.24380       -5.47310        6.16620
C         -2.16680       -6.30870        6.44760
C         -2.25130       -6.94000        7.66600
C         -3.32210       -6.74300        8.54600
C         -4.38270       -5.90520        8.28790
C         -4.32180       -5.26450        7.04720
C         -5.26240       -4.33940        6.41700
C         -6.52070       -4.03390        6.87270
C         -7.43950       -3.24160        6.15610
N         -8.23930       -2.62660        5.60720
C         -7.06990       -4.52520        8.07210
N         -7.56040       -4.90470        9.03900
C         -2.76190       -7.69920        9.56990
C         -3.40460       -9.10170        9.62570
C         -2.37620       -9.93910       10.35150
C         -1.34940      -10.11830        9.53040
C         -1.66760       -9.40800        8.23480
C         -3.18810       -9.60440        8.19240
C         -1.56060       -7.91090        8.59310
H          4.44440        8.22360       -3.79920
H          8.90790        9.75070       -1.41900
H          9.87860        5.11660       -3.22790
H         12.73050        6.52410       -1.90340
H         12.35500        4.82030       -0.12740
H          9.82590        4.96580        0.52370
H          9.35130        7.39770        1.47800
H         11.58770        8.75300        1.41500
H         12.65800        6.39760        1.97840
H         13.56340        7.10740        0.61830
H         12.26720        8.88900       -0.97780
H          2.34020        7.07970       -4.73270
H         -1.40070        4.73690       -6.40990
H         -3.05770        6.66450       -6.13360
H         -2.25090       10.74930       -2.88750
H         -1.10350        9.41520       -2.62490
H         -1.24750       11.18390       -5.13340
H         -0.10130        9.86110       -4.88920
H         -0.01140       11.30340       -3.87290
H          5.62950        2.11140       -4.81050
H          6.91970        0.24010       -3.63260
H          6.68770        0.04210       -0.41570
H          6.79820       -1.54080        0.38830
H          5.18520        0.00930        1.57260
H          4.21100        0.08460        0.10230
H          4.39050       -1.45010        0.96600
H          1.50290       -0.01030       -4.49950
H          2.78600       -2.81130       -3.16830
H          2.01110       -4.35470       -2.74860
H          3.41400       -3.54580       -0.87510
H          1.70780       -3.53310       -0.39160
H          2.51890       -2.02350       -0.83740
H         -6.86270       -0.32020       -5.64830
H         -7.07960        0.76290       -4.28390
H         -7.47900        1.98150       -6.40380
H         -6.01430        2.62200       -5.64660
H         -5.88920        1.51590       -7.01140
H         -3.38820        2.83520       -0.62610
H         -1.23030        3.87470       -0.87580
H          0.84480        4.80460       -0.22530
H          0.61520        4.74380       -2.00360
H          2.24690        4.89300       -1.31450
H          0.64200        0.03880       -0.74800
H         -1.54220       -1.00960       -0.47290
H         -6.39570       -0.30910        0.08180
H         -8.43650        0.82220       -0.63710
H         -7.81130        4.97320       -2.87560
H         -9.41670        4.86960       -3.63090
H         -8.05440        3.99290       -4.35840
H         -6.13180        3.33260       -3.21840
H         -4.12330        2.16210       -2.57430
H         -3.80790       -7.22220        3.65270
H         -5.19700       -8.27290        5.36410
H         -7.42700       -8.73810        8.26480
H         -5.99740       -7.88720        7.64030
H         -6.51570       -9.44580        6.91310
H         -8.40780       -5.62140        4.38370
H         -7.00840       -4.56100        2.66860
H         -1.93280       -4.56530        1.67360
H         -0.40610       -5.78170        0.20400
H          1.18110       -6.96110       -0.99750
H          1.01100       -7.52670       -2.67240
H          0.05220       -6.13060       -2.11810
H         -3.44760       -8.70080       -0.52300
H         -4.99160       -7.45220        0.94230
H         -5.78330       -2.16270        4.72020
H         -1.35770       -6.42670        5.74370
H         -5.18630       -5.74020        8.98690
H         -2.56580       -7.28240       10.55580
H         -4.41840       -9.12360       10.01700
H         -2.47330      -10.25470       11.37360
H         -0.41770      -10.61460        9.72930
H         -1.09880       -9.70940        7.35910
H         -3.68430       -9.00560        7.43100
H         -3.46770      -10.65020        8.07570
H         -0.56520       -7.62190        8.92510
