164

C          2.27220       -0.59470        5.79490
C          1.05150       -0.55120        6.38510
C         -0.23840       -0.33930        5.67270
O         -0.46570       -0.39480        4.48220
C         -1.20870        0.02780        6.72120
C         -2.53580        0.40480        6.52660
C         -3.20160        0.72770        7.68350
C         -2.59160        0.69060        8.94520
C         -1.28310        0.32680        9.15190
C         -0.58930       -0.01590        7.98610
C          0.79270       -0.44200        7.81030
C          1.67240       -0.76930        8.80740
C          2.96780       -1.28630        8.59080
N          4.02120       -1.73330        8.49630
C          1.38510       -0.68030       10.18510
N          1.21560       -0.62340       11.31930
C         -3.84540        1.14120        9.65290
C         -4.64970        0.05000       10.39100
C         -6.02060        0.66380       10.56130
C         -6.59850        0.69800        9.36730
C         -5.62800        0.10760        8.37010
C         -4.94340       -0.94050        9.25680
C         -4.52540        1.18080        8.24670
C          2.47010       -0.74060        4.38130
C          3.40130        0.02620        3.69220
F          4.21630        0.83750        4.40100
C          3.45660        0.10540        2.31240
C          2.56170       -0.62540        1.53730
C          1.77740       -1.61660        2.19110
N          1.06020       -2.48480        1.45340
C          0.32760       -3.36730        2.06210
C          0.29390       -3.43670        3.48430
O         -0.46300       -4.37560        4.04580
C         -0.52660       -4.39090        5.46960
C          0.73000       -4.96750        6.10640
N          0.99020       -2.60840        4.22370
C          1.71790       -1.66390        3.60420
C          2.35630       -0.36630        0.14670
C          2.46180        0.85910       -0.50970
N          2.68520        2.08230        0.09990
C          3.40510        3.06510       -0.59020
C          3.05980        4.40920       -0.48440
C          3.77290        5.37590       -1.16550
C          4.84100        5.01320       -1.97560
S          5.82510        6.15280       -2.89380
C          5.06080        7.76500       -2.55940
C          5.18870        3.66780       -2.08570
C          4.48500        2.70560       -1.39880
C          2.11720        2.35300        1.35330
C          0.85570        1.85580        1.68360
C          0.35720        2.00850        2.95710
C          1.10810        2.66310        3.93060
S          0.43720        2.72360        5.56520
C          1.91320        2.97670        6.59650
C          2.32510        3.23560        3.58730
C          2.82560        3.07770        2.31010
C          2.16290        0.71780       -1.88470
S          2.00490        1.83420       -3.19360
C          1.39010        0.54970       -4.22750
C          1.37860       -0.68470       -3.60390
N          0.99470       -1.88430       -4.15490
C          1.50120       -3.08370       -3.58120
C          0.65590       -4.15930       -3.33060
C          1.15480       -5.31550       -2.77220
C          2.50690       -5.42450       -2.45440
S          3.01990       -6.94580       -1.72580
C          4.77930       -6.68720       -1.36110
C          3.35810       -4.36290       -2.72680
C          2.85550       -3.20660       -3.29100
C          0.68390       -1.97740       -5.54030
C         -0.53910       -2.49110       -5.95340
C         -0.82970       -2.59130       -7.29740
C          0.09000       -2.15890       -8.24590
S         -0.38790       -2.26910       -9.93900
C          0.60160       -0.95520      -10.71220
C          1.32340       -1.67080       -7.84010
C          1.61980       -1.59270       -6.49330
C          1.81420       -0.56990       -2.25560
S          1.78630       -1.64830       -0.89790
C          0.76800        0.94150       -5.47910
C          1.42990        1.58410       -6.50840
F          2.75720        1.79300       -6.40440
C          0.79930        1.99580       -7.67580
C         -0.55470        1.77430       -7.86970
C         -1.29780        1.18480       -6.80840
N         -2.64590        1.10880       -6.88430
C         -3.29600        0.61460       -5.87870
C         -2.62950        0.20460       -4.68500
O         -3.37770       -0.19460       -3.66230
C         -2.72670       -0.39510       -2.40610
C         -1.99980       -1.72780       -2.32400
N         -1.32860        0.29870       -4.57380
C         -0.63540        0.77550       -5.62730
C         -1.20620        2.25320       -9.06400
C         -2.25030        1.66700       -9.69250
C         -2.73480        0.27240       -9.44470
O         -2.17810       -0.61060       -8.82860
C         -3.93990        0.17300      -10.25590
S         -5.12160       -1.02690      -10.54380
C         -5.88860        0.03230      -11.69570
Br        -7.43750       -0.52990      -12.58530
C         -5.26400        1.23670      -11.85770
C         -4.13250        1.31620      -11.02380
C         -3.07640        2.26310      -10.73860
C         -2.93810        3.48580      -11.33850
C         -3.84780        3.93730      -12.31880
N         -4.57650        4.32130      -13.11740
C         -1.90690        4.41300      -11.08910
N         -1.09440        5.21070      -10.94120
H          3.16240       -0.43250        6.39130
H         -2.96380        0.43240        5.53690
H         -0.82120        0.31720       10.12520
H         -3.76470        2.06710       10.21890
H         -4.17270       -0.33960       11.28610
H         -6.39450        1.04820       11.49200
H         -7.55140        1.11680        9.10150
H         -6.04320       -0.22980        7.42410
H         -5.62800       -1.72860        9.56600
H         -4.05360       -1.38400        8.81350
H         -4.89780        2.13340        7.87440
H          4.17600        0.76550        1.85670
H         -0.23720       -4.06270        1.45940
H         -1.39670       -5.01180        5.69530
H         -0.69660       -3.36950        5.82700
H          1.58000       -4.32000        5.90820
H          0.93390       -5.95690        5.70440
H          0.58860       -5.04460        7.18070
H          2.22130        4.69730        0.13210
H          3.47680        6.40710       -1.06120
H          5.63650        8.48440       -3.13350
H          4.02920        7.76390       -2.89890
H          5.13040        7.99950       -1.50120
H          6.02230        3.39130       -2.71240
H          4.77080        1.66740       -1.47850
H          0.27800        1.32560        0.94190
H         -0.60430        1.59690        3.21700
H          2.70310        2.30870        6.26630
H          1.61330        2.73210        7.61120
H          2.23310        4.01350        6.55200
H          2.90610        3.78270        4.31190
H          3.78960        3.49580        2.05980
H         -0.39400       -4.08970       -3.56160
H          0.50050       -6.14880       -2.56720
H          4.89690       -5.83720       -0.69540
H          5.33620       -6.55020       -2.28350
H          5.11050       -7.59380       -0.86420
H          4.41270       -4.42120       -2.51170
H          3.52520       -2.38620       -3.50490
H         -1.27280       -2.79540       -5.22390
H         -1.78080       -2.97550       -7.62760
H          0.54360       -0.06300      -10.09620
H          1.63000       -1.27860      -10.84390
H          0.15240       -0.76980      -11.68320
H          2.06390       -1.36090       -8.56040
H          2.58630       -1.22690       -6.17850
H          1.39280        2.46910       -8.44370
H         -4.37340        0.56800       -5.94600
H         -3.53570       -0.34460       -1.67350
H         -2.02080        0.42520       -2.23990
H         -1.18200       -1.74180       -3.03740
H         -1.59130       -1.85890       -1.32570
H         -2.68620       -2.54440       -2.53610
H         -0.82400        3.19100       -9.44790
H         -5.60620        1.99900      -12.53290
