218

C          2.33020       -6.41160        2.21490
C          2.00400       -7.33080        3.18730
C          0.65890       -7.69700        3.63130
O         -0.40200       -7.16530        3.33940
C          0.82090       -8.86400        4.51920
C         -0.18560       -9.59040        5.15000
C          0.27380      -10.61070        5.94750
C          1.63580      -10.89540        6.10090
C          2.63890      -10.19910        5.46830
C          2.19320       -9.15430        4.65530
C          2.95120       -8.19880        3.84640
C          4.32230       -8.14880        3.75850
C          5.19560       -9.06850        4.37280
N          5.96770       -9.78750        4.82740
C          5.06830       -7.17120        3.07240
N          5.75840       -6.40200        2.56740
C          1.37250      -12.02800        7.06180
C          1.60790      -11.76170        8.56920
C          1.41880      -10.27990        8.77890
C          0.12820      -10.01160        8.63250
C         -0.57870      -11.30750        8.32020
C          0.27940      -12.28690        9.13670
C         -0.14680      -11.71160        6.88860
C          1.53490       -5.51900        1.50090
C          2.03070       -4.69190        0.45930
N          3.25530       -4.82010       -0.14200
C          3.88330       -6.06450       -0.33090
C          3.14100       -7.21000       -0.60740
C          3.76600       -8.42990       -0.76950
C          5.14980       -8.52140       -0.67590
S          6.05650      -10.02320       -0.85480
C          4.77330      -11.30750       -0.89940
C          5.89720       -7.36940       -0.44050
C          5.27400       -6.15430       -0.26490
C          3.82720       -3.68850       -0.75180
C          3.85000       -2.46630       -0.08110
C          4.35200       -1.34550       -0.70320
C          4.84970       -1.42400       -2.00100
S          5.38620        0.08780       -2.73860
C          6.34460       -0.45170       -4.18590
C          4.86820       -2.64820       -2.65650
C          4.36130       -3.77150       -2.03370
C          1.08840       -3.71340        0.10060
S          1.05160       -2.44050       -1.08530
C         -0.54660       -1.96520       -0.53470
C         -1.08830       -2.87750        0.37080
N         -2.39730       -2.94280        0.79690
C         -2.58840       -3.42580        2.10630
C         -3.40500       -4.52110        2.36450
C         -3.46160       -5.05250        3.63620
C         -2.70270       -4.49630        4.65800
S         -2.66400       -5.20160        6.27810
C         -2.70720       -6.97330        5.86880
C         -1.93730       -3.36120        4.41700
C         -1.87910       -2.83140        3.14710
C         -3.48460       -2.69180       -0.03860
C         -3.37660       -2.77730       -1.42820
C         -4.46700       -2.52010       -2.22780
C         -5.69610       -2.17790       -1.66780
S         -7.01710       -1.87140       -2.79920
C         -8.41470       -1.42400       -1.73060
C         -5.81270       -2.10170       -0.28660
C         -4.71780       -2.35220        0.51560
C         -0.12040       -3.83170        0.77140
S         -0.14900       -5.15700        1.88110
C         -1.02270       -0.68390       -0.94690
C         -1.93560        0.10490       -0.25490
F         -2.51130       -0.32740        0.88250
C         -2.19640        1.42690       -0.61240
F         -3.10020        2.10500        0.12150
C         -1.52990        2.07660       -1.63930
C         -0.64820        1.28560       -2.42250
N          0.02570        1.84950       -3.43520
C          0.91870        1.14840       -4.09060
C          1.67370        1.88210       -5.15550
C          2.89180        2.56550       -4.52660
C          1.18190       -0.20090       -3.73390
N          0.51740       -0.75700       -2.74910
C         -0.39490       -0.05870       -2.06710
C          2.16520       -1.07630       -4.44500
C          1.49640       -1.77150       -5.63320
C         -1.57710        3.50440       -1.81490
C         -1.49400        4.46970       -0.81640
N         -1.25010        4.22630        0.52120
C         -0.53240        3.10560        0.95620
C         -0.91440        2.46000        2.13120
C         -0.28630        1.30030        2.53680
C          0.74070        0.76300        1.77290
S          1.52500       -0.77260        2.16970
C          1.41940       -0.82580        3.98490
C          1.15930        1.42530        0.62210
C          0.54120        2.59160        0.22520
C         -1.68490        5.17070        1.46950
C         -0.82910        5.58330        2.48930
C         -1.22220        6.57380        3.36120
C         -2.47180        7.17260        3.22740
S         -2.87530        8.48810        4.33300
C         -3.98980        9.50000        3.31420
C         -3.35050        6.71940        2.25380
C         -2.95880        5.72350        1.38130
C         -1.59440        5.76980       -1.37370
S         -1.73660        7.35220       -0.69790
C         -1.84030        8.05240       -2.31490
C         -1.84010        7.05240       -3.32140
N         -2.00070        7.27830       -4.66280
C         -1.34710        6.42460       -5.57020
C         -0.00360        6.11330       -5.38300
C          0.65730        5.29140       -6.27350
C         -0.02090        4.76740       -7.36660
S          0.72420        3.69230       -8.55290
C          2.49820        4.05320       -8.38680
C         -1.36810        5.07110       -7.55160
C         -2.02600        5.89400       -6.66550
C         -2.89160        8.24360       -5.16170
C         -4.08900        8.51200       -4.50340
C         -4.96050        9.46510       -4.99030
C         -4.65540       10.15640       -6.15670
S         -5.68210       11.39890       -6.87070
C         -7.13730       11.44820       -5.78530
C         -3.46880        9.87130       -6.83000
C         -2.59330        8.92880       -6.33970
C         -1.67960        5.77390       -2.76300
S         -1.60790        4.17380       -3.42760
C         -1.80080        9.41560       -2.58880
C         -1.85140       10.50090       -1.73940
C         -2.15610       10.46740       -0.30280
O         -2.35880        9.49730        0.40850
C         -2.21770       11.87270        0.09150
S         -2.51640       12.73220        1.53970
C         -2.30900       14.22460        0.67040
Br        -2.48190       15.85710        1.57360
C         -2.02530       14.06910       -0.65920
C         -1.97500       12.70410       -0.99050
C         -1.72770       11.87660       -2.16290
C         -1.41710       12.37320       -3.40530
C         -1.09140       11.60900       -4.54010
N         -0.79450       11.05030       -5.49980
C         -1.36730       13.76020       -3.65150
N         -1.32550       14.88670       -3.86800
H          3.37820       -6.36920        1.94840
H         -1.22640       -9.34850        5.00350
H          3.68230      -10.43670        5.59020
H          1.72790      -13.00930        6.75380
H          2.52560      -12.18870        8.96460
H          2.22550       -9.59140        8.95000
H         -0.35740       -9.05350        8.65920
H         -1.65240      -11.32200        8.48930
H          0.08910      -13.33270        8.89900
H          0.18930      -12.13140       10.21080
H         -0.78350      -12.48670        6.46600
H          2.06590       -7.14620       -0.68800
H          3.16260       -9.29840       -0.97900
H          5.30800      -12.25220       -0.90550
H          4.15360      -11.24020       -0.01000
H          4.17940      -11.21660       -1.80440
H          6.97090       -7.44400       -0.37320
H          5.85720       -5.27180       -0.05620
H          3.46470       -2.39860        0.92380
H          4.36230       -0.39760       -0.18820
H          5.68880       -0.87390       -4.94220
H          7.09840       -1.16830       -3.87510
H          6.82210        0.44340       -4.57230
H          5.25680       -2.73890       -3.65800
H          4.36030       -4.71760       -2.55440
H         -3.97110       -4.96840        1.56100
H         -4.08310       -5.91350        3.82300
H         -2.26700       -7.49260        6.71460
H         -3.73120       -7.30720        5.72510
H         -2.11030       -7.12340        4.97350
H         -1.37770       -2.92280        5.22930
H         -1.27100       -1.96760        2.92800
H         -2.43870       -3.05570       -1.88380
H         -4.38020       -2.58720       -3.30160
H         -8.17150       -0.53600       -1.15460
H         -9.24010       -1.21300       -2.40340
H         -8.67110       -2.25810       -1.08380
H         -6.74710       -1.83830        0.18150
H         -4.81270       -2.26810        1.58730
H          1.98740        1.20320       -5.94770
H          1.00830        2.63750       -5.57520
H          3.49030        3.06360       -5.28650
H          2.56460        3.30610       -3.80120
H          3.52400        1.84320       -4.01410
H          3.01760       -0.48890       -4.78520
H          2.50960       -1.83050       -3.73590
H          2.20840       -2.42000       -6.13780
H          1.11810       -1.04560       -6.35000
H          0.66330       -2.37640       -5.28500
H         -1.73690        2.85420        2.70840
H         -0.62670        0.80760        3.43370
H          2.10670       -1.60540        4.29880
H          1.73000        0.13290        4.38850
H          0.41360       -1.07830        4.30640
H          1.97150        1.01400        0.04140
H          0.88390        3.10460       -0.66090
H          0.15260        5.14060        2.57350
H         -0.55530        6.91500        4.13800
H         -3.98920       10.49070        3.75820
H         -3.59100        9.53410        2.30450
H         -4.99640        9.09150        3.33060
H         -4.33910        7.13960        2.16430
H         -3.64180        5.36550        0.62530
H          0.52690        6.52760       -4.53860
H          1.69970        5.07300       -6.10810
H          2.97170        3.60880       -9.25660
H          2.89490        3.60130       -7.48300
H          2.64990        5.12800       -8.39020
H         -1.88950        4.65310       -8.39860
H         -3.06830        6.13130       -6.81450
H         -4.33730        7.97200       -3.60160
H         -5.87770        9.65050       -4.45500
H         -6.84780       11.75360       -4.78390
H         -7.79740       12.19270       -6.21920
H         -7.62910       10.47990       -5.77820
H         -3.23460       10.41080       -7.73380
H         -1.66940        8.72810       -6.85770
H         -1.70620        9.65280       -3.64110
H         -1.86910       14.89050       -1.33380
