
  xtb     02132217593D
 energy: -367.986592659698 gnorm: 0.000386554416 xtb: 6.4.1 (unknown)
224247  0     0  0            999 V2000
    3.2791    8.8711    1.2912 C   0  0  0  0  0  0  0  0  0  0  0  0
    3.2711    9.6726    0.1686 C   0  0  0  0  0  0  0  0  0  0  0  0
    2.4194    9.4623   -0.9869 C   0  0  0  0  0  0  0  0  0  0  0  0
    1.6379    8.5311   -1.1735 O   0  0  0  0  0  0  0  0  0  0  0  0
    2.6396   10.6016   -1.8907 C   0  0  0  0  0  0  0  0  0  0  0  0
    2.0137   10.8513   -3.1097 C   0  0  0  0  0  0  0  0  0  0  0  0
    2.4136   12.0200   -3.7136 C   0  0  0  0  0  0  0  0  0  0  0  0
    3.3672   12.8753   -3.1487 C   0  0  0  0  0  0  0  0  0  0  0  0
    3.9975   12.6368   -1.9489 C   0  0  0  0  0  0  0  0  0  0  0  0
    3.6042   11.4557   -1.3165 C   0  0  0  0  0  0  0  0  0  0  0  0
    4.0434   10.8719   -0.0465 C   0  0  0  0  0  0  0  0  0  0  0  0
    5.0524   11.3609    0.7452 C   0  0  0  0  0  0  0  0  0  0  0  0
    5.5381   10.7487    1.9172 C   0  0  0  0  0  0  0  0  0  0  0  0
    6.0100   10.3114    2.8699 N   0  0  0  0  0  0  0  0  0  0  0  0
    5.7788   12.5389    0.4790 C   0  0  0  0  0  0  0  0  0  0  0  0
    6.4079   13.4892    0.3344 N   0  0  0  0  0  0  0  0  0  0  0  0
    3.2733   13.8631   -4.2853 C   0  0  0  0  0  0  0  0  0  0  0  0
    2.4635   15.1491   -4.0170 C   0  0  0  0  0  0  0  0  0  0  0  0
    2.1417   15.6692   -5.3994 C   0  0  0  0  0  0  0  0  0  0  0  0
    1.2377   14.8589   -5.9350 C   0  0  0  0  0  0  0  0  0  0  0  0
    0.9333   13.7775   -4.9235 C   0  0  0  0  0  0  0  0  0  0  0  0
    1.0945   14.5782   -3.6248 C   0  0  0  0  0  0  0  0  0  0  0  0
    2.2090   12.9087   -4.9160 C   0  0  0  0  0  0  0  0  0  0  0  0
    2.6466    7.6520    1.5115 C   0  0  0  0  0  0  0  0  0  0  0  0
    1.6338    6.5874    0.3092 Se  0  0  0  0  0  2  0  0  0  0  0  0
    1.7453    5.1758    1.5532 C   0  0  0  0  0  0  0  0  0  0  0  0
    2.3004    5.6147    2.7594 C   0  0  0  0  0  0  0  0  0  0  0  0
    2.6066    4.9854    4.0003 C   0  0  0  0  0  0  0  0  0  0  0  0
    3.2948    5.7845    4.8464 C   0  0  0  0  0  0  0  0  0  0  0  0
    3.7436    5.4930    6.2352 C   0  0  0  0  0  0  0  0  0  0  0  0
    2.8794    6.2328    7.2586 C   0  0  0  0  0  0  0  0  0  0  0  0
    3.6214    7.3697    4.1584 S   0  0  0  0  0  0  0  0  0  0  0  0
    2.7932    6.9335    2.7049 C   0  0  0  0  0  0  0  0  0  0  0  0
    1.3203    3.8555    1.2731 C   0  0  0  0  0  0  0  0  0  0  0  0
    1.4510    3.1245    0.0857 C   0  0  0  0  0  0  0  0  0  0  0  0
    2.3054    3.4648   -0.9401 N   0  0  0  0  0  0  0  0  0  0  0  0
    3.4039    4.3188   -0.7160 C   0  0  0  0  0  0  0  0  0  0  0  0
    4.1863    4.2157    0.4302 C   0  0  0  0  0  0  0  0  0  0  0  0
    5.1487    5.1654    0.7132 C   0  0  0  0  0  0  0  0  0  0  0  0
    5.3591    6.2291   -0.1570 C   0  0  0  0  0  0  0  0  0  0  0  0
    6.4618    7.5660    0.1673 S   0  0  0  0  0  0  0  0  0  0  0  0
    6.9144    7.3363    1.9081 C   0  0  0  0  0  0  0  0  0  0  0  0
    4.6577    6.2709   -1.3605 C   0  0  0  0  0  0  0  0  0  0  0  0
    3.6876    5.3324   -1.6361 C   0  0  0  0  0  0  0  0  0  0  0  0
    2.1628    2.9597   -2.2413 C   0  0  0  0  0  0  0  0  0  0  0  0
    0.9327    2.9117   -2.8930 C   0  0  0  0  0  0  0  0  0  0  0  0
    0.8717    2.5391   -4.2197 C   0  0  0  0  0  0  0  0  0  0  0  0
    2.0316    2.2014   -4.9117 C   0  0  0  0  0  0  0  0  0  0  0  0
    1.8902    1.8260   -6.6292 S   0  0  0  0  0  0  0  0  0  0  0  0
    3.5866    2.0415   -7.2481 C   0  0  0  0  0  0  0  0  0  0  0  0
    3.2499    2.1839   -4.2457 C   0  0  0  0  0  0  0  0  0  0  0  0
    3.3116    2.5649   -2.9235 C   0  0  0  0  0  0  0  0  0  0  0  0
    0.7474    1.8942    0.1737 C   0  0  0  0  0  0  0  0  0  0  0  0
    0.4010    0.5744   -0.9092 S   0  0  0  0  0  0  0  0  0  0  0  0
   -0.4584   -0.2841    0.3680 C   0  0  0  0  0  0  0  0  0  0  0  0
   -0.3801    0.3873    1.5824 C   0  0  0  0  0  0  0  0  0  0  0  0
   -0.7036   -0.1769    2.8094 N   0  0  0  0  0  0  0  0  0  0  0  0
   -0.1963   -1.4510    3.1154 C   0  0  0  0  0  0  0  0  0  0  0  0
    0.9705   -1.9249    2.5231 C   0  0  0  0  0  0  0  0  0  0  0  0
    1.4372   -3.1967    2.7977 C   0  0  0  0  0  0  0  0  0  0  0  0
    0.7476   -4.0204    3.6764 C   0  0  0  0  0  0  0  0  0  0  0  0
    1.2432   -5.6573    4.1029 S   0  0  0  0  0  0  0  0  0  0  0  0
    2.6879   -5.9704    3.0520 C   0  0  0  0  0  0  0  0  0  0  0  0
   -0.4116   -3.5414    4.2842 C   0  0  0  0  0  0  0  0  0  0  0  0
   -0.8785   -2.2782    4.0056 C   0  0  0  0  0  0  0  0  0  0  0  0
   -1.3318    0.6269    3.7623 C   0  0  0  0  0  0  0  0  0  0  0  0
   -2.2910    1.5480    3.3463 C   0  0  0  0  0  0  0  0  0  0  0  0
   -2.8911    2.4024    4.2497 C   0  0  0  0  0  0  0  0  0  0  0  0
   -2.5450    2.3442    5.5920 C   0  0  0  0  0  0  0  0  0  0  0  0
   -3.2479    3.3908    6.8330 S   0  0  0  0  0  0  0  0  0  0  0  0
   -3.9691    4.7550    5.8733 C   0  0  0  0  0  0  0  0  0  0  0  0
   -1.6091    1.4053    6.0184 C   0  0  0  0  0  0  0  0  0  0  0  0
   -1.0036    0.5598    5.1170 C   0  0  0  0  0  0  0  0  0  0  0  0
    0.2278    1.6478    1.4362 C   0  0  0  0  0  0  0  0  0  0  0  0
    0.5122    2.9339    2.5428 S   0  0  0  0  0  0  0  0  0  0  0  0
   -1.1864   -1.4980    0.2056 C   0  0  0  0  0  0  0  0  0  0  0  0
   -0.9863   -2.5814   -0.6331 C   0  0  0  0  0  0  0  0  0  0  0  0
   -0.0755   -2.6425   -1.6941 N   0  0  0  0  0  0  0  0  0  0  0  0
   -0.2723   -1.7719   -2.7804 C   0  0  0  0  0  0  0  0  0  0  0  0
    0.6923   -1.7006   -3.7850 C   0  0  0  0  0  0  0  0  0  0  0  0
    0.4599   -0.9761   -4.9360 C   0  0  0  0  0  0  0  0  0  0  0  0
   -0.7364   -0.2887   -5.0963 C   0  0  0  0  0  0  0  0  0  0  0  0
   -1.1677    0.5757   -6.5793 S   0  0  0  0  0  0  0  0  0  0  0  0
   -0.3967   -0.4556   -7.8587 C   0  0  0  0  0  0  0  0  0  0  0  0
   -1.6580   -0.2752   -4.0573 C   0  0  0  0  0  0  0  0  0  0  0  0
   -1.4352   -1.0131   -2.9155 C   0  0  0  0  0  0  0  0  0  0  0  0
    0.3767   -3.9562   -1.9533 C   0  0  0  0  0  0  0  0  0  0  0  0
    0.9759   -4.6744   -0.9182 C   0  0  0  0  0  0  0  0  0  0  0  0
    1.2203   -6.0253   -1.0579 C   0  0  0  0  0  0  0  0  0  0  0  0
    0.8593   -6.6782   -2.2309 C   0  0  0  0  0  0  0  0  0  0  0  0
    0.9531   -8.4444   -2.3033 S   0  0  0  0  0  0  0  0  0  0  0  0
   -0.5655   -8.8046   -3.2450 C   0  0  0  0  0  0  0  0  0  0  0  0
    0.3689   -5.9448   -3.3030 C   0  0  0  0  0  0  0  0  0  0  0  0
    0.1243   -4.5954   -3.1650 C   0  0  0  0  0  0  0  0  0  0  0  0
   -1.8972   -3.6245   -0.3417 C   0  0  0  0  0  0  0  0  0  0  0  0
   -2.0820   -5.2382   -0.9187 S   0  0  0  0  0  0  0  0  0  0  0  0
   -3.5319   -5.4600    0.0650 C   0  0  0  0  0  0  0  0  0  0  0  0
   -3.8778   -4.2860    0.7520 C   0  0  0  0  0  0  0  0  0  0  0  0
   -4.9883   -4.0956    1.5237 N   0  0  0  0  0  0  0  0  0  0  0  0
   -6.2218   -4.6812    1.2315 C   0  0  0  0  0  0  0  0  0  0  0  0
   -7.1008   -5.0149    2.2639 C   0  0  0  0  0  0  0  0  0  0  0  0
   -8.3068   -5.6146    1.9806 C   0  0  0  0  0  0  0  0  0  0  0  0
   -8.6657   -5.8994    0.6641 C   0  0  0  0  0  0  0  0  0  0  0  0
  -10.2107   -6.7074    0.4039 S   0  0  0  0  0  0  0  0  0  0  0  0
  -10.0037   -7.4566   -1.2385 C   0  0  0  0  0  0  0  0  0  0  0  0
   -7.8158   -5.5267   -0.3693 C   0  0  0  0  0  0  0  0  0  0  0  0
   -6.6083   -4.9204   -0.0866 C   0  0  0  0  0  0  0  0  0  0  0  0
   -4.8967   -3.2574    2.6641 C   0  0  0  0  0  0  0  0  0  0  0  0
   -4.0426   -3.5961    3.7093 C   0  0  0  0  0  0  0  0  0  0  0  0
   -3.9971   -2.8009    4.8332 C   0  0  0  0  0  0  0  0  0  0  0  0
   -4.7617   -1.6368    4.9134 C   0  0  0  0  0  0  0  0  0  0  0  0
   -4.5574   -0.6749    6.3753 S   0  0  0  0  0  0  0  0  0  0  0  0
   -5.6261    0.7641    6.1081 C   0  0  0  0  0  0  0  0  0  0  0  0
   -5.6131   -1.3038    3.8675 C   0  0  0  0  0  0  0  0  0  0  0  0
   -5.6906   -2.1215    2.7563 C   0  0  0  0  0  0  0  0  0  0  0  0
   -2.8728   -3.3017    0.5857 C   0  0  0  0  0  0  0  0  0  0  0  0
   -2.6095   -1.7221    1.2311 S   0  0  0  0  0  0  0  0  0  0  0  0
   -4.1258   -6.7346    0.0830 C   0  0  0  0  0  0  0  0  0  0  0  0
   -3.4789   -7.9400   -0.0193 C   0  0  0  0  0  0  0  0  0  0  0  0
   -4.2166   -9.1325   -0.4916 C   0  0  0  0  0  0  0  0  0  0  0  0
   -5.4063   -9.2031   -0.7274 O   0  0  0  0  0  0  0  0  0  0  0  0
   -3.2000  -10.1916   -0.6547 C   0  0  0  0  0  0  0  0  0  0  0  0
   -3.3958  -11.4867   -1.1276 C   0  0  0  0  0  0  0  0  0  0  0  0
   -2.2668  -12.2713   -1.1028 C   0  0  0  0  0  0  0  0  0  0  0  0
   -1.0312  -11.8088   -0.6316 C   0  0  0  0  0  0  0  0  0  0  0  0
   -0.8190  -10.5280   -0.1779 C   0  0  0  0  0  0  0  0  0  0  0  0
   -1.9523   -9.7111   -0.2057 C   0  0  0  0  0  0  0  0  0  0  0  0
   -2.1228   -8.3362    0.2648 C   0  0  0  0  0  0  0  0  0  0  0  0
   -1.2263   -7.6683    1.0664 C   0  0  0  0  0  0  0  0  0  0  0  0
    0.0675   -8.1209    1.3823 C   0  0  0  0  0  0  0  0  0  0  0  0
    1.1425   -8.4038    1.6741 N   0  0  0  0  0  0  0  0  0  0  0  0
   -1.5384   -6.4958    1.7767 C   0  0  0  0  0  0  0  0  0  0  0  0
   -1.7724   -5.5802    2.4312 N   0  0  0  0  0  0  0  0  0  0  0  0
   -0.3685  -13.1540   -0.8122 C   0  0  0  0  0  0  0  0  0  0  0  0
    0.5967  -13.3625   -2.0034 C   0  0  0  0  0  0  0  0  0  0  0  0
    0.1803  -12.3758   -3.0638 C   0  0  0  0  0  0  0  0  0  0  0  0
   -0.9921  -12.7714   -3.5428 C   0  0  0  0  0  0  0  0  0  0  0  0
   -1.3804  -14.0423   -2.8274 C   0  0  0  0  0  0  0  0  0  0  0  0
    0.0102  -14.6554   -2.5932 C   0  0  0  0  0  0  0  0  0  0  0  0
   -1.7370  -13.6571   -1.3706 C   0  0  0  0  0  0  0  0  0  0  0  0
    3.8724    9.2099    2.1351 H   0  0  0  0  0  0  0  0  0  0  0  0
    1.2849   10.1642   -3.5104 H   0  0  0  0  0  0  0  0  0  0  0  0
    4.7298   13.3057   -1.5287 H   0  0  0  0  0  0  0  0  0  0  0  0
    4.1965   14.0476   -4.8314 H   0  0  0  0  0  0  0  0  0  0  0  0
    2.9321   15.8466   -3.3282 H   0  0  0  0  0  0  0  0  0  0  0  0
    2.6299   16.5124   -5.8519 H   0  0  0  0  0  0  0  0  0  0  0  0
    0.8199   14.8900   -6.9243 H   0  0  0  0  0  0  0  0  0  0  0  0
    0.0069   13.2261   -5.0605 H   0  0  0  0  0  0  0  0  0  0  0  0
    0.3382   15.3550   -3.5237 H   0  0  0  0  0  0  0  0  0  0  0  0
    1.1105   13.9658   -2.7253 H   0  0  0  0  0  0  0  0  0  0  0  0
    2.4227   12.4580   -5.8835 H   0  0  0  0  0  0  0  0  0  0  0  0
    2.3176    3.9796    4.2464 H   0  0  0  0  0  0  0  0  0  0  0  0
    4.7848    5.8021    6.3566 H   0  0  0  0  0  0  0  0  0  0  0  0
    3.6792    4.4167    6.4076 H   0  0  0  0  0  0  0  0  0  0  0  0
    2.9417    7.3069    7.0986 H   0  0  0  0  0  0  0  0  0  0  0  0
    3.2194    6.0116    8.2669 H   0  0  0  0  0  0  0  0  0  0  0  0
    1.8397    5.9270    7.1663 H   0  0  0  0  0  0  0  0  0  0  0  0
    4.0232    3.4021    1.1218 H   0  0  0  0  0  0  0  0  0  0  0  0
    5.7227    5.0686    1.6208 H   0  0  0  0  0  0  0  0  0  0  0  0
    6.0154    7.2273    2.5070 H   0  0  0  0  0  0  0  0  0  0  0  0
    7.4310    8.2454    2.2001 H   0  0  0  0  0  0  0  0  0  0  0  0
    7.5741    6.4798    2.0147 H   0  0  0  0  0  0  0  0  0  0  0  0
    4.8534    7.0723   -2.0561 H   0  0  0  0  0  0  0  0  0  0  0  0
    3.1139    5.3995   -2.5482 H   0  0  0  0  0  0  0  0  0  0  0  0
    0.0359    3.2131   -2.3735 H   0  0  0  0  0  0  0  0  0  0  0  0
   -0.0725    2.5363   -4.7410 H   0  0  0  0  0  0  0  0  0  0  0  0
    3.5039    2.0509   -8.3307 H   0  0  0  0  0  0  0  0  0  0  0  0
    3.9834    2.9896   -6.8988 H   0  0  0  0  0  0  0  0  0  0  0  0
    4.2169    1.2129   -6.9376 H   0  0  0  0  0  0  0  0  0  0  0  0
    4.1563    1.8842   -4.7464 H   0  0  0  0  0  0  0  0  0  0  0  0
    4.2627    2.5746   -2.4116 H   0  0  0  0  0  0  0  0  0  0  0  0
    1.5291   -1.2976    1.8434 H   0  0  0  0  0  0  0  0  0  0  0  0
    2.3510   -3.5247    2.3272 H   0  0  0  0  0  0  0  0  0  0  0  0
    3.5181   -5.3392    3.3566 H   0  0  0  0  0  0  0  0  0  0  0  0
    2.9345   -7.0162    3.2040 H   0  0  0  0  0  0  0  0  0  0  0  0
    2.4273   -5.8109    2.0103 H   0  0  0  0  0  0  0  0  0  0  0  0
   -0.9457   -4.1834    4.9661 H   0  0  0  0  0  0  0  0  0  0  0  0
   -1.7848   -1.9173    4.4630 H   0  0  0  0  0  0  0  0  0  0  0  0
   -2.5687    1.5893    2.3029 H   0  0  0  0  0  0  0  0  0  0  0  0
   -3.6269    3.1061    3.8925 H   0  0  0  0  0  0  0  0  0  0  0  0
   -4.8697    4.4269    5.3616 H   0  0  0  0  0  0  0  0  0  0  0  0
   -4.2210    5.5237    6.5971 H   0  0  0  0  0  0  0  0  0  0  0  0
   -3.2325    5.1329    5.1709 H   0  0  0  0  0  0  0  0  0  0  0  0
   -1.3538    1.3581    7.0656 H   0  0  0  0  0  0  0  0  0  0  0  0
   -0.2592   -0.1446    5.4546 H   0  0  0  0  0  0  0  0  0  0  0  0
    1.6167   -2.2470   -3.6699 H   0  0  0  0  0  0  0  0  0  0  0  0
    1.2095   -0.9553   -5.7108 H   0  0  0  0  0  0  0  0  0  0  0  0
   -0.8891   -0.1941   -8.7897 H   0  0  0  0  0  0  0  0  0  0  0  0
   -0.5686   -1.5010   -7.6229 H   0  0  0  0  0  0  0  0  0  0  0  0
    0.6640   -0.2347   -7.9290 H   0  0  0  0  0  0  0  0  0  0  0  0
   -2.5718    0.2874   -4.1707 H   0  0  0  0  0  0  0  0  0  0  0  0
   -2.1915   -1.0324   -2.1460 H   0  0  0  0  0  0  0  0  0  0  0  0
    1.1860   -4.1730    0.0158 H   0  0  0  0  0  0  0  0  0  0  0  0
    1.6488   -6.5961   -0.2487 H   0  0  0  0  0  0  0  0  0  0  0  0
   -0.8693   -9.8106   -2.9737 H   0  0  0  0  0  0  0  0  0  0  0  0
   -1.3330   -8.0928   -2.9557 H   0  0  0  0  0  0  0  0  0  0  0  0
   -0.3716   -8.7541   -4.3127 H   0  0  0  0  0  0  0  0  0  0  0  0
    0.1369   -6.4299   -4.2378 H   0  0  0  0  0  0  0  0  0  0  0  0
   -0.3160   -4.0463   -3.9834 H   0  0  0  0  0  0  0  0  0  0  0  0
   -6.8198   -4.8195    3.2875 H   0  0  0  0  0  0  0  0  0  0  0  0
   -8.9794   -5.8889    2.7783 H   0  0  0  0  0  0  0  0  0  0  0  0
  -10.8124   -8.1736   -1.3397 H   0  0  0  0  0  0  0  0  0  0  0  0
   -9.0458   -7.9661   -1.2817 H   0  0  0  0  0  0  0  0  0  0  0  0
  -10.0868   -6.7007   -2.0143 H   0  0  0  0  0  0  0  0  0  0  0  0
   -8.0839   -5.7002   -1.3988 H   0  0  0  0  0  0  0  0  0  0  0  0
   -5.9594   -4.6215   -0.8969 H   0  0  0  0  0  0  0  0  0  0  0  0
   -3.4223   -4.4753    3.6282 H   0  0  0  0  0  0  0  0  0  0  0  0
   -3.3736   -3.0736    5.6710 H   0  0  0  0  0  0  0  0  0  0  0  0
   -5.4635    1.4080    6.9671 H   0  0  0  0  0  0  0  0  0  0  0  0
   -6.6666    0.4555    6.0646 H   0  0  0  0  0  0  0  0  0  0  0  0
   -5.3220    1.2770    5.2005 H   0  0  0  0  0  0  0  0  0  0  0  0
   -6.2247   -0.4174    3.9069 H   0  0  0  0  0  0  0  0  0  0  0  0
   -6.3652   -1.8749    1.9495 H   0  0  0  0  0  0  0  0  0  0  0  0
   -5.2095   -6.7955    0.1171 H   0  0  0  0  0  0  0  0  0  0  0  0
   -4.3699  -11.8169   -1.4537 H   0  0  0  0  0  0  0  0  0  0  0  0
    0.1392  -10.1794    0.1682 H   0  0  0  0  0  0  0  0  0  0  0  0
   -0.0010  -13.6125    0.1039 H   0  0  0  0  0  0  0  0  0  0  0  0
    1.6502  -13.3640   -1.7379 H   0  0  0  0  0  0  0  0  0  0  0  0
    0.7467  -11.4962   -3.3069 H   0  0  0  0  0  0  0  0  0  0  0  0
   -1.6160  -12.2808   -4.2680 H   0  0  0  0  0  0  0  0  0  0  0  0
   -2.1233  -14.6613   -3.3241 H   0  0  0  0  0  0  0  0  0  0  0  0
    0.5002  -14.9561   -3.5181 H   0  0  0  0  0  0  0  0  0  0  0  0
    0.0039  -15.4891   -1.8924 H   0  0  0  0  0  0  0  0  0  0  0  0
   -2.2371  -14.4684   -0.8445 H   0  0  0  0  0  0  0  0  0  0  0  0
  1  2  2  0  0  0  0
  2  3  1  0  0  0  0
  3  4  2  0  0  0  0
  3  5  1  0  0  0  0
  5  6  2  0  0  0  0
  6  7  1  0  0  0  0
  7  8  2  0  0  0  0
  8  9  1  0  0  0  0
  9 10  2  0  0  0  0
 10 11  1  0  0  0  0
 11 12  2  0  0  0  0
 12 13  1  0  0  0  0
 13 14  3  0  0  0  0
 12 15  1  0  0  0  0
 15 16  3  0  0  0  0
  8 17  1  0  0  0  0
 17 18  1  0  0  0  0
 18 19  1  0  0  0  0
 19 20  2  0  0  0  0
 20 21  1  0  0  0  0
 21 22  1  0  0  0  0
 21 23  1  0  0  0  0
  1 24  1  0  0  0  0
 24 25  1  0  0  0  0
 25 26  1  0  0  0  0
 26 27  2  0  0  0  0
 27 28  1  0  0  0  0
 28 29  2  0  0  0  0
 29 30  1  0  0  0  0
 30 31  1  0  0  0  0
 29 32  1  0  0  0  0
 32 33  1  0  0  0  0
 26 34  1  0  0  0  0
 34 35  2  0  0  0  0
 35 36  1  0  0  0  0
 36 37  1  0  0  0  0
 37 38  2  0  0  0  0
 38 39  1  0  0  0  0
 39 40  2  0  0  0  0
 40 41  1  0  0  0  0
 41 42  1  0  0  0  0
 40 43  1  0  0  0  0
 43 44  2  0  0  0  0
 36 45  1  0  0  0  0
 45 46  2  0  0  0  0
 46 47  1  0  0  0  0
 47 48  2  0  0  0  0
 48 49  1  0  0  0  0
 49 50  1  0  0  0  0
 48 51  1  0  0  0  0
 51 52  2  0  0  0  0
 35 53  1  0  0  0  0
 53 54  1  0  0  0  0
 54 55  1  0  0  0  0
 55 56  2  0  0  0  0
 56 57  1  0  0  0  0
 57 58  1  0  0  0  0
 58 59  2  0  0  0  0
 59 60  1  0  0  0  0
 60 61  2  0  0  0  0
 61 62  1  0  0  0  0
 62 63  1  0  0  0  0
 61 64  1  0  0  0  0
 64 65  2  0  0  0  0
 57 66  1  0  0  0  0
 66 67  2  0  0  0  0
 67 68  1  0  0  0  0
 68 69  2  0  0  0  0
 69 70  1  0  0  0  0
 70 71  1  0  0  0  0
 69 72  1  0  0  0  0
 72 73  2  0  0  0  0
 56 74  1  0  0  0  0
 74 75  1  0  0  0  0
 55 76  1  0  0  0  0
 76 77  2  0  0  0  0
 77 78  1  0  0  0  0
 78 79  1  0  0  0  0
 79 80  2  0  0  0  0
 80 81  1  0  0  0  0
 81 82  2  0  0  0  0
 82 83  1  0  0  0  0
 83 84  1  0  0  0  0
 82 85  1  0  0  0  0
 85 86  2  0  0  0  0
 78 87  1  0  0  0  0
 87 88  2  0  0  0  0
 88 89  1  0  0  0  0
 89 90  2  0  0  0  0
 90 91  1  0  0  0  0
 91 92  1  0  0  0  0
 90 93  1  0  0  0  0
 93 94  2  0  0  0  0
 77 95  1  0  0  0  0
 95 96  1  0  0  0  0
 96 97  1  0  0  0  0
 97 98  2  0  0  0  0
 98 99  1  0  0  0  0
 99100  1  0  0  0  0
100101  2  0  0  0  0
101102  1  0  0  0  0
102103  2  0  0  0  0
103104  1  0  0  0  0
104105  1  0  0  0  0
103106  1  0  0  0  0
106107  2  0  0  0  0
 99108  1  0  0  0  0
108109  2  0  0  0  0
109110  1  0  0  0  0
110111  2  0  0  0  0
111112  1  0  0  0  0
112113  1  0  0  0  0
111114  1  0  0  0  0
114115  2  0  0  0  0
 98116  1  0  0  0  0
116117  1  0  0  0  0
 97118  1  0  0  0  0
118119  2  0  0  0  0
119120  1  0  0  0  0
120121  2  0  0  0  0
120122  1  0  0  0  0
122123  2  0  0  0  0
123124  1  0  0  0  0
124125  2  0  0  0  0
125126  1  0  0  0  0
126127  2  0  0  0  0
127128  1  0  0  0  0
128129  2  0  0  0  0
129130  1  0  0  0  0
130131  3  0  0  0  0
129132  1  0  0  0  0
132133  3  0  0  0  0
125134  1  0  0  0  0
134135  1  0  0  0  0
135136  1  0  0  0  0
136137  2  0  0  0  0
137138  1  0  0  0  0
138139  1  0  0  0  0
138140  1  0  0  0  0
 11  2  1  0  0  0  0
 23 17  1  0  0  0  0
 33 24  2  0  0  0  0
 75 34  1  0  0  0  0
117 76  1  0  0  0  0
128119  1  0  0  0  0
140134  1  0  0  0  0
 10  5  1  0  0  0  0
 22 18  1  0  0  0  0
 33 27  1  0  0  0  0
 44 37  1  0  0  0  0
 52 45  1  0  0  0  0
 74 53  2  0  0  0  0
 86 79  1  0  0  0  0
 94 87  1  0  0  0  0
116 95  2  0  0  0  0
127122  1  0  0  0  0
139135  1  0  0  0  0
 23  7  1  0  0  0  0
 65 58  1  0  0  0  0
 73 66  1  0  0  0  0
107100  1  0  0  0  0
115108  1  0  0  0  0
140124  1  0  0  0  0
  1141  1  0  0  0  0
  6142  1  0  0  0  0
  9143  1  0  0  0  0
 17144  1  0  0  0  0
 18145  1  0  0  0  0
 19146  1  0  0  0  0
 20147  1  0  0  0  0
 21148  1  0  0  0  0
 22149  1  0  0  0  0
 22150  1  0  0  0  0
 23151  1  0  0  0  0
 28152  1  0  0  0  0
 30153  1  0  0  0  0
 30154  1  0  0  0  0
 31155  1  0  0  0  0
 31156  1  0  0  0  0
 31157  1  0  0  0  0
 38158  1  0  0  0  0
 39159  1  0  0  0  0
 42160  1  0  0  0  0
 42161  1  0  0  0  0
 42162  1  0  0  0  0
 43163  1  0  0  0  0
 44164  1  0  0  0  0
 46165  1  0  0  0  0
 47166  1  0  0  0  0
 50167  1  0  0  0  0
 50168  1  0  0  0  0
 50169  1  0  0  0  0
 51170  1  0  0  0  0
 52171  1  0  0  0  0
 59172  1  0  0  0  0
 60173  1  0  0  0  0
 63174  1  0  0  0  0
 63175  1  0  0  0  0
 63176  1  0  0  0  0
 64177  1  0  0  0  0
 65178  1  0  0  0  0
 67179  1  0  0  0  0
 68180  1  0  0  0  0
 71181  1  0  0  0  0
 71182  1  0  0  0  0
 71183  1  0  0  0  0
 72184  1  0  0  0  0
 73185  1  0  0  0  0
 80186  1  0  0  0  0
 81187  1  0  0  0  0
 84188  1  0  0  0  0
 84189  1  0  0  0  0
 84190  1  0  0  0  0
 85191  1  0  0  0  0
 86192  1  0  0  0  0
 88193  1  0  0  0  0
 89194  1  0  0  0  0
 92195  1  0  0  0  0
 92196  1  0  0  0  0
 92197  1  0  0  0  0
 93198  1  0  0  0  0
 94199  1  0  0  0  0
101200  1  0  0  0  0
102201  1  0  0  0  0
105202  1  0  0  0  0
105203  1  0  0  0  0
105204  1  0  0  0  0
106205  1  0  0  0  0
107206  1  0  0  0  0
109207  1  0  0  0  0
110208  1  0  0  0  0
113209  1  0  0  0  0
113210  1  0  0  0  0
113211  1  0  0  0  0
114212  1  0  0  0  0
115213  1  0  0  0  0
118214  1  0  0  0  0
123215  1  0  0  0  0
126216  1  0  0  0  0
134217  1  0  0  0  0
135218  1  0  0  0  0
136219  1  0  0  0  0
137220  1  0  0  0  0
138221  1  0  0  0  0
139222  1  0  0  0  0
139223  1  0  0  0  0
140224  1  0  0  0  0
M  END
