178

C         -3.30140       -3.87740        3.76230
C         -4.51480       -3.53430        4.31090
C         -4.99460       -2.17710        4.58280
O         -4.48670       -1.12360        4.23740
C         -6.22360       -2.32810        5.38340
C         -7.02910       -1.31100        5.88930
C         -8.11350       -1.76040        6.60490
C         -8.38010       -3.12140        6.80000
C         -7.59690       -4.13540        6.30050
C         -6.48590       -3.69960        5.57350
C         -5.45640       -4.46950        4.87740
C         -5.42200       -5.84010        4.77910
C         -4.54760       -6.57860        3.96130
N         -3.90350       -7.26990        3.30490
C         -6.28370       -6.71980        5.46290
N         -6.91490       -7.51400        6.00240
C         -9.62120       -2.84470        7.61190
C         -9.49460       -3.00260        9.14190
C        -10.66990       -2.22210        9.68450
C        -10.41770       -0.93250        9.50010
C         -9.06740       -0.81980        8.82980
C         -8.35750       -2.02390        9.46220
C         -9.32380       -1.32640        7.39440
C         -2.27260       -3.07870        3.26230
C         -1.01210       -3.59030        2.86150
N         -0.55670       -4.86430        3.07880
C         -0.92900       -5.61990        4.20470
C         -1.14460       -6.98940        4.08240
C         -1.59470       -7.72600        5.16070
C         -1.85640       -7.09860        6.37040
S         -2.55180       -7.92950        7.76290
C         -3.36200       -9.37080        7.01210
C         -1.56750       -5.74160        6.51640
C         -1.09600       -5.01100        5.45040
C          0.35180       -5.42720        2.16320
C          1.46430       -6.13490        2.61650
C          2.35230       -6.67490        1.71490
C          2.15270       -6.52020        0.34300
S          3.36430       -7.24660       -0.71050
C          2.87070       -6.72020       -2.37580
C          1.03660       -5.83010       -0.11080
C          0.14330       -5.29190        0.79420
C         -0.25860       -2.60020        2.20570
S          1.32830       -2.55890        1.49760
C          1.09620       -0.88530        1.05610
C         -0.11020       -0.37280        1.49760
N         -0.44600        0.96740        1.38770
C          0.60150        1.90120        1.50620
C          0.78510        2.90640        0.56340
C          1.89290        3.73080        0.62060
C          2.82510        3.56800        1.63660
S          4.31140        4.50450        1.79120
C          4.34550        5.51750        0.28950
C          2.60940        2.60470        2.62030
C          1.51320        1.77780        2.55440
C         -1.75630        1.37070        1.14980
C         -2.64640        0.55090        0.45240
C         -3.94590        0.95360        0.24670
C         -4.38960        2.18540        0.72190
S         -6.07430        2.60070        0.39210
C         -6.37660        4.04300        1.45320
C         -3.50310        3.01500        1.39530
C         -2.20220        2.60790        1.61070
C         -0.88880       -1.36340        2.14330
S         -2.42580       -1.35070        2.92770
C          2.04880       -0.17040        0.22400
C          3.38500        0.05680        0.57830
C          4.04950       -0.32330        1.77810
C          5.30970        0.15750        1.87200
C          6.27250        0.01620        2.99880
C          6.24610        1.25560        3.89680
S          5.76220        1.09960        0.47500
C          4.21370        0.83590       -0.26190
C          3.77580        1.39200       -1.46250
C          2.44110        1.13990       -1.83150
C          1.61750        0.37610       -0.98010
S          0.02380        0.17770       -1.64840
C          0.46680        1.09670       -3.06390
C         -0.56330        1.37540       -4.10120
C         -1.62210        2.34200       -3.56460
C          1.75160        1.51500       -3.02100
C          4.63790        2.16300       -2.33900
C          5.90400        1.71150       -2.74600
C          6.66240        2.36940       -3.79430
N          7.79420        1.71600       -4.06800
S          7.90140        0.43340       -3.11110
N          6.52350        0.60530       -2.31870
C          6.16660        3.48230       -4.49890
C          4.98080        4.03000       -3.97320
N          4.43020        5.19250       -4.32470
S          3.10650        5.42850       -3.45630
N          3.16060        4.09810       -2.56090
C          4.23360        3.37820       -2.91670
C          6.81540        3.97900       -5.66440
C          6.15830        4.44140       -6.76500
C          4.73970        4.14070       -7.08580
O          3.91910        3.55960       -6.40400
C          4.55170        4.56530       -8.48550
C          3.38960        4.43650       -9.24430
C          3.51220        4.88270      -10.53770
C          4.70740        5.40820      -11.04700
C          5.86230        5.53600      -10.31270
C          5.75610        5.09580       -8.98940
C          6.75580        5.06780       -7.92670
C          8.01110        5.61440       -7.98380
C          8.91400        5.65980       -6.90010
N          9.69440        5.76190       -6.06410
C          8.55690        6.24210       -9.12200
N          9.06060        6.75580      -10.01710
C          4.11430        5.64420      -12.41400
C          3.73250        7.09900      -12.75930
C          2.76460        6.95510      -13.91160
C          1.63210        6.46090      -13.42800
C          1.81560        6.26230      -11.94070
C          2.75050        7.43840      -11.63050
C          2.78080        5.06160      -11.84500
H         -3.09040       -4.93810        3.72580
H         -6.79130       -0.27430        5.70880
H         -7.81810       -5.17860        6.45360
H        -10.54840       -3.25560        7.21670
H         -9.38600       -4.02740        9.48620
H        -11.55910       -2.67510       10.08220
H        -11.05400       -0.09340        9.71290
H         -8.56980        0.14440        8.89090
H         -7.40900       -2.27710        8.99230
H         -8.21130       -1.89930       10.53390
H        -10.05360       -0.72530        6.85480
H         -0.98890       -7.47430        3.13160
H         -1.76880       -8.78130        5.03250
H         -3.93490       -9.05290        6.14610
H         -4.02970       -9.76320        7.77260
H         -2.62590      -10.12340        6.74440
H         -1.72710       -5.27070        7.47420
H         -0.88730       -3.95780        5.56500
H          1.62800       -6.24910        3.67740
H          3.21910       -7.21690        2.05990
H          2.84040       -5.63570       -2.42570
H          3.64020       -7.09940       -3.04130
H          1.91160       -7.15760       -2.63740
H          0.84430       -5.70910       -1.16420
H         -0.73020       -4.76690        0.43660
H          0.07030        3.02400       -0.23750
H          2.02710        4.46970       -0.15160
H          4.25130        4.87360       -0.57870
H          3.54960        6.25670        0.31880
H          5.31140        6.01310        0.28680
H          3.32230        2.50920        3.42420
H          1.36020        1.01700        3.30530
H         -2.30980       -0.39630        0.06100
H         -4.63440        0.31830       -0.28880
H         -6.09940        3.80600        2.47570
H         -5.82830        4.90520        1.08450
H         -7.44330        4.23420        1.39210
H         -3.81360        3.97890        1.76570
H         -1.52280        3.25170        2.14960
H          3.58730       -0.93000        2.53610
H          6.01310       -0.86850        3.58410
H          7.28050       -0.11520        2.60010
H          7.00270        1.17430        4.67290
H          5.27310        1.35690        4.37140
H          6.43890        2.15140        3.31110
H         -1.04900        0.44280       -4.39950
H         -0.07440        1.80690       -4.97660
H         -2.36960        2.54410       -4.32710
H         -2.11900        1.91530       -2.69510
H         -1.15960        3.28240       -3.27250
H          2.20440        2.06530       -3.82510
H          7.89470        3.89440       -5.67260
H          2.49340        4.01440       -8.81680
H          6.77860        5.92830      -10.72130
H          4.60010        5.12450      -13.23760
H          4.57590        7.76750      -12.90840
H          3.01380        7.16740      -14.93460
H          0.74650        6.17790      -13.96630
H          0.91170        6.16910      -11.34440
H          2.26520        8.40100      -11.78290
H          3.19020        7.40550      -10.63540
H          2.37660        4.15430      -12.29050
