
  xtb     02052211003D
 energy: -307.026217229475 gnorm: 0.000811884654 xtb: 6.4.1 (unknown)
184203  0     0  0            999 V2000
    1.7156   -2.7303    6.6961 C   0  0  0  0  0  0  0  0  0  0  0  0
    2.3305   -3.8602    6.2798 C   0  0  0  0  0  0  0  0  0  0  0  0
    2.5590   -4.1951    4.8418 C   0  0  0  0  0  0  0  0  0  0  0  0
    2.4002   -3.4855    3.8707 O   0  0  0  0  0  0  0  0  0  0  0  0
    2.9298   -5.6172    4.8218 C   0  0  0  0  0  0  0  0  0  0  0  0
    3.1496   -6.3983    3.6877 C   0  0  0  0  0  0  0  0  0  0  0  0
    3.4786   -7.7023    3.9638 C   0  0  0  0  0  0  0  0  0  0  0  0
    3.5736   -8.2002    5.2718 C   0  0  0  0  0  0  0  0  0  0  0  0
    3.3380   -7.4474    6.3973 C   0  0  0  0  0  0  0  0  0  0  0  0
    3.0063   -6.1126    6.1406 C   0  0  0  0  0  0  0  0  0  0  0  0
    2.6823   -5.0335    7.0659 C   0  0  0  0  0  0  0  0  0  0  0  0
    2.7682   -5.0812    8.4298 C   0  0  0  0  0  0  0  0  0  0  0  0
    3.1595   -6.2195    9.1662 C   0  0  0  0  0  0  0  0  0  0  0  0
    3.4762   -7.1081    9.8201 N   0  0  0  0  0  0  0  0  0  0  0  0
    2.5077   -3.9866    9.2833 C   0  0  0  0  0  0  0  0  0  0  0  0
    2.3239   -3.1409   10.0370 N   0  0  0  0  0  0  0  0  0  0  0  0
    3.9570   -9.5805    4.8011 C   0  0  0  0  0  0  0  0  0  0  0  0
    5.4501   -9.9828    4.8965 C   0  0  0  0  0  0  0  0  0  0  0  0
    6.2472   -8.7041    4.8207 C   0  0  0  0  0  0  0  0  0  0  0  0
    6.1494   -8.2388    3.5826 C   0  0  0  0  0  0  0  0  0  0  0  0
    5.2831   -9.1931    2.7987 C   0  0  0  0  0  0  0  0  0  0  0  0
    5.6650  -10.5206    3.4724 C   0  0  0  0  0  0  0  0  0  0  0  0
    3.8435   -9.0274    3.3454 C   0  0  0  0  0  0  0  0  0  0  0  0
    1.5365   -1.6179    5.7881 C   0  0  0  0  0  0  0  0  0  0  0  0
    0.3085   -1.0394    5.5376 C   0  0  0  0  0  0  0  0  0  0  0  0
   -0.7607   -1.4174    6.2593 F   0  0  0  0  0  0  0  0  0  0  0  0
    0.1009   -0.1897    4.4405 C   0  0  0  0  0  0  0  0  0  0  0  0
   -1.1563    0.1974    4.1604 F   0  0  0  0  0  0  0  0  0  0  0  0
    1.1314    0.1498    3.5907 C   0  0  0  0  0  0  0  0  0  0  0  0
    2.4468   -0.2347    3.9772 C   0  0  0  0  0  0  0  0  0  0  0  0
    3.4965    0.3086    3.3461 N   0  0  0  0  0  0  0  0  0  0  0  0
    4.7091   -0.0376    3.7047 C   0  0  0  0  0  0  0  0  0  0  0  0
    5.8231    0.7029    3.0246 C   0  0  0  0  0  0  0  0  0  0  0  0
    6.0918    0.1191    1.6378 C   0  0  0  0  0  0  0  0  0  0  0  0
    4.9091   -1.0394    4.6939 C   0  0  0  0  0  0  0  0  0  0  0  0
    3.8913   -1.5428    5.3495 N   0  0  0  0  0  0  0  0  0  0  0  0
    2.6502   -1.1389    5.0422 C   0  0  0  0  0  0  0  0  0  0  0  0
    6.2622   -1.5320    5.1096 C   0  0  0  0  0  0  0  0  0  0  0  0
    6.7924   -0.7017    6.2816 C   0  0  0  0  0  0  0  0  0  0  0  0
    0.9491    0.7135    2.2707 C   0  0  0  0  0  0  0  0  0  0  0  0
    0.3494    1.8757    1.8334 C   0  0  0  0  0  0  0  0  0  0  0  0
   -0.2148    2.8359    2.6461 N   0  0  0  0  0  0  0  0  0  0  0  0
   -1.2786    3.6009    2.1436 C   0  0  0  0  0  0  0  0  0  0  0  0
   -1.3637    4.9658    2.4146 C   0  0  0  0  0  0  0  0  0  0  0  0
   -2.3485    5.7255    1.8235 C   0  0  0  0  0  0  0  0  0  0  0  0
   -3.2627    5.1440    0.9459 C   0  0  0  0  0  0  0  0  0  0  0  0
   -4.4325    6.2175    0.1783 S   0  0  0  0  0  0  0  0  0  0  0  0
   -5.1109    5.2200   -1.1798 C   0  0  0  0  0  0  0  0  0  0  0  0
   -3.2210    3.7747    0.7249 C   0  0  0  0  0  0  0  0  0  0  0  0
   -2.2410    3.0115    1.3273 C   0  0  0  0  0  0  0  0  0  0  0  0
    0.2224    2.9785    3.9704 C   0  0  0  0  0  0  0  0  0  0  0  0
   -0.6931    3.1667    4.9999 C   0  0  0  0  0  0  0  0  0  0  0  0
   -0.2714    3.2244    6.3149 C   0  0  0  0  0  0  0  0  0  0  0  0
    1.0760    3.0896    6.6198 C   0  0  0  0  0  0  0  0  0  0  0  0
    1.7309    3.0908    8.2596 S   0  0  0  0  0  0  0  0  0  0  0  0
    0.2569    3.0483    9.3177 C   0  0  0  0  0  0  0  0  0  0  0  0
    2.0001    2.9457    5.5861 C   0  0  0  0  0  0  0  0  0  0  0  0
    1.5822    2.8984    4.2762 C   0  0  0  0  0  0  0  0  0  0  0  0
    0.4198    1.9633    0.4166 C   0  0  0  0  0  0  0  0  0  0  0  0
   -0.1099    3.1279   -0.7430 S   0  0  0  0  0  0  0  0  0  0  0  0
    0.4418    2.1005   -2.0565 C   0  0  0  0  0  0  0  0  0  0  0  0
    0.9525    0.8874   -1.6090 C   0  0  0  0  0  0  0  0  0  0  0  0
    1.2115   -0.2011   -2.4243 N   0  0  0  0  0  0  0  0  0  0  0  0
    2.0208   -1.2440   -1.9599 C   0  0  0  0  0  0  0  0  0  0  0  0
    1.6213   -2.5720   -2.1161 C   0  0  0  0  0  0  0  0  0  0  0  0
    2.3520   -3.5897   -1.5431 C   0  0  0  0  0  0  0  0  0  0  0  0
    3.5005   -3.3025   -0.8132 C   0  0  0  0  0  0  0  0  0  0  0  0
    4.3399   -4.6355   -0.0027 S   0  0  0  0  0  0  0  0  0  0  0  0
    4.8802   -3.8453    1.5454 C   0  0  0  0  0  0  0  0  0  0  0  0
    3.9568   -1.9948   -0.7419 C   0  0  0  0  0  0  0  0  0  0  0  0
    3.2204   -0.9711   -1.3046 C   0  0  0  0  0  0  0  0  0  0  0  0
    0.4031   -0.4002   -3.5617 C   0  0  0  0  0  0  0  0  0  0  0  0
    0.9721   -0.8084   -4.7623 C   0  0  0  0  0  0  0  0  0  0  0  0
    0.2120   -0.8665   -5.9157 C   0  0  0  0  0  0  0  0  0  0  0  0
   -1.1320   -0.5193   -5.8820 C   0  0  0  0  0  0  0  0  0  0  0  0
   -2.1769   -0.4255   -7.3016 S   0  0  0  0  0  0  0  0  0  0  0  0
   -1.0291   -0.6030   -8.6941 C   0  0  0  0  0  0  0  0  0  0  0  0
   -1.7256   -0.2070   -4.6604 C   0  0  0  0  0  0  0  0  0  0  0  0
   -0.9693   -0.1541   -3.5125 C   0  0  0  0  0  0  0  0  0  0  0  0
    1.0037    0.8627   -0.1927 C   0  0  0  0  0  0  0  0  0  0  0  0
    1.6006   -0.2634    0.9696 S   0  0  0  0  0  0  0  0  0  0  0  0
    0.1197    2.4835   -3.3935 C   0  0  0  0  0  0  0  0  0  0  0  0
    0.8873    2.3512   -4.5551 C   0  0  0  0  0  0  0  0  0  0  0  0
    2.2834    1.9984   -4.6018 C   0  0  0  0  0  0  0  0  0  0  0  0
    3.0089    1.6045   -5.6942 C   0  0  0  0  0  0  0  0  0  0  0  0
    4.3607    1.3422   -5.4041 C   0  0  0  0  0  0  0  0  0  0  0  0
    4.6826    1.5408   -4.0963 C   0  0  0  0  0  0  0  0  0  0  0  0
    5.9989    1.3536   -3.4237 C   0  0  0  0  0  0  0  0  0  0  0  0
    6.4989    2.6468   -2.7799 C   0  0  0  0  0  0  0  0  0  0  0  0
    3.3008    2.0697   -3.1942 S   0  0  0  0  0  0  0  0  0  0  0  0
    0.1251    2.6328   -5.6905 C   0  0  0  0  0  0  0  0  0  0  0  0
   -1.1961    2.9780   -5.4346 C   0  0  0  0  0  0  0  0  0  0  0  0
   -1.4844    3.0458   -3.7164 S   0  0  0  0  0  0  0  0  0  0  0  0
   -2.1516    3.0989   -6.4546 C   0  0  0  0  0  0  0  0  0  0  0  0
   -3.5029    3.3070   -6.3684 C   0  0  0  0  0  0  0  0  0  0  0  0
   -4.2454    3.6220   -5.1451 C   0  0  0  0  0  0  0  0  0  0  0  0
   -3.7979    3.7620   -4.0172 O   0  0  0  0  0  0  0  0  0  0  0  0
   -5.6562    3.7597   -5.5391 C   0  0  0  0  0  0  0  0  0  0  0  0
   -6.7335    4.0594   -4.7090 C   0  0  0  0  0  0  0  0  0  0  0  0
   -7.9429    4.1115   -5.3591 C   0  0  0  0  0  0  0  0  0  0  0  0
   -8.0706    3.8855   -6.7358 C   0  0  0  0  0  0  0  0  0  0  0  0
   -7.0142    3.5964   -7.5673 C   0  0  0  0  0  0  0  0  0  0  0  0
   -5.7744    3.5340   -6.9258 C   0  0  0  0  0  0  0  0  0  0  0  0
   -4.4471    3.2408   -7.4655 C   0  0  0  0  0  0  0  0  0  0  0  0
   -4.1761    2.9161   -8.7699 C   0  0  0  0  0  0  0  0  0  0  0  0
   -5.1435    2.8409   -9.7938 C   0  0  0  0  0  0  0  0  0  0  0  0
   -5.8669    2.7584  -10.6819 N   0  0  0  0  0  0  0  0  0  0  0  0
   -2.9103    2.5907   -9.2979 C   0  0  0  0  0  0  0  0  0  0  0  0
   -1.9271    2.3129   -9.8251 N   0  0  0  0  0  0  0  0  0  0  0  0
   -9.5665    4.0741   -6.7086 C   0  0  0  0  0  0  0  0  0  0  0  0
  -10.4518    2.8041   -6.7625 C   0  0  0  0  0  0  0  0  0  0  0  0
   -9.6298    1.6811   -6.1800 C   0  0  0  0  0  0  0  0  0  0  0  0
   -9.5111    1.8998   -4.8772 C   0  0  0  0  0  0  0  0  0  0  0  0
  -10.2498    3.1754   -4.5554 C   0  0  0  0  0  0  0  0  0  0  0  0
  -11.3916    3.0928   -5.5809 C   0  0  0  0  0  0  0  0  0  0  0  0
   -9.4237    4.3299   -5.1750 C   0  0  0  0  0  0  0  0  0  0  0  0
    1.3091   -2.6416    7.6945 H   0  0  0  0  0  0  0  0  0  0  0  0
    3.0559   -5.9819    2.6971 H   0  0  0  0  0  0  0  0  0  0  0  0
    3.3937   -7.8495    7.3953 H   0  0  0  0  0  0  0  0  0  0  0  0
    3.2908  -10.3887    5.0958 H   0  0  0  0  0  0  0  0  0  0  0  0
    5.6857  -10.6461    5.7242 H   0  0  0  0  0  0  0  0  0  0  0  0
    6.7380   -8.2547    5.6642 H   0  0  0  0  0  0  0  0  0  0  0  0
    6.5443   -7.3234    3.1818 H   0  0  0  0  0  0  0  0  0  0  0  0
    5.3637   -9.1358    1.7167 H   0  0  0  0  0  0  0  0  0  0  0  0
    6.6981  -10.8073    3.2824 H   0  0  0  0  0  0  0  0  0  0  0  0
    5.0012  -11.3447    3.2150 H   0  0  0  0  0  0  0  0  0  0  0  0
    3.0964   -9.4676    2.6883 H   0  0  0  0  0  0  0  0  0  0  0  0
    5.5086    1.7416    2.9090 H   0  0  0  0  0  0  0  0  0  0  0  0
    6.7308    0.6766    3.6258 H   0  0  0  0  0  0  0  0  0  0  0  0
    6.8602    0.6955    1.1279 H   0  0  0  0  0  0  0  0  0  0  0  0
    6.4284   -0.9130    1.7171 H   0  0  0  0  0  0  0  0  0  0  0  0
    5.1778    0.1499    1.0505 H   0  0  0  0  0  0  0  0  0  0  0  0
    6.1579   -2.5693    5.4314 H   0  0  0  0  0  0  0  0  0  0  0  0
    6.9599   -1.4920    4.2727 H   0  0  0  0  0  0  0  0  0  0  0  0
    7.7655   -1.0729    6.5934 H   0  0  0  0  0  0  0  0  0  0  0  0
    6.1063   -0.7701    7.1218 H   0  0  0  0  0  0  0  0  0  0  0  0
    6.8922    0.3458    6.0052 H   0  0  0  0  0  0  0  0  0  0  0  0
   -0.6395    5.4254    3.0706 H   0  0  0  0  0  0  0  0  0  0  0  0
   -2.4066    6.7863    2.0132 H   0  0  0  0  0  0  0  0  0  0  0  0
   -4.3068    4.8100   -1.7850 H   0  0  0  0  0  0  0  0  0  0  0  0
   -5.7509    4.4359   -0.7837 H   0  0  0  0  0  0  0  0  0  0  0  0
   -5.7033    5.9126   -1.7708 H   0  0  0  0  0  0  0  0  0  0  0  0
   -3.9386    3.2921    0.0821 H   0  0  0  0  0  0  0  0  0  0  0  0
   -2.2178    1.9444    1.1621 H   0  0  0  0  0  0  0  0  0  0  0  0
   -1.7447    3.2448    4.7682 H   0  0  0  0  0  0  0  0  0  0  0  0
   -1.0076    3.3590    7.0906 H   0  0  0  0  0  0  0  0  0  0  0  0
   -0.2991    3.9769    9.2248 H   0  0  0  0  0  0  0  0  0  0  0  0
    0.6294    2.9428   10.3319 H   0  0  0  0  0  0  0  0  0  0  0  0
   -0.3568    2.1906    9.0587 H   0  0  0  0  0  0  0  0  0  0  0  0
    3.0496    2.8689    5.8273 H   0  0  0  0  0  0  0  0  0  0  0  0
    2.3057    2.7811    3.4839 H   0  0  0  0  0  0  0  0  0  0  0  0
    0.7110   -2.7950   -2.6526 H   0  0  0  0  0  0  0  0  0  0  0  0
    2.0221   -4.6134   -1.6294 H   0  0  0  0  0  0  0  0  0  0  0  0
    5.2190   -4.6500    2.1911 H   0  0  0  0  0  0  0  0  0  0  0  0
    5.7037   -3.1639    1.3553 H   0  0  0  0  0  0  0  0  0  0  0  0
    4.0395   -3.3301    2.0020 H   0  0  0  0  0  0  0  0  0  0  0  0
    4.8823   -1.7674   -0.2389 H   0  0  0  0  0  0  0  0  0  0  0  0
    3.5661    0.0493   -1.2341 H   0  0  0  0  0  0  0  0  0  0  0  0
    2.0228   -1.0557   -4.7955 H   0  0  0  0  0  0  0  0  0  0  0  0
    0.6853   -1.1657   -6.8367 H   0  0  0  0  0  0  0  0  0  0  0  0
   -0.2380    0.1353   -8.6096 H   0  0  0  0  0  0  0  0  0  0  0  0
   -0.6328   -1.6137   -8.7277 H   0  0  0  0  0  0  0  0  0  0  0  0
   -1.6153   -0.4019   -9.5852 H   0  0  0  0  0  0  0  0  0  0  0  0
   -2.7821    0.0115   -4.6295 H   0  0  0  0  0  0  0  0  0  0  0  0
   -1.4341    0.1024   -2.5724 H   0  0  0  0  0  0  0  0  0  0  0  0
    2.5834    1.4865   -6.6740 H   0  0  0  0  0  0  0  0  0  0  0  0
    5.0708    1.0115   -6.1415 H   0  0  0  0  0  0  0  0  0  0  0  0
    6.7209    1.0038   -4.1646 H   0  0  0  0  0  0  0  0  0  0  0  0
    5.9060    0.5820   -2.6530 H   0  0  0  0  0  0  0  0  0  0  0  0
    5.7914    2.9923   -2.0294 H   0  0  0  0  0  0  0  0  0  0  0  0
    6.6108    3.4248   -3.5316 H   0  0  0  0  0  0  0  0  0  0  0  0
    7.4623    2.4838   -2.3033 H   0  0  0  0  0  0  0  0  0  0  0  0
    0.5090    2.5787   -6.6937 H   0  0  0  0  0  0  0  0  0  0  0  0
   -1.7407    2.9373   -7.4433 H   0  0  0  0  0  0  0  0  0  0  0  0
   -6.5898    4.2245   -3.6525 H   0  0  0  0  0  0  0  0  0  0  0  0
   -7.1314    3.4302   -8.6249 H   0  0  0  0  0  0  0  0  0  0  0  0
   -9.9587    4.8791   -7.3268 H   0  0  0  0  0  0  0  0  0  0  0  0
  -10.9073    2.6128   -7.7303 H   0  0  0  0  0  0  0  0  0  0  0  0
   -9.1846    0.8985   -6.7660 H   0  0  0  0  0  0  0  0  0  0  0  0
   -8.9469    1.3360   -4.1575 H   0  0  0  0  0  0  0  0  0  0  0  0
  -10.5224    3.3234   -3.5137 H   0  0  0  0  0  0  0  0  0  0  0  0
  -12.0793    2.2728   -5.3797 H   0  0  0  0  0  0  0  0  0  0  0  0
  -11.9485    4.0228   -5.6864 H   0  0  0  0  0  0  0  0  0  0  0  0
   -9.7190    5.3048   -4.7917 H   0  0  0  0  0  0  0  0  0  0  0  0
  1  2  2  0  0  0  0
  2  3  1  0  0  0  0
  3  4  2  0  0  0  0
  3  5  1  0  0  0  0
  5  6  2  0  0  0  0
  6  7  1  0  0  0  0
  7  8  2  0  0  0  0
  8  9  1  0  0  0  0
  9 10  2  0  0  0  0
 10 11  1  0  0  0  0
 11 12  2  0  0  0  0
 12 13  1  0  0  0  0
 13 14  3  0  0  0  0
 12 15  1  0  0  0  0
 15 16  3  0  0  0  0
  8 17  1  0  0  0  0
 17 18  1  0  0  0  0
 18 19  1  0  0  0  0
 19 20  2  0  0  0  0
 20 21  1  0  0  0  0
 21 22  1  0  0  0  0
 21 23  1  0  0  0  0
  1 24  1  0  0  0  0
 24 25  2  0  0  0  0
 25 26  1  0  0  0  0
 25 27  1  0  0  0  0
 27 28  1  0  0  0  0
 27 29  2  0  0  0  0
 29 30  1  0  0  0  0
 30 31  2  0  0  0  0
 31 32  1  0  0  0  0
 32 33  1  0  0  0  0
 33 34  1  0  0  0  0
 32 35  2  0  0  0  0
 35 36  1  0  0  0  0
 36 37  2  0  0  0  0
 35 38  1  0  0  0  0
 38 39  1  0  0  0  0
 29 40  1  0  0  0  0
 40 41  2  0  0  0  0
 41 42  1  0  0  0  0
 42 43  1  0  0  0  0
 43 44  2  0  0  0  0
 44 45  1  0  0  0  0
 45 46  2  0  0  0  0
 46 47  1  0  0  0  0
 47 48  1  0  0  0  0
 46 49  1  0  0  0  0
 49 50  2  0  0  0  0
 42 51  1  0  0  0  0
 51 52  2  0  0  0  0
 52 53  1  0  0  0  0
 53 54  2  0  0  0  0
 54 55  1  0  0  0  0
 55 56  1  0  0  0  0
 54 57  1  0  0  0  0
 57 58  2  0  0  0  0
 41 59  1  0  0  0  0
 59 60  1  0  0  0  0
 60 61  1  0  0  0  0
 61 62  2  0  0  0  0
 62 63  1  0  0  0  0
 63 64  1  0  0  0  0
 64 65  2  0  0  0  0
 65 66  1  0  0  0  0
 66 67  2  0  0  0  0
 67 68  1  0  0  0  0
 68 69  1  0  0  0  0
 67 70  1  0  0  0  0
 70 71  2  0  0  0  0
 63 72  1  0  0  0  0
 72 73  2  0  0  0  0
 73 74  1  0  0  0  0
 74 75  2  0  0  0  0
 75 76  1  0  0  0  0
 76 77  1  0  0  0  0
 75 78  1  0  0  0  0
 78 79  2  0  0  0  0
 62 80  1  0  0  0  0
 80 81  1  0  0  0  0
 61 82  1  0  0  0  0
 82 83  2  0  0  0  0
 83 84  1  0  0  0  0
 84 85  2  0  0  0  0
 85 86  1  0  0  0  0
 86 87  2  0  0  0  0
 87 88  1  0  0  0  0
 88 89  1  0  0  0  0
 87 90  1  0  0  0  0
 83 91  1  0  0  0  0
 91 92  2  0  0  0  0
 92 93  1  0  0  0  0
 92 94  1  0  0  0  0
 94 95  2  0  0  0  0
 95 96  1  0  0  0  0
 96 97  2  0  0  0  0
 96 98  1  0  0  0  0
 98 99  2  0  0  0  0
 99100  1  0  0  0  0
100101  2  0  0  0  0
101102  1  0  0  0  0
102103  2  0  0  0  0
103104  1  0  0  0  0
104105  2  0  0  0  0
105106  1  0  0  0  0
106107  3  0  0  0  0
105108  1  0  0  0  0
108109  3  0  0  0  0
101110  1  0  0  0  0
110111  1  0  0  0  0
111112  1  0  0  0  0
112113  2  0  0  0  0
113114  1  0  0  0  0
114115  1  0  0  0  0
114116  1  0  0  0  0
 11  2  1  0  0  0  0
 23 17  1  0  0  0  0
 37 24  1  0  0  0  0
 81 40  1  0  0  0  0
 93 82  1  0  0  0  0
104 95  1  0  0  0  0
116110  1  0  0  0  0
 10  5  1  0  0  0  0
 22 18  1  0  0  0  0
 37 30  1  0  0  0  0
 50 43  1  0  0  0  0
 58 51  1  0  0  0  0
 80 59  2  0  0  0  0
 90 84  1  0  0  0  0
103 98  1  0  0  0  0
115111  1  0  0  0  0
 23  7  1  0  0  0  0
 71 64  1  0  0  0  0
 79 72  1  0  0  0  0
116100  1  0  0  0  0
  1117  1  0  0  0  0
  6118  1  0  0  0  0
  9119  1  0  0  0  0
 17120  1  0  0  0  0
 18121  1  0  0  0  0
 19122  1  0  0  0  0
 20123  1  0  0  0  0
 21124  1  0  0  0  0
 22125  1  0  0  0  0
 22126  1  0  0  0  0
 23127  1  0  0  0  0
 33128  1  0  0  0  0
 33129  1  0  0  0  0
 34130  1  0  0  0  0
 34131  1  0  0  0  0
 34132  1  0  0  0  0
 38133  1  0  0  0  0
 38134  1  0  0  0  0
 39135  1  0  0  0  0
 39136  1  0  0  0  0
 39137  1  0  0  0  0
 44138  1  0  0  0  0
 45139  1  0  0  0  0
 48140  1  0  0  0  0
 48141  1  0  0  0  0
 48142  1  0  0  0  0
 49143  1  0  0  0  0
 50144  1  0  0  0  0
 52145  1  0  0  0  0
 53146  1  0  0  0  0
 56147  1  0  0  0  0
 56148  1  0  0  0  0
 56149  1  0  0  0  0
 57150  1  0  0  0  0
 58151  1  0  0  0  0
 65152  1  0  0  0  0
 66153  1  0  0  0  0
 69154  1  0  0  0  0
 69155  1  0  0  0  0
 69156  1  0  0  0  0
 70157  1  0  0  0  0
 71158  1  0  0  0  0
 73159  1  0  0  0  0
 74160  1  0  0  0  0
 77161  1  0  0  0  0
 77162  1  0  0  0  0
 77163  1  0  0  0  0
 78164  1  0  0  0  0
 79165  1  0  0  0  0
 85166  1  0  0  0  0
 86167  1  0  0  0  0
 88168  1  0  0  0  0
 88169  1  0  0  0  0
 89170  1  0  0  0  0
 89171  1  0  0  0  0
 89172  1  0  0  0  0
 91173  1  0  0  0  0
 94174  1  0  0  0  0
 99175  1  0  0  0  0
102176  1  0  0  0  0
110177  1  0  0  0  0
111178  1  0  0  0  0
112179  1  0  0  0  0
113180  1  0  0  0  0
114181  1  0  0  0  0
115182  1  0  0  0  0
115183  1  0  0  0  0
116184  1  0  0  0  0
M  END
