234

C         -2.18000        5.65330       -2.35660
C         -2.87040        6.09530       -1.24520
C         -3.11210        5.27170       -0.05460
O         -2.81260        4.10210        0.11970
C         -3.67440        6.18650        0.96120
C         -4.04590        5.86750        2.26310
C         -4.52260        6.93420        2.98800
C         -4.60870        8.22750        2.46070
C         -4.24380        8.55570        1.17480
C         -3.76980        7.48170        0.41870
C         -3.31050        7.43360       -0.97000
C         -3.42810        8.44730       -1.89030
C         -3.09630        8.31050       -3.25220
N         -2.86860        8.25760       -4.37710
C         -3.95800        9.71870       -1.60400
N         -4.38670       10.76870       -1.41990
C         -5.13500        8.80560        3.75130
C         -4.14670        9.59910        4.64140
C         -2.76950        9.06350        4.33830
C         -2.69300        7.83710        4.83730
C         -4.01780        7.52130        5.48660
C         -4.41000        8.91790        5.99400
C         -5.04410        7.36140        4.33800
C         -2.03750        4.32110       -2.74300
C         -2.83830        3.18570       -2.48000
N         -4.12040        3.19440       -2.01810
C         -4.93400        4.33640       -2.07160
C         -5.71380        4.67760       -0.96960
C         -6.45330        5.84510       -0.96430
C         -6.43140        6.68540       -2.06940
S         -7.26110        8.23630       -2.14120
C         -7.60160        8.61240       -0.39790
C         -5.71770        6.30230       -3.20700
C         -4.97510        5.14530       -3.20840
C         -4.69490        2.02270       -1.47960
C         -5.92090        1.58100       -1.97180
C         -6.51710        0.46260       -1.43210
C         -5.90260       -0.22520       -0.38880
S         -6.76530       -1.61220        0.27890
C         -6.15930       -1.66830        1.99060
C         -4.67100        0.20230        0.08940
C         -4.07190        1.32360       -0.45110
C         -2.17670        2.01150       -2.89310
S         -2.54590        0.31810       -2.77840
C         -1.02280       -0.08030       -3.55070
C         -0.33660        1.04940       -3.97900
N          0.78040        0.93910       -4.80380
C          1.92820        1.68000       -4.52750
C          2.76930        2.12880       -5.54100
C          3.89770        2.86870       -5.24370
C          4.19330        3.19170       -3.92700
S          5.60860        4.12310       -3.42620
C          6.28580        4.75120       -4.99060
C          3.34910        2.75180       -2.90970
C          2.23720        1.99670       -3.20320
C          0.55300        0.27780       -6.02150
C          1.51180       -0.55580       -6.59350
C          1.23640       -1.22140       -7.77090
C          0.00430       -1.06550       -8.39670
S         -0.31120       -1.96530       -9.89180
C         -1.33710       -0.78640      -10.82690
C         -0.95750       -0.24200       -7.82910
C         -0.68100        0.42340       -6.65530
C         -0.97490        2.23000       -3.56130
S         -0.60260        3.90570       -3.70030
C         -0.47330       -1.37700       -3.42140
C         -1.15210       -2.49900       -2.95940
N         -2.53270       -2.60260       -3.06880
C         -3.05540       -2.41360       -4.36030
C         -4.26500       -1.75540       -4.57280
C         -4.71930       -1.54860       -5.85990
C         -3.98200       -1.99920       -6.95030
S         -4.59790       -1.67530       -8.57910
C         -4.02210       -3.13530       -9.50230
C         -2.77850       -2.65890       -6.74320
C         -2.32430       -2.86310       -5.45890
C         -3.27400       -3.13450       -2.01470
C         -4.43410       -3.87100       -2.23740
C         -5.11890       -4.44170       -1.18360
C         -4.65130       -4.29510        0.11440
S         -5.42390       -5.03520        1.52240
C         -7.10100       -5.39980        0.93150
C         -3.49970       -3.54740        0.34390
C         -2.82680       -2.96040       -0.70340
C         -0.26210       -3.43810       -2.40040
S         -0.46420       -4.85470       -1.43080
C          1.24090       -4.85570       -1.04990
C          1.94410       -3.88390       -1.74090
N          3.31300       -3.67940       -1.60080
C          3.73160       -2.40010       -1.12610
C          3.72450       -2.10840        0.23010
C          4.11060       -0.86290        0.68630
C          4.51630        0.10750       -0.21940
S          5.02070        1.73120        0.25420
C          5.19490        1.60960        2.05930
C          4.53490       -0.18560       -1.58170
C          4.14560       -1.43020       -2.03140
C          4.15810       -4.78460       -1.51560
C          5.23460       -4.84380       -0.63040
C          6.02650       -5.97100       -0.57630
C          5.78440       -7.05100       -1.41900
S          6.82200       -8.47100       -1.21430
C          6.04700       -9.72450       -2.27690
C          4.75680       -6.97220       -2.34830
C          3.95010       -5.85400       -2.38680
C          1.07540       -3.07200       -2.50400
S          1.27210       -1.57700       -3.35550
C          1.65190       -5.25370        0.29980
C          1.35860       -4.25620        1.24410
N          0.63550       -3.14520        0.93110
C          0.49650       -2.34920        1.91740
C         -0.21740       -1.04910        1.84380
C          0.17230       -0.28200        0.57930
S          1.27580       -2.88670        3.41120
C          1.83500       -4.29760        2.57420
C          2.61770       -5.36090        3.02950
C          2.80690       -6.41450        2.11270
C          2.33590       -6.35620        0.77320
S          2.77110       -7.81810       -0.05170
C          3.57970       -8.35740        1.43070
C          4.29080       -9.65590        1.45960
C          4.66040      -10.06850        2.87920
N          3.50560       -7.53980        2.40810
C          3.18240       -5.50220        4.34190
C          3.70380       -4.52800        5.13060
C          4.07550       -3.16110        4.69370
O          3.96980       -2.68370        3.58080
C          4.67610       -2.50680        5.86570
C          5.14050       -1.19520        5.93850
C          5.62110       -0.83860        7.17430
C          5.65090       -1.72750        8.25810
C          5.21060       -3.02770        8.19600
C          4.70610       -3.40920        6.94820
C          4.13240       -4.67980        6.51570
C          3.98010       -5.79300        7.29610
C          3.38460       -7.00980        6.89570
N          2.90880       -8.03110        6.67450
C          4.39700       -5.88820        8.64180
N          4.71010       -6.04030        9.73570
C          6.23560       -0.69570        9.18950
C          5.28040       -0.02500       10.20810
C          3.89930       -0.08070        9.60350
C          3.87180        0.76030        8.57830
C          5.23430        1.39970        8.47090
C          5.62680        1.45120        9.95590
C          6.20280        0.29380        7.98220
H         -1.64020        6.37930       -2.95260
H         -3.95280        4.85910        2.63590
H         -4.29980        9.55930        0.78560
H         -6.11580        9.27560        3.70210
H         -4.26310       10.67850        4.59300
H         -2.03520        9.59240        3.75930
H         -1.88230        7.13670        4.75750
H         -4.01710        6.70840        6.20850
H         -3.75250        9.27960        6.78320
H         -5.44730        8.98590        6.31960
H         -5.96690        6.88790        4.66900
H         -5.72220        4.03160       -0.10450
H         -7.02940        6.09500       -0.08790
H         -6.69910        8.46520        0.18890
H         -7.88720        9.65940       -0.37890
H         -8.41890        7.99910       -0.02920
H         -5.73920        6.93670       -4.07940
H         -4.41040        4.87140       -4.08640
H         -6.40300        2.12570       -2.77010
H         -7.46920        0.11550       -1.80330
H         -6.84160       -2.31800        2.52920
H         -5.15910       -2.08780        2.02380
H         -6.18560       -0.66720        2.40940
H         -4.17630       -0.32950        0.88610
H         -3.13570        1.69090       -0.06160
H          2.53610        1.90590       -6.57130
H          4.53080        3.19390       -6.05350
H          5.51770        5.29770       -5.52970
H          7.09110        5.42340       -4.71150
H          6.68120        3.93330       -5.58610
H          3.58680        2.99990       -1.88690
H          1.60190        1.64060       -2.40600
H          2.46710       -0.67990       -6.10690
H          1.97450       -1.87280       -8.21340
H         -1.35920       -1.15490      -11.84770
H         -0.86890        0.19220      -10.79200
H         -2.34660       -0.74620      -10.42850
H         -1.92150       -0.11010       -8.29380
H         -1.43340        1.06800       -6.22620
H         -4.83880       -1.40480       -3.72780
H         -5.65050       -1.03050       -6.03040
H         -4.27050       -4.02910       -8.93870
H         -4.56370       -3.12370      -10.44290
H         -2.95400       -3.08250       -9.69210
H         -2.18970       -3.01710       -7.57200
H         -1.38860       -3.37990       -5.30530
H         -4.79160       -4.01800       -3.24530
H         -6.00730       -5.01560       -1.39090
H         -7.50930       -4.51680        0.44840
H         -7.08650       -6.25090        0.25680
H         -7.68000       -5.64560        1.81630
H         -3.13110       -3.44160        1.35410
H         -1.94360       -2.37150       -0.51110
H          3.43440       -2.85830        0.94820
H          4.09150       -0.68370        1.74860
H          4.22070        1.49110        2.52510
H          5.64080        2.54850        2.37300
H          5.85470        0.78330        2.30660
H          4.85900        0.57130       -2.27870
H          4.16860       -1.65890       -3.08590
H          5.44000       -4.01510        0.02930
H          6.83830       -6.02950        0.13290
H          6.16210       -9.45160       -3.32190
H          4.99940       -9.83580       -2.01150
H          6.58210      -10.64810       -2.07870
H          4.56420       -7.77560       -3.04050
H          3.13970       -5.80630       -3.09900
H          0.00950       -0.46150        2.73480
H         -1.29480       -1.24240        1.83130
H          1.23850       -0.06640        0.57740
H         -0.37700        0.65470        0.52450
H         -0.05070       -0.87500       -0.30380
H          3.66420      -10.41550        0.98480
H          5.19870       -9.55640        0.85470
H          3.76930      -10.16020        3.49370
H          5.18090      -11.02220        2.86600
H          5.30540       -9.31970        3.32890
H          3.21660       -6.52870        4.68400
H          5.09900       -0.54300        5.07980
H          5.24610       -3.69770        9.03840
H          7.20260       -0.93800        9.62530
H          5.37390       -0.39520       11.22520
H          3.12570       -0.74680        9.93810
H          3.07040        0.93700        7.88490
H          5.28650        2.32740        7.90680
H          6.67800        1.68470       10.11930
H          5.00440        2.13410       10.53210
H          7.14920        0.69760        7.62770
