166

C          5.38400       -3.45180       -3.40620
C          6.20850       -2.82480       -4.28590
C          7.58450       -3.36090       -4.49210
O          7.98950       -4.45940       -4.18830
C          8.34760       -2.24720       -5.08900
C          9.71790       -2.20200       -5.33760
C         10.15160       -1.01120       -5.86940
C          9.28790        0.05890       -6.14090
C          7.93270        0.02430       -5.91370
C          7.47130       -1.17680       -5.36760
C          6.11380       -1.58320       -5.01840
C          4.96010       -1.00400       -5.48220
C          3.69230       -1.59550       -5.32870
N          2.64190       -2.05040       -5.24050
C          4.89640        0.24390       -6.12720
N          4.77270        1.28930       -6.58830
C         10.40600        0.93810       -6.64430
C         10.90820        2.03430       -5.68080
C         12.27280        2.39540       -6.22190
C         13.08980        1.38190       -5.96490
C         12.29110        0.31890       -5.24580
C         11.32070        1.20700       -4.45630
C         11.36850       -0.25510       -6.34240
C          4.21130       -2.97880       -2.74600
C          3.90130       -1.59960       -2.54340
N          4.81490       -0.65420       -2.81460
C          4.49150        0.60480       -2.68510
C          3.19380        1.00110       -2.27430
O          2.75750        2.25550       -2.21770
C          3.56820        3.29010       -2.76690
C          2.75200        4.57030       -2.75910
N          2.34000        0.08060       -1.86800
C          2.66160       -1.21060       -1.97590
C          1.72610       -2.17670       -1.49500
C          2.16970       -3.50160       -1.50180
C          3.33980       -3.88550       -2.14070
F          3.62840       -5.19770       -2.17880
F          1.49740       -4.44120       -0.80590
C          0.47560       -1.74840       -0.98190
C         -0.68740       -2.50390       -0.76330
N         -0.96710       -3.70990       -1.35180
C         -0.50580       -3.98700       -2.65240
C         -0.46990       -2.98430       -3.62250
C          0.00950       -3.25660       -4.88170
C          0.47740       -4.53180       -5.20120
S          1.10910       -4.74830       -6.82710
C          1.81170       -6.42370       -6.79970
C          0.41450       -5.53990       -4.24760
C         -0.07870       -5.26880       -2.98690
C         -1.78840       -4.63200       -0.69390
C         -2.73230       -5.37690       -1.40270
C         -3.53470       -6.27870       -0.74400
C         -3.41780       -6.45880        0.63480
S         -4.50090       -7.64360        1.36050
C         -4.12650       -7.55460        3.13460
C         -2.47510       -5.72370        1.34150
C         -1.66720       -4.82030        0.68030
C         -1.60470       -1.77570        0.03230
S         -3.15950       -2.13560        0.69740
C         -3.23660       -0.53230        1.40680
C         -2.15730        0.27130        1.04150
N         -2.06500        1.62730        1.24860
C         -0.79310        2.21990        1.27040
C         -0.55800        3.41000        0.58410
C          0.71480        3.93050        0.52320
C          1.77430        3.26960        1.13820
S          3.39420        3.94380        0.93080
C          4.44730        2.47410        1.11590
C          1.53040        2.12690        1.88700
C          0.25310        1.60780        1.95440
C         -3.20120        2.43010        1.41450
C         -3.17950        3.49100        2.31590
C         -4.31260        4.24330        2.55390
C         -5.49920        3.93160        1.90460
S         -7.03830        4.72850        2.24340
C         -6.55340        6.30160        3.00360
C         -5.51130        2.91440        0.95170
C         -4.37310        2.18400        0.69580
C         -1.20970       -0.47280        0.29460
S          0.31570       -0.08710       -0.44590
C         -4.32200       -0.16410        2.26710
C         -4.09010        0.57720        3.46010
N         -2.81420        0.75860        3.86470
C         -2.59780        1.34060        5.00060
C         -3.67450        1.73750        5.85050
O         -3.35700        2.17050        7.05360
C         -4.37710        2.56380        7.97890
C         -4.23600        4.04160        8.30270
N         -4.91870        1.61880        5.44200
C         -5.16170        1.07670        4.23590
C         -6.52050        0.94540        3.79010
C         -6.70250        0.08220        2.71110
C         -5.64650       -0.47570        1.99660
F         -5.95410       -1.23870        0.93300
F         -7.92830       -0.20280        2.24350
C         -7.55440        1.66010        4.47810
C         -7.35700        2.78430        5.24380
C         -6.23870        3.62510        5.31660
N         -5.41600        4.42820        5.33570
C         -8.59270        3.08770        5.92900
C         -8.84160        4.08390        6.83640
C         -7.87260        5.00540        7.26710
N         -7.12330        5.77290        7.67560
C        -10.11530        4.21580        7.42720
N        -11.14790        4.33570        7.91150
O         -9.52530        2.19690        5.59560
C         -9.03250        1.32340        4.56130
C         -9.32220       -0.11030        4.99740
C         -9.81030        1.72440        3.29700
H          5.70860       -4.44780       -3.11770
H         10.34960       -3.04860       -5.11920
H          7.27550        0.85140       -6.12680
H         10.31160        1.28460       -7.67150
H         10.21280        2.85410       -5.52180
H         12.48270        3.29680       -6.76720
H         14.11840        1.26770       -6.25250
H         12.85530       -0.42480       -4.68950
H         10.50060        0.66340       -3.99070
H         11.83170        1.80860       -3.70630
H         11.91720       -0.70340       -7.16840
H          5.28040        1.31550       -2.88550
H          4.47210        3.41760       -2.15770
H          3.85950        3.02530       -3.79140
H          2.53110        4.85830       -1.73620
H          1.81920        4.41770       -3.29400
H          3.31610        5.36390       -3.23970
H         -0.82120       -1.99180       -3.38410
H          0.04300       -2.48360       -5.63160
H          2.54960       -6.49920       -6.00660
H          2.29200       -6.55540       -7.76430
H          1.02340       -7.16110       -6.67980
H          0.75530       -6.53880       -4.46500
H         -0.10840       -6.05050       -2.24280
H         -2.83560       -5.23420       -2.46760
H         -4.27030       -6.85240       -1.28620
H         -4.31030       -6.54910        3.50120
H         -3.10070       -7.86210        3.31560
H         -4.80830       -8.25180        3.61160
H         -2.35050       -5.85020        2.40440
H         -0.91840       -4.26870        1.22850
H         -1.37270        3.90470        0.07700
H          0.90200        4.84260       -0.02140
H          4.56310        2.21710        2.16490
H          4.00840        1.65150        0.55830
H          5.41470        2.73920        0.70020
H          2.32740        1.63250        2.41910
H          0.05550        0.72020        2.53590
H         -2.26980        3.71270        2.85370
H         -4.26670        5.04210        3.27430
H         -7.46320        6.88990        3.07240
H         -6.14840        6.12620        3.99720
H         -5.83300        6.79930        2.36180
H         -6.42330        2.70990        0.41200
H         -4.38830        1.41530       -0.06190
H         -1.57410        1.48260        5.31340
H         -4.22100        1.95280        8.87420
H         -5.35840        2.34470        7.55350
H         -4.39070        4.63550        7.40560
H         -4.98390        4.32850        9.03550
H         -3.24540        4.24500        8.69980
H        -10.38320       -0.20140        5.21380
H         -9.06010       -0.81280        4.21460
H         -8.75980       -0.34890        5.89800
H        -10.85490        1.84350        3.57490
H         -9.73970        0.97340        2.52170
H         -9.43840        2.67360        2.91410
