
  xtb     02122209143D
 energy: -417.734792515668 gnorm: 0.000414745717 xtb: 6.4.1 (unknown)
252278  0     0  0            999 V2000
   -9.8451   -0.3301    7.2511 C   0  0  0  0  0  0  0  0  0  0  0  0
  -10.2213    0.9012    7.6980 C   0  0  0  0  0  0  0  0  0  0  0  0
   -9.5788    2.1918    7.3350 C   0  0  0  0  0  0  0  0  0  0  0  0
   -8.5055    2.3756    6.8003 O   0  0  0  0  0  0  0  0  0  0  0  0
  -10.5627    3.2326    7.6790 C   0  0  0  0  0  0  0  0  0  0  0  0
  -10.4363    4.6011    7.4452 C   0  0  0  0  0  0  0  0  0  0  0  0
  -11.5193    5.3397    7.8559 C   0  0  0  0  0  0  0  0  0  0  0  0
  -12.6510    4.7611    8.4479 C   0  0  0  0  0  0  0  0  0  0  0  0
  -12.7886    3.4142    8.6846 C   0  0  0  0  0  0  0  0  0  0  0  0
  -11.6929    2.6440    8.2814 C   0  0  0  0  0  0  0  0  0  0  0  0
  -11.4751    1.2047    8.3659 C   0  0  0  0  0  0  0  0  0  0  0  0
  -12.2653    0.3066    9.0325 C   0  0  0  0  0  0  0  0  0  0  0  0
  -11.9620   -1.0633    9.1877 C   0  0  0  0  0  0  0  0  0  0  0  0
  -11.7659   -2.1791    9.3738 N   0  0  0  0  0  0  0  0  0  0  0  0
  -13.4642    0.6396    9.6965 C   0  0  0  0  0  0  0  0  0  0  0  0
  -14.4486    0.8440   10.2508 N   0  0  0  0  0  0  0  0  0  0  0  0
  -13.3491    6.0896    8.5996 C   0  0  0  0  0  0  0  0  0  0  0  0
  -13.3543    6.7084   10.0135 C   0  0  0  0  0  0  0  0  0  0  0  0
  -13.6583    8.1687    9.7676 C   0  0  0  0  0  0  0  0  0  0  0  0
  -12.5853    8.7162    9.2111 C   0  0  0  0  0  0  0  0  0  0  0  0
  -11.5380    7.6351    9.0709 C   0  0  0  0  0  0  0  0  0  0  0  0
  -11.8534    6.7991   10.3181 C   0  0  0  0  0  0  0  0  0  0  0  0
  -12.0861    6.7346    7.9434 C   0  0  0  0  0  0  0  0  0  0  0  0
   -8.6141   -0.6548    6.6272 C   0  0  0  0  0  0  0  0  0  0  0  0
   -7.3750   -0.0963    6.7940 C   0  0  0  0  0  0  0  0  0  0  0  0
   -6.3888   -0.6345    5.9410 C   0  0  0  0  0  0  0  0  0  0  0  0
   -5.0420   -0.2390    5.8197 C   0  0  0  0  0  0  0  0  0  0  0  0
   -4.4804    0.8413    6.6428 C   0  0  0  0  0  0  0  0  0  0  0  0
   -3.2673    0.6623    7.3018 C   0  0  0  0  0  0  0  0  0  0  0  0
   -2.7612    1.6730    8.0955 C   0  0  0  0  0  0  0  0  0  0  0  0
   -1.6015    1.4497    8.7428 F   0  0  0  0  0  0  0  0  0  0  0  0
   -3.4063    2.8906    8.2797 C   0  0  0  0  0  0  0  0  0  0  0  0
   -2.8560    3.9787    9.1538 C   0  0  0  0  0  0  0  0  0  0  0  0
   -2.2065    5.0873    8.3232 C   0  0  0  0  0  0  0  0  0  0  0  0
   -4.6032    3.0384    7.5843 C   0  0  0  0  0  0  0  0  0  0  0  0
   -5.2726    4.2037    7.7093 F   0  0  0  0  0  0  0  0  0  0  0  0
   -5.1487    2.0562    6.7820 C   0  0  0  0  0  0  0  0  0  0  0  0
   -4.2902   -0.9058    4.8695 C   0  0  0  0  0  0  0  0  0  0  0  0
   -4.8104   -1.9161    4.0161 C   0  0  0  0  0  0  0  0  0  0  0  0
   -6.1411   -2.3418    4.1698 C   0  0  0  0  0  0  0  0  0  0  0  0
   -6.7320   -3.4231    3.3672 C   0  0  0  0  0  0  0  0  0  0  0  0
   -6.6683   -3.4237    1.9776 C   0  0  0  0  0  0  0  0  0  0  0  0
   -7.3007   -4.4260    1.2685 C   0  0  0  0  0  0  0  0  0  0  0  0
   -8.0223   -5.4531    1.8663 C   0  0  0  0  0  0  0  0  0  0  0  0
   -8.7450   -6.5025    1.0739 C   0  0  0  0  0  0  0  0  0  0  0  0
   -7.8094   -7.6308    0.6359 C   0  0  0  0  0  0  0  0  0  0  0  0
   -8.0358   -5.4344    3.2566 C   0  0  0  0  0  0  0  0  0  0  0  0
   -7.4166   -4.4538    4.0049 C   0  0  0  0  0  0  0  0  0  0  0  0
   -8.7046   -6.4017    3.9112 F   0  0  0  0  0  0  0  0  0  0  0  0
   -7.2343   -4.3858   -0.0794 F   0  0  0  0  0  0  0  0  0  0  0  0
   -6.8960   -1.6870    5.1336 C   0  0  0  0  0  0  0  0  0  0  0  0
   -8.5832   -1.9699    5.4585 S   0  0  0  0  0  0  0  0  0  0  0  0
   -3.8494   -2.3781    3.0849 C   0  0  0  0  0  0  0  0  0  0  0  0
   -2.6242   -1.7795    3.2063 C   0  0  0  0  0  0  0  0  0  0  0  0
   -2.6200   -0.5818    4.4966 S   0  0  0  0  0  0  0  0  0  0  0  0
   -1.4199   -1.8942    2.4590 C   0  0  0  0  0  0  0  0  0  0  0  0
   -1.0567   -2.6406    1.3375 C   0  0  0  0  0  0  0  0  0  0  0  0
   -1.7526   -3.6719    0.7386 N   0  0  0  0  0  0  0  0  0  0  0  0
   -1.4806   -3.9121   -0.6270 C   0  0  0  0  0  0  0  0  0  0  0  0
   -1.6053   -2.8752   -1.5474 C   0  0  0  0  0  0  0  0  0  0  0  0
   -1.1946   -3.0487   -2.8540 C   0  0  0  0  0  0  0  0  0  0  0  0
   -0.6483   -4.2612   -3.2525 C   0  0  0  0  0  0  0  0  0  0  0  0
    0.0143   -4.5057   -4.8732 S   0  0  0  0  0  0  0  0  0  0  0  0
    0.7525   -2.8773   -5.2076 C   0  0  0  0  0  0  0  0  0  0  0  0
   -0.6061   -5.3263   -2.3579 C   0  0  0  0  0  0  0  0  0  0  0  0
   -1.0216   -5.1564   -1.0552 C   0  0  0  0  0  0  0  0  0  0  0  0
   -2.5033   -4.6076    1.4519 C   0  0  0  0  0  0  0  0  0  0  0  0
   -2.2512   -4.8909    2.7928 C   0  0  0  0  0  0  0  0  0  0  0  0
   -3.0694   -5.7546    3.4949 C   0  0  0  0  0  0  0  0  0  0  0  0
   -4.1482   -6.3592    2.8649 C   0  0  0  0  0  0  0  0  0  0  0  0
   -5.2824   -7.4360    3.6824 S   0  0  0  0  0  0  0  0  0  0  0  0
   -5.1151   -6.9566    5.4250 C   0  0  0  0  0  0  0  0  0  0  0  0
   -4.3627   -6.1302    1.5078 C   0  0  0  0  0  0  0  0  0  0  0  0
   -3.5569   -5.2629    0.8087 C   0  0  0  0  0  0  0  0  0  0  0  0
    0.1894   -2.1880    0.8303 C   0  0  0  0  0  0  0  0  0  0  0  0
    1.1439   -2.6069   -0.5439 S   0  0  0  0  0  0  0  0  0  0  0  0
    2.3415   -1.3712   -0.1499 C   0  0  0  0  0  0  0  0  0  0  0  0
    2.0482   -0.7298    1.0487 C   0  0  0  0  0  0  0  0  0  0  0  0
    2.8270    0.1908    1.7297 N   0  0  0  0  0  0  0  0  0  0  0  0
    4.2137    0.0520    1.8528 C   0  0  0  0  0  0  0  0  0  0  0  0
    4.8537   -1.1762    1.6836 C   0  0  0  0  0  0  0  0  0  0  0  0
    6.2180   -1.2786    1.8491 C   0  0  0  0  0  0  0  0  0  0  0  0
    6.9810   -0.1630    2.1868 C   0  0  0  0  0  0  0  0  0  0  0  0
    8.7222   -0.4038    2.3385 S   0  0  0  0  0  0  0  0  0  0  0  0
    9.3734    1.2783    2.5416 C   0  0  0  0  0  0  0  0  0  0  0  0
    6.3474    1.0583    2.3706 C   0  0  0  0  0  0  0  0  0  0  0  0
    4.9821    1.1600    2.2044 C   0  0  0  0  0  0  0  0  0  0  0  0
    2.1356    1.0605    2.5985 C   0  0  0  0  0  0  0  0  0  0  0  0
    1.0075    1.7282    2.1304 C   0  0  0  0  0  0  0  0  0  0  0  0
    0.2295    2.4882    2.9806 C   0  0  0  0  0  0  0  0  0  0  0  0
    0.5593    2.5749    4.3249 C   0  0  0  0  0  0  0  0  0  0  0  0
   -0.4365    3.4280    5.5054 S   0  0  0  0  0  0  0  0  0  0  0  0
   -2.0767    3.4203    4.7249 C   0  0  0  0  0  0  0  0  0  0  0  0
    1.7164    1.9532    4.7888 C   0  0  0  0  0  0  0  0  0  0  0  0
    2.4989    1.2049    3.9374 C   0  0  0  0  0  0  0  0  0  0  0  0
    0.8029   -1.1861    1.5610 C   0  0  0  0  0  0  0  0  0  0  0  0
   -0.1465   -0.7727    2.9393 S   0  0  0  0  0  0  0  0  0  0  0  0
    3.3638   -1.2527   -1.1367 C   0  0  0  0  0  0  0  0  0  0  0  0
    4.1762   -0.2123   -1.5684 C   0  0  0  0  0  0  0  0  0  0  0  0
    4.2577    1.0763   -1.0482 N   0  0  0  0  0  0  0  0  0  0  0  0
    3.1132    1.8604   -0.8814 C   0  0  0  0  0  0  0  0  0  0  0  0
    1.9140    1.5443   -1.5185 C   0  0  0  0  0  0  0  0  0  0  0  0
    0.8117    2.3674   -1.3872 C   0  0  0  0  0  0  0  0  0  0  0  0
    0.8628    3.5291   -0.6265 C   0  0  0  0  0  0  0  0  0  0  0  0
   -0.3270    4.4325   -0.5142 C   0  0  0  0  0  0  0  0  0  0  0  0
    2.0549    3.8300    0.0223 C   0  0  0  0  0  0  0  0  0  0  0  0
    3.1586    3.0111   -0.0933 C   0  0  0  0  0  0  0  0  0  0  0  0
    5.5357    1.6684   -1.1279 C   0  0  0  0  0  0  0  0  0  0  0  0
    6.6494    0.8988   -0.8024 C   0  0  0  0  0  0  0  0  0  0  0  0
    7.9219    1.4206   -0.9150 C   0  0  0  0  0  0  0  0  0  0  0  0
    8.1235    2.7239   -1.3477 C   0  0  0  0  0  0  0  0  0  0  0  0
    9.5031    3.2869   -1.5010 C   0  0  0  0  0  0  0  0  0  0  0  0
    7.0083    3.4848   -1.6781 C   0  0  0  0  0  0  0  0  0  0  0  0
    5.7318    2.9695   -1.5818 C   0  0  0  0  0  0  0  0  0  0  0  0
    4.9187   -0.5828   -2.7207 C   0  0  0  0  0  0  0  0  0  0  0  0
    5.9688    0.3020   -3.7707 S   0  0  0  0  0  0  0  0  0  0  0  0
    6.0635   -1.0854   -4.8628 C   0  0  0  0  0  0  0  0  0  0  0  0
    5.2419   -2.1582   -4.4297 C   0  0  0  0  0  0  0  0  0  0  0  0
    4.9967   -3.3159   -5.1178 N   0  0  0  0  0  0  0  0  0  0  0  0
    4.6102   -4.4623   -4.3931 C   0  0  0  0  0  0  0  0  0  0  0  0
    5.3118   -4.8370   -3.2503 C   0  0  0  0  0  0  0  0  0  0  0  0
    4.9078   -5.9381   -2.5216 C   0  0  0  0  0  0  0  0  0  0  0  0
    3.8056   -6.6904   -2.9098 C   0  0  0  0  0  0  0  0  0  0  0  0
    3.3436   -7.8544   -2.0891 C   0  0  0  0  0  0  0  0  0  0  0  0
    3.1295   -6.3239   -4.0675 C   0  0  0  0  0  0  0  0  0  0  0  0
    3.5245   -5.2279   -4.8063 C   0  0  0  0  0  0  0  0  0  0  0  0
    4.9047   -3.3591   -6.5228 C   0  0  0  0  0  0  0  0  0  0  0  0
    4.3423   -2.3034   -7.2362 C   0  0  0  0  0  0  0  0  0  0  0  0
    4.2760   -2.3596   -8.6142 C   0  0  0  0  0  0  0  0  0  0  0  0
    4.7425   -3.4682   -9.3111 C   0  0  0  0  0  0  0  0  0  0  0  0
    4.7040   -3.5184  -10.8069 C   0  0  0  0  0  0  0  0  0  0  0  0
    5.2637   -4.5334   -8.5857 C   0  0  0  0  0  0  0  0  0  0  0  0
    5.3517   -4.4849   -7.2090 C   0  0  0  0  0  0  0  0  0  0  0  0
    4.6458   -1.8564   -3.1948 C   0  0  0  0  0  0  0  0  0  0  0  0
    3.5052   -2.6737   -2.1816 S   0  0  0  0  0  0  0  0  0  0  0  0
    6.8898   -1.1590   -5.9816 C   0  0  0  0  0  0  0  0  0  0  0  0
    7.6567   -0.1930   -6.5943 C   0  0  0  0  0  0  0  0  0  0  0  0
    7.7386    1.2198   -6.2215 C   0  0  0  0  0  0  0  0  0  0  0  0
    7.2717    1.7636   -5.2338 O   0  0  0  0  0  0  0  0  0  0  0  0
    8.5012    1.8861   -7.2937 C   0  0  0  0  0  0  0  0  0  0  0  0
    8.8099    3.2409   -7.3877 C   0  0  0  0  0  0  0  0  0  0  0  0
    9.5216    3.5751   -8.5151 C   0  0  0  0  0  0  0  0  0  0  0  0
    9.9023    2.6297   -9.4754 C   0  0  0  0  0  0  0  0  0  0  0  0
    9.6114    1.2883   -9.3898 C   0  0  0  0  0  0  0  0  0  0  0  0
    8.8827    0.9278   -8.2532 C   0  0  0  0  0  0  0  0  0  0  0  0
    8.4044   -0.3838   -7.8135 C   0  0  0  0  0  0  0  0  0  0  0  0
    8.6508   -1.5733   -8.4576 C   0  0  0  0  0  0  0  0  0  0  0  0
    9.2964   -1.6882   -9.7039 C   0  0  0  0  0  0  0  0  0  0  0  0
    9.7883   -1.8625  -10.7277 N   0  0  0  0  0  0  0  0  0  0  0  0
    8.3289   -2.8523   -7.9658 C   0  0  0  0  0  0  0  0  0  0  0  0
    8.1399   -3.9352   -7.6274 N   0  0  0  0  0  0  0  0  0  0  0  0
   10.5756    3.6634  -10.3439 C   0  0  0  0  0  0  0  0  0  0  0  0
    9.8000    4.1205  -11.5975 C   0  0  0  0  0  0  0  0  0  0  0  0
   10.4513    5.4336  -11.9667 C   0  0  0  0  0  0  0  0  0  0  0  0
   10.0944    6.3308  -11.0565 C   0  0  0  0  0  0  0  0  0  0  0  0
    9.1955    5.6391  -10.0572 C   0  0  0  0  0  0  0  0  0  0  0  0
    8.4928    4.6380  -10.9832 C   0  0  0  0  0  0  0  0  0  0  0  0
   10.1532    4.7184   -9.2716 C   0  0  0  0  0  0  0  0  0  0  0  0
  -10.5652   -1.1384    7.2992 H   0  0  0  0  0  0  0  0  0  0  0  0
   -9.5497    5.0034    6.9807 H   0  0  0  0  0  0  0  0  0  0  0  0
  -13.6686    2.9817    9.1307 H   0  0  0  0  0  0  0  0  0  0  0  0
  -14.3063    6.1827    8.0903 H   0  0  0  0  0  0  0  0  0  0  0  0
  -13.9823    6.1916   10.7337 H   0  0  0  0  0  0  0  0  0  0  0  0
  -14.6102    8.6249    9.9662 H   0  0  0  0  0  0  0  0  0  0  0  0
  -12.4619    9.7211    8.8520 H   0  0  0  0  0  0  0  0  0  0  0  0
  -10.5111    7.9627    8.9333 H   0  0  0  0  0  0  0  0  0  0  0  0
  -11.3469    5.8362   10.3469 H   0  0  0  0  0  0  0  0  0  0  0  0
  -11.6530    7.3434   11.2393 H   0  0  0  0  0  0  0  0  0  0  0  0
  -12.2008    7.2602    6.9972 H   0  0  0  0  0  0  0  0  0  0  0  0
   -7.1699    0.6514    7.5349 H   0  0  0  0  0  0  0  0  0  0  0  0
   -2.7244   -0.2663    7.2298 H   0  0  0  0  0  0  0  0  0  0  0  0
   -2.1165    3.5539    9.8333 H   0  0  0  0  0  0  0  0  0  0  0  0
   -3.6707    4.4049    9.7439 H   0  0  0  0  0  0  0  0  0  0  0  0
   -1.3895    4.6873    7.7272 H   0  0  0  0  0  0  0  0  0  0  0  0
   -1.8113    5.8574    8.9804 H   0  0  0  0  0  0  0  0  0  0  0  0
   -2.9365    5.5440    7.6588 H   0  0  0  0  0  0  0  0  0  0  0  0
   -6.0826    2.2492    6.2783 H   0  0  0  0  0  0  0  0  0  0  0  0
   -6.1698   -2.6322    1.4414 H   0  0  0  0  0  0  0  0  0  0  0  0
   -9.1873   -6.0397    0.1891 H   0  0  0  0  0  0  0  0  0  0  0  0
   -9.5450   -6.9179    1.6881 H   0  0  0  0  0  0  0  0  0  0  0  0
   -7.0702   -7.2586   -0.0701 H   0  0  0  0  0  0  0  0  0  0  0  0
   -7.2981   -8.0567    1.4969 H   0  0  0  0  0  0  0  0  0  0  0  0
   -8.3812   -8.4156    0.1475 H   0  0  0  0  0  0  0  0  0  0  0  0
   -7.4755   -4.5024    5.0806 H   0  0  0  0  0  0  0  0  0  0  0  0
   -4.0820   -3.1178    2.3463 H   0  0  0  0  0  0  0  0  0  0  0  0
   -1.9985   -1.9226   -1.2232 H   0  0  0  0  0  0  0  0  0  0  0  0
   -1.2873   -2.2311   -3.5508 H   0  0  0  0  0  0  0  0  0  0  0  0
    1.4207   -3.0127   -6.0525 H   0  0  0  0  0  0  0  0  0  0  0  0
    1.3136   -2.5640   -4.3321 H   0  0  0  0  0  0  0  0  0  0  0  0
   -0.0147   -2.1533   -5.4654 H   0  0  0  0  0  0  0  0  0  0  0  0
   -0.2102   -6.2744   -2.6861 H   0  0  0  0  0  0  0  0  0  0  0  0
   -0.9547   -5.9707   -0.3492 H   0  0  0  0  0  0  0  0  0  0  0  0
   -1.4121   -4.4300    3.2907 H   0  0  0  0  0  0  0  0  0  0  0  0
   -2.8521   -5.9513    4.5326 H   0  0  0  0  0  0  0  0  0  0  0  0
   -5.1115   -5.8731    5.4980 H   0  0  0  0  0  0  0  0  0  0  0  0
   -5.9870   -7.3632    5.9278 H   0  0  0  0  0  0  0  0  0  0  0  0
   -4.2121   -7.3834    5.8522 H   0  0  0  0  0  0  0  0  0  0  0  0
   -5.1810   -6.6282    1.0156 H   0  0  0  0  0  0  0  0  0  0  0  0
   -3.7513   -5.0658   -0.2348 H   0  0  0  0  0  0  0  0  0  0  0  0
    4.2814   -2.0584    1.4414 H   0  0  0  0  0  0  0  0  0  0  0  0
    6.7093   -2.2313    1.7205 H   0  0  0  0  0  0  0  0  0  0  0  0
   10.4543    1.1764    2.5285 H   0  0  0  0  0  0  0  0  0  0  0  0
    9.0463    1.8994    1.7124 H   0  0  0  0  0  0  0  0  0  0  0  0
    9.0566    1.6902    3.4955 H   0  0  0  0  0  0  0  0  0  0  0  0
    6.9032    1.9408    2.6415 H   0  0  0  0  0  0  0  0  0  0  0  0
    4.4984    2.1117    2.3607 H   0  0  0  0  0  0  0  0  0  0  0  0
    0.7228    1.6204    1.0963 H   0  0  0  0  0  0  0  0  0  0  0  0
   -0.6413    2.9857    2.5861 H   0  0  0  0  0  0  0  0  0  0  0  0
   -2.1150    4.1410    3.9133 H   0  0  0  0  0  0  0  0  0  0  0  0
   -2.7793    3.7060    5.5008 H   0  0  0  0  0  0  0  0  0  0  0  0
   -2.2992    2.4161    4.3763 H   0  0  0  0  0  0  0  0  0  0  0  0
    1.9734    2.0358    5.8334 H   0  0  0  0  0  0  0  0  0  0  0  0
    3.3718    0.6943    4.3156 H   0  0  0  0  0  0  0  0  0  0  0  0
    1.8491    0.6652   -2.1421 H   0  0  0  0  0  0  0  0  0  0  0  0
   -0.1045    2.1050   -1.8978 H   0  0  0  0  0  0  0  0  0  0  0  0
   -0.2833    5.0146    0.4035 H   0  0  0  0  0  0  0  0  0  0  0  0
   -1.2528    3.8606   -0.5288 H   0  0  0  0  0  0  0  0  0  0  0  0
   -0.3508    5.1283   -1.3538 H   0  0  0  0  0  0  0  0  0  0  0  0
    2.1190    4.7186    0.6336 H   0  0  0  0  0  0  0  0  0  0  0  0
    4.0734    3.2676    0.4174 H   0  0  0  0  0  0  0  0  0  0  0  0
    6.5120   -0.1207   -0.4767 H   0  0  0  0  0  0  0  0  0  0  0  0
    8.7696    0.7958   -0.6720 H   0  0  0  0  0  0  0  0  0  0  0  0
   10.2343    2.6841   -0.9672 H   0  0  0  0  0  0  0  0  0  0  0  0
    9.7778    3.2989   -2.5559 H   0  0  0  0  0  0  0  0  0  0  0  0
    9.5496    4.3102   -1.1323 H   0  0  0  0  0  0  0  0  0  0  0  0
    7.1433    4.4936   -2.0404 H   0  0  0  0  0  0  0  0  0  0  0  0
    4.8868    3.5691   -1.8847 H   0  0  0  0  0  0  0  0  0  0  0  0
    6.1738   -4.2634   -2.9423 H   0  0  0  0  0  0  0  0  0  0  0  0
    5.4598   -6.2179   -1.6361 H   0  0  0  0  0  0  0  0  0  0  0  0
    2.6398   -7.5126   -1.3291 H   0  0  0  0  0  0  0  0  0  0  0  0
    2.8389   -8.5912   -2.7093 H   0  0  0  0  0  0  0  0  0  0  0  0
    4.1800   -8.3305   -1.5827 H   0  0  0  0  0  0  0  0  0  0  0  0
    2.2734   -6.8950   -4.3944 H   0  0  0  0  0  0  0  0  0  0  0  0
    2.9854   -4.9581   -5.7013 H   0  0  0  0  0  0  0  0  0  0  0  0
    3.9708   -1.4366   -6.7083 H   0  0  0  0  0  0  0  0  0  0  0  0
    3.8475   -1.5284   -9.1560 H   0  0  0  0  0  0  0  0  0  0  0  0
    5.7160   -3.4512  -11.2068 H   0  0  0  0  0  0  0  0  0  0  0  0
    4.1190   -2.6965  -11.2120 H   0  0  0  0  0  0  0  0  0  0  0  0
    4.2753   -4.4587  -11.1485 H   0  0  0  0  0  0  0  0  0  0  0  0
    5.6274   -5.4051   -9.1078 H   0  0  0  0  0  0  0  0  0  0  0  0
    5.7794   -5.3087   -6.6599 H   0  0  0  0  0  0  0  0  0  0  0  0
    6.9039   -2.1340   -6.4512 H   0  0  0  0  0  0  0  0  0  0  0  0
    8.4991    3.9338   -6.6213 H   0  0  0  0  0  0  0  0  0  0  0  0
    9.9171    0.5738  -10.1355 H   0  0  0  0  0  0  0  0  0  0  0  0
   11.6361    3.5085  -10.5330 H   0  0  0  0  0  0  0  0  0  0  0  0
    9.7236    3.3734  -12.3827 H   0  0  0  0  0  0  0  0  0  0  0  0
   11.1272    5.5569  -12.7924 H   0  0  0  0  0  0  0  0  0  0  0  0
   10.4129    7.3532  -10.9703 H   0  0  0  0  0  0  0  0  0  0  0  0
    8.5679    6.2770   -9.4404 H   0  0  0  0  0  0  0  0  0  0  0  0
    7.9174    3.8774  -10.4588 H   0  0  0  0  0  0  0  0  0  0  0  0
    7.8597    5.1317  -11.7188 H   0  0  0  0  0  0  0  0  0  0  0  0
   10.9332    5.2652   -8.7447 H   0  0  0  0  0  0  0  0  0  0  0  0
  1  2  2  0  0  0  0
  2  3  1  0  0  0  0
  3  4  2  0  0  0  0
  3  5  1  0  0  0  0
  5  6  2  0  0  0  0
  6  7  1  0  0  0  0
  7  8  2  0  0  0  0
  8  9  1  0  0  0  0
  9 10  2  0  0  0  0
 10 11  1  0  0  0  0
 11 12  2  0  0  0  0
 12 13  1  0  0  0  0
 13 14  3  0  0  0  0
 12 15  1  0  0  0  0
 15 16  3  0  0  0  0
  8 17  1  0  0  0  0
 17 18  1  0  0  0  0
 18 19  1  0  0  0  0
 19 20  2  0  0  0  0
 20 21  1  0  0  0  0
 21 22  1  0  0  0  0
 21 23  1  0  0  0  0
  1 24  1  0  0  0  0
 24 25  2  0  0  0  0
 25 26  1  0  0  0  0
 26 27  2  0  0  0  0
 27 28  1  0  0  0  0
 28 29  2  0  0  0  0
 29 30  1  0  0  0  0
 30 31  1  0  0  0  0
 30 32  2  0  0  0  0
 32 33  1  0  0  0  0
 33 34  1  0  0  0  0
 32 35  1  0  0  0  0
 35 36  1  0  0  0  0
 35 37  2  0  0  0  0
 27 38  1  0  0  0  0
 38 39  2  0  0  0  0
 39 40  1  0  0  0  0
 40 41  1  0  0  0  0
 41 42  2  0  0  0  0
 42 43  1  0  0  0  0
 43 44  2  0  0  0  0
 44 45  1  0  0  0  0
 45 46  1  0  0  0  0
 44 47  1  0  0  0  0
 47 48  2  0  0  0  0
 47 49  1  0  0  0  0
 43 50  1  0  0  0  0
 40 51  2  0  0  0  0
 51 52  1  0  0  0  0
 39 53  1  0  0  0  0
 53 54  2  0  0  0  0
 54 55  1  0  0  0  0
 54 56  1  0  0  0  0
 56 57  2  0  0  0  0
 57 58  1  0  0  0  0
 58 59  1  0  0  0  0
 59 60  2  0  0  0  0
 60 61  1  0  0  0  0
 61 62  2  0  0  0  0
 62 63  1  0  0  0  0
 63 64  1  0  0  0  0
 62 65  1  0  0  0  0
 65 66  2  0  0  0  0
 58 67  1  0  0  0  0
 67 68  2  0  0  0  0
 68 69  1  0  0  0  0
 69 70  2  0  0  0  0
 70 71  1  0  0  0  0
 71 72  1  0  0  0  0
 70 73  1  0  0  0  0
 73 74  2  0  0  0  0
 57 75  1  0  0  0  0
 75 76  1  0  0  0  0
 76 77  1  0  0  0  0
 77 78  2  0  0  0  0
 78 79  1  0  0  0  0
 79 80  1  0  0  0  0
 80 81  2  0  0  0  0
 81 82  1  0  0  0  0
 82 83  2  0  0  0  0
 83 84  1  0  0  0  0
 84 85  1  0  0  0  0
 83 86  1  0  0  0  0
 86 87  2  0  0  0  0
 79 88  1  0  0  0  0
 88 89  2  0  0  0  0
 89 90  1  0  0  0  0
 90 91  2  0  0  0  0
 91 92  1  0  0  0  0
 92 93  1  0  0  0  0
 91 94  1  0  0  0  0
 94 95  2  0  0  0  0
 78 96  1  0  0  0  0
 96 97  1  0  0  0  0
 77 98  1  0  0  0  0
 98 99  2  0  0  0  0
 99100  1  0  0  0  0
100101  1  0  0  0  0
101102  2  0  0  0  0
102103  1  0  0  0  0
103104  2  0  0  0  0
104105  1  0  0  0  0
104106  1  0  0  0  0
106107  2  0  0  0  0
100108  1  0  0  0  0
108109  2  0  0  0  0
109110  1  0  0  0  0
110111  2  0  0  0  0
111112  1  0  0  0  0
111113  1  0  0  0  0
113114  2  0  0  0  0
 99115  1  0  0  0  0
115116  1  0  0  0  0
116117  1  0  0  0  0
117118  2  0  0  0  0
118119  1  0  0  0  0
119120  1  0  0  0  0
120121  2  0  0  0  0
121122  1  0  0  0  0
122123  2  0  0  0  0
123124  1  0  0  0  0
123125  1  0  0  0  0
125126  2  0  0  0  0
119127  1  0  0  0  0
127128  2  0  0  0  0
128129  1  0  0  0  0
129130  2  0  0  0  0
130131  1  0  0  0  0
130132  1  0  0  0  0
132133  2  0  0  0  0
118134  1  0  0  0  0
134135  1  0  0  0  0
117136  1  0  0  0  0
136137  2  0  0  0  0
137138  1  0  0  0  0
138139  2  0  0  0  0
138140  1  0  0  0  0
140141  2  0  0  0  0
141142  1  0  0  0  0
142143  2  0  0  0  0
143144  1  0  0  0  0
144145  2  0  0  0  0
145146  1  0  0  0  0
146147  2  0  0  0  0
147148  1  0  0  0  0
148149  3  0  0  0  0
147150  1  0  0  0  0
150151  3  0  0  0  0
143152  1  0  0  0  0
152153  1  0  0  0  0
153154  1  0  0  0  0
154155  2  0  0  0  0
155156  1  0  0  0  0
156157  1  0  0  0  0
156158  1  0  0  0  0
 11  2  1  0  0  0  0
 23 17  1  0  0  0  0
 52 24  1  0  0  0  0
 97 56  1  0  0  0  0
135 98  1  0  0  0  0
146137  1  0  0  0  0
158152  1  0  0  0  0
 10  5  1  0  0  0  0
 22 18  1  0  0  0  0
 51 26  1  0  0  0  0
 66 59  1  0  0  0  0
 74 67  1  0  0  0  0
 96 75  2  0  0  0  0
107101  1  0  0  0  0
114108  1  0  0  0  0
134115  2  0  0  0  0
145140  1  0  0  0  0
157153  1  0  0  0  0
 23  7  1  0  0  0  0
 37 28  1  0  0  0  0
 55 38  1  0  0  0  0
 87 80  1  0  0  0  0
 95 88  1  0  0  0  0
126120  1  0  0  0  0
133127  1  0  0  0  0
158142  1  0  0  0  0
 48 41  1  0  0  0  0
  1159  1  0  0  0  0
  6160  1  0  0  0  0
  9161  1  0  0  0  0
 17162  1  0  0  0  0
 18163  1  0  0  0  0
 19164  1  0  0  0  0
 20165  1  0  0  0  0
 21166  1  0  0  0  0
 22167  1  0  0  0  0
 22168  1  0  0  0  0
 23169  1  0  0  0  0
 25170  1  0  0  0  0
 29171  1  0  0  0  0
 33172  1  0  0  0  0
 33173  1  0  0  0  0
 34174  1  0  0  0  0
 34175  1  0  0  0  0
 34176  1  0  0  0  0
 37177  1  0  0  0  0
 42178  1  0  0  0  0
 45179  1  0  0  0  0
 45180  1  0  0  0  0
 46181  1  0  0  0  0
 46182  1  0  0  0  0
 46183  1  0  0  0  0
 48184  1  0  0  0  0
 53185  1  0  0  0  0
 60186  1  0  0  0  0
 61187  1  0  0  0  0
 64188  1  0  0  0  0
 64189  1  0  0  0  0
 64190  1  0  0  0  0
 65191  1  0  0  0  0
 66192  1  0  0  0  0
 68193  1  0  0  0  0
 69194  1  0  0  0  0
 72195  1  0  0  0  0
 72196  1  0  0  0  0
 72197  1  0  0  0  0
 73198  1  0  0  0  0
 74199  1  0  0  0  0
 81200  1  0  0  0  0
 82201  1  0  0  0  0
 85202  1  0  0  0  0
 85203  1  0  0  0  0
 85204  1  0  0  0  0
 86205  1  0  0  0  0
 87206  1  0  0  0  0
 89207  1  0  0  0  0
 90208  1  0  0  0  0
 93209  1  0  0  0  0
 93210  1  0  0  0  0
 93211  1  0  0  0  0
 94212  1  0  0  0  0
 95213  1  0  0  0  0
102214  1  0  0  0  0
103215  1  0  0  0  0
105216  1  0  0  0  0
105217  1  0  0  0  0
105218  1  0  0  0  0
106219  1  0  0  0  0
107220  1  0  0  0  0
109221  1  0  0  0  0
110222  1  0  0  0  0
112223  1  0  0  0  0
112224  1  0  0  0  0
112225  1  0  0  0  0
113226  1  0  0  0  0
114227  1  0  0  0  0
121228  1  0  0  0  0
122229  1  0  0  0  0
124230  1  0  0  0  0
124231  1  0  0  0  0
124232  1  0  0  0  0
125233  1  0  0  0  0
126234  1  0  0  0  0
128235  1  0  0  0  0
129236  1  0  0  0  0
131237  1  0  0  0  0
131238  1  0  0  0  0
131239  1  0  0  0  0
132240  1  0  0  0  0
133241  1  0  0  0  0
136242  1  0  0  0  0
141243  1  0  0  0  0
144244  1  0  0  0  0
152245  1  0  0  0  0
153246  1  0  0  0  0
154247  1  0  0  0  0
155248  1  0  0  0  0
156249  1  0  0  0  0
157250  1  0  0  0  0
157251  1  0  0  0  0
158252  1  0  0  0  0
M  END
