157

C          0.15460       -0.72440       -8.19140
C          0.27360       -2.08590       -8.22740
C         -0.00170       -3.04380       -7.13060
O         -0.11460       -2.83240       -5.94100
C         -0.11440       -4.36640       -7.78270
C         -0.49400       -5.56430       -7.18110
C         -0.49540       -6.64460       -8.02950
C         -0.14460       -6.54320       -9.38220
C          0.21850       -5.36650       -9.99220
C          0.22090       -4.25370       -9.14560
C          0.51990       -2.85410       -9.43440
C          0.99830       -2.37270      -10.62580
C          1.35590       -1.03230      -10.88330
N          1.68320        0.02950      -11.17530
C          1.23550       -3.16390      -11.76910
N          1.44470       -3.74220      -12.73880
C         -0.37530       -8.01210       -9.63430
C         -1.67880       -8.42300      -10.36170
C         -2.69130       -7.34350      -10.06990
C         -3.02650       -7.43810       -8.79020
C         -2.24670       -8.58350       -8.19330
C         -2.17280       -9.52250       -9.40780
C         -0.76890       -8.12450       -8.12750
C         -0.10130        0.13710       -7.10740
C         -0.45700        1.48510       -7.18420
C         -0.65990        1.92360       -5.88310
C         -0.40130        0.82810       -5.06210
O         -0.06140       -0.23250       -5.80830
C         -0.39460        0.69180       -3.64710
C         -1.10230        1.40650       -2.68320
N         -2.03130        2.40420       -2.89850
C         -2.17290        3.35520       -1.86440
C         -1.04390        4.01380       -1.37800
C         -1.14210        4.83810       -0.27960
C         -2.36990        5.02230        0.35120
S         -2.37530        6.02100        1.80520
C         -3.94360        5.57720        2.60640
C         -3.50830        4.42710       -0.17690
C         -3.40920        3.59740       -1.27630
C         -2.94640        2.38350       -3.95410
C         -3.45890        3.58760       -4.44230
C         -4.33510        3.59150       -5.50320
C         -4.72040        2.39650       -6.10920
S         -5.82260        2.53160       -7.48060
C         -5.99050        0.82620       -8.07840
C         -4.23310        1.19590       -5.61160
C         -3.35910        1.19120       -4.54210
C         -0.76180        0.95350       -1.38670
S         -1.25010        1.43930        0.20180
C         -0.22510        0.20560        0.90710
C          0.55670       -0.46100       -0.05080
N          1.65700       -1.23270        0.22550
C          2.42010       -1.00730        1.37920
C          2.58820        0.28110        1.88370
C          3.23130        0.49500        3.08430
C          3.74380       -0.58240        3.79950
S          4.51950       -0.43930        5.36850
C          4.57550        1.34700        5.67160
C          3.64770       -1.86570        3.25910
C          2.99870       -2.07720        2.06380
C          2.05380       -2.20660       -0.69830
C          3.40240       -2.38180       -1.01180
C          3.77160       -3.28970       -1.97700
C          2.80640       -4.03720       -2.65130
S          3.37550       -5.12390       -3.91350
C          1.86590       -5.45630       -4.86370
C          1.46800       -3.90320       -2.30290
C          1.09730       -2.99510       -1.33290
C          0.18090       -0.06430       -1.35910
S          0.64380       -0.54560       -2.95640
C         -0.27290        0.03740        2.31060
C          0.00400       -1.16670        2.99510
C          0.06120       -1.23320        4.43880
N          0.30770       -2.47030        4.86470
S          0.40950       -3.45410        3.59960
N          0.18530       -2.36530        2.43790
C         -0.10010       -0.09880        5.26890
C         -0.53040        1.06450        4.58970
N         -0.93650        2.20420        5.14610
S         -1.37500        3.23320        3.99660
N         -1.10570        2.28780        2.72320
C         -0.64970        1.11070        3.14990
C          0.05280       -0.20060        6.66860
C          0.40780        0.82250        7.50790
C          1.16050        2.02150        7.09680
O          1.58500        2.29780        5.98740
C          1.47140        2.75040        8.34160
C          2.16570        3.95270        8.45850
C          2.32270        4.38620        9.75320
C          1.84060        3.66790       10.85470
C          1.16470        2.47490       10.75530
C          0.98290        2.02330        9.44520
C          0.30810        0.82600        8.94860
C         -0.38390       -0.08110        9.71100
C         -0.47720       -0.03790       11.11620
N         -0.58890       -0.06560       12.25930
C         -1.13030       -1.16200        9.19690
N         -1.78620       -2.04500        8.86640
C          2.34870        4.68700       11.84430
C          1.29800        5.64340       12.44690
C          2.11990        6.79630       12.97620
C          2.57570        7.47880       11.93350
C          2.06910        6.79880       10.68200
C          0.71140        6.29380       11.18730
C          2.88450        5.48990       10.61570
H          0.20580       -0.19460       -9.13400
H         -0.76590       -5.60110       -6.13800
H          0.47210       -5.30240      -11.03670
H          0.48810       -8.57730       -9.97900
H         -1.54780       -8.68790      -11.40720
H         -3.00760       -6.60950      -10.78770
H         -3.67880       -6.79840       -8.22480
H         -2.63360       -8.99570       -7.26490
H         -3.14550       -9.92070       -9.69180
H         -1.46320      -10.33910       -9.28260
H         -0.16390       -8.76570       -7.48920
H         -0.55640        2.05610       -8.08500
H         -0.93160        2.90780       -5.56430
H         -0.08760        3.84690       -1.85140
H         -0.26820        5.33170        0.11570
H         -4.02990        4.49580        2.65140
H         -3.89060        5.98870        3.60950
H         -4.78060        6.02010        2.07440
H         -4.47610        4.58590        0.27030
H         -4.29050        3.11200       -1.66830
H         -3.15520        4.51860       -3.98710
H         -4.72440        4.52240       -5.88570
H         -6.48000        0.21300       -7.32750
H         -5.01460        0.42820       -8.34040
H         -6.61390        0.88880       -8.96480
H         -4.52830        0.25250       -6.04170
H         -3.00090        0.24860       -4.15750
H          2.19800        1.12710        1.33740
H          3.31370        1.50140        3.45900
H          3.56750        1.75430        5.68940
H          5.18560        1.82810        4.91250
H          5.03890        1.46270        6.64680
H          4.07080       -2.69560        3.80400
H          2.90090       -3.07650        1.66730
H          4.14980       -1.78380       -0.51240
H          4.81050       -3.41610       -2.23970
H          2.19230       -5.88420       -5.80690
H          1.34130       -4.52100       -5.03700
H          1.24170       -6.17150       -4.33490
H          0.70640       -4.49730       -2.77930
H          0.06000       -2.89780       -1.05070
H         -0.09790       -1.19400        7.07270
H          2.52770        4.47210        7.58450
H          0.81030        1.92710       11.61250
H          3.06300        4.32150       12.57970
H          0.60350        5.17750       13.14050
H          2.32480        6.95860       14.01810
H          3.23760        8.32500       11.93080
H          2.07660        7.38750        9.76850
H          0.21990        5.59370       10.51430
H          0.03090        7.11010       11.42450
H          3.95650        5.66020       10.53270
