253

C          6.67200        6.85500        0.65780
C          7.99660        6.48690        0.78330
C          8.43670        5.17540        1.27290
O          7.73560        4.23020        1.59970
C          9.90230        5.26740        1.41840
C         10.77170        4.26180        1.82990
C         12.09640        4.63080        1.82500
C         12.52440        5.91030        1.45240
C         11.67490        6.91610        1.05320
C         10.32620        6.55660        1.04170
C          9.15240        7.32390        0.63100
C          9.16810        8.56820        0.04890
C          8.03400        9.18800       -0.50980
N          7.17180        9.73460       -1.03840
C         10.32070        9.35180       -0.14460
N         11.21080       10.05020       -0.34580
C         13.97980        5.57320        1.66360
C         14.81230        5.30350        0.39230
C         16.01670        4.54580        0.90230
C         15.61150        3.33160        1.25150
C         14.12600        3.24830        0.98360
C         14.02980        4.15230       -0.25200
C         13.50230        4.14350        2.07550
C          5.60770        5.97000        0.48270
C          5.57100        4.65990       -0.04780
N          6.53070        4.08590       -0.81890
C          6.55510        2.68950       -1.03360
C          6.67810        2.20250       -2.33390
C          6.74670        0.84590       -2.55630
C          6.70900       -0.04650       -1.48470
S          6.82750       -1.75870       -1.88110
C          6.58740       -2.59230       -0.28640
C          6.60380        0.44160       -0.18940
C          6.51970        1.80170        0.03270
C          7.55250        4.82150       -1.44230
C          7.28960        6.01650       -2.10680
C          8.31470        6.75270       -2.66360
C          9.62960        6.30780       -2.56070
S         11.02840        7.20690       -3.13220
C         10.33400        8.75050       -3.78300
C          9.88610        5.07710       -1.95780
C          8.86180        4.33840       -1.40960
C          4.30630        4.06840        0.19970
S          3.62730        2.49480       -0.04860
C          2.10140        3.01770        0.63400
C          2.11090        4.34220        0.99910
N          0.98230        5.04500        1.46730
C          0.79550        5.21680        2.84030
C         -0.48380        5.40720        3.35960
C         -0.68700        5.54310        4.71810
C          0.38790        5.47500        5.59230
S          0.24520        5.59860        7.34770
C         -1.46220        6.15680        7.60850
C          1.66750        5.28460        5.08250
C          1.87170        5.16360        3.72510
C          0.26200        5.77930        0.51700
C          0.08350        5.28090       -0.77470
C         -0.61590        6.00520       -1.71530
C         -1.15620        7.24650       -1.39320
S         -2.06730        8.08650       -2.65850
C         -2.13330        9.80160       -2.07050
C         -0.97170        7.75540       -0.11530
C         -0.26010        7.03510        0.82290
C          3.37520        4.92920        0.76380
S          4.01190        6.50500        1.03710
C          0.99470        2.09580        0.75550
C          0.54530        1.49750        1.91070
N          1.16070        1.66460        3.14870
C          0.38080        1.88950        4.28100
C         -0.91200        2.39870        4.14740
C         -1.70120        2.60670        5.25560
C         -1.21580        2.33620        6.53010
S         -2.30800        2.64460        7.88760
C         -1.19210        2.69280        9.31860
C          0.06660        1.82810        6.67250
C          0.85090        1.59920        5.56000
C          2.54050        1.40090        3.20940
C          3.06120        0.30840        2.51540
C          4.40710        0.02590        2.56890
C          5.27370        0.83910        3.29500
S          6.97620        0.36510        3.33140
C          7.84040        1.84620        3.92260
C          4.76200        1.93270        3.97990
C          3.40710        2.20120        3.94640
C         -0.56360        0.65260        1.64830
S         -1.50200       -0.43750        2.60550
C         -2.42250       -0.90870        1.18760
C         -1.99030       -0.28310        0.03060
N         -2.46000       -0.52980       -1.25010
C         -2.54550        0.54090       -2.14980
C         -2.89760        1.81240       -1.70180
C         -2.95170        2.88140       -2.57460
C         -2.67650        2.69040       -3.92140
S         -2.72040        3.98660       -5.12040
C         -3.75750        5.25140       -4.33250
C         -2.32870        1.41950       -4.37580
C         -2.25710        0.35790       -3.50250
C         -2.81970       -1.82930       -1.63360
C         -2.08710       -2.92830       -1.18060
C         -2.50180       -4.20860       -1.46670
C         -3.64360       -4.42640       -2.23540
S         -4.10920       -6.11120       -2.47900
C         -5.51410       -6.03050       -3.62490
C         -4.33900       -3.33770       -2.74100
C         -3.93510       -2.05220       -2.43570
C         -0.93220        0.61650        0.31530
S          0.08670        1.60790       -0.66490
C         -3.41100       -1.94700        1.24320
C         -4.61810       -1.95990        0.61500
C         -5.24090       -3.23400        0.60490
C         -6.41880       -3.60830       -0.06230
C         -7.29500       -2.59310       -0.66360
C         -7.64970       -1.46930        0.07600
C         -8.47870       -0.51090       -0.48000
C         -8.95090       -0.65500       -1.76730
C         -8.60970       -1.78150       -2.51990
O         -9.10850       -1.80510       -3.78400
C         -8.88170       -2.91910       -4.62400
C         -9.79770       -4.09710       -4.31140
C         -7.78880       -2.74900       -1.95590
C         -6.70160       -4.96680       -0.10550
C         -5.88330       -5.94080        0.52740
C         -4.72500       -5.55930        1.23400
C         -3.83600       -6.55020        1.85140
C         -3.44030       -6.41740        3.18160
C         -2.60240       -7.36040        3.74070
C         -2.14140       -8.43720        3.00040
C         -2.52220       -8.57140        1.66830
O         -2.13480       -9.57390        0.84090
C         -1.32310      -10.61410        1.34920
C         -1.11250      -11.62050        0.22900
C         -3.36900       -7.61910        1.10180
C         -4.44320       -4.20840        1.25830
S         -3.00890       -3.50010        1.95310
C         -6.39760       -7.23610        0.36050
C         -7.55070       -7.29570       -0.39700
S         -8.06110       -5.69980       -0.91620
C         -8.18100       -8.52500       -0.68330
C         -9.27730       -8.80970       -1.44560
C        -10.09070       -7.84060       -2.20230
O         -9.94870       -6.63250       -2.25880
C        -11.11770       -8.62890       -2.89230
C        -12.11880       -8.18300       -3.73930
C        -12.99140       -9.11080       -4.28700
O        -14.00940       -8.82180       -5.12540
C        -14.22430       -7.47600       -5.48220
C        -12.84360      -10.49260       -3.97080
O        -13.74510      -11.30690       -4.55640
C        -13.67920      -12.69230       -4.30000
C        -11.83350      -10.92030       -3.12050
C        -10.96220       -9.98440       -2.57620
C         -9.82980      -10.13560       -1.67300
C         -9.39070      -11.32340       -1.14460
C         -8.30450      -11.49370       -0.26170
N         -7.44150      -11.73350        0.45830
C         -9.98700      -12.57110       -1.41980
N        -10.42800      -13.61520       -1.60690
H          6.40960        7.90140        0.75940
H         10.40360        3.28570        2.10610
H         12.01650        7.89830        0.77210
H         14.50770        6.17750        2.39880
H         15.00580        6.18020       -0.21930
H         16.99620        4.97470        1.00550
H         16.18440        2.54390        1.70490
H         13.69750        2.25190        0.91070
H         14.54790        3.73220       -1.11240
H         13.01140        4.41490       -0.53220
H         13.71380        3.79430        3.08480
H          6.71670        2.89380       -3.16270
H          6.83430        0.45990       -3.56010
H          6.61900       -3.65510       -0.50540
H          7.38840       -2.33350        0.39970
H          5.61600       -2.32850        0.12090
H          6.61240       -0.21850        0.66030
H          6.46510        2.18830        1.03720
H          6.27600        6.38020       -2.18290
H          8.07590        7.67600       -3.16530
H         11.18980        9.34380       -4.08960
H          9.78850        9.27570       -3.00460
H          9.70110        8.54170       -4.64050
H         10.90290        4.71850       -1.91260
H          9.06840        3.39140       -0.93480
H         -1.33060        5.44040        2.69040
H         -1.69140        5.68400        5.08260
H         -1.64290        7.05690        7.02870
H         -2.15850        5.36480        7.34750
H         -1.53970        6.37810        8.66860
H          2.50310        5.24730        5.76590
H          2.87380        5.04080        3.34480
H          0.49460        4.32230       -1.04990
H         -0.74270        5.61080       -2.71200
H         -2.81160        9.88650       -1.22600
H         -2.51310       10.38320       -2.90480
H         -1.13330       10.13440       -1.80930
H         -1.36760        8.71940        0.16210
H         -0.09980        7.45690        1.80360
H         -1.29580        2.64630        3.17000
H         -2.70410        2.98980        5.14250
H         -0.36230        3.36000        9.10360
H         -0.84570        1.69160        9.55880
H         -1.78310        3.08260       10.14160
H          0.46600        1.59290        7.64570
H          1.83510        1.17580        5.68920
H          2.40010       -0.32840        1.94650
H          4.79590       -0.84230        2.06050
H          7.62670        2.68680        3.26740
H          8.89670        1.59840        3.87490
H          7.56520        2.05800        4.95180
H          5.40790        2.58150        4.54960
H          3.01120        3.03500        4.50250
H         -3.13260        1.96610       -0.65850
H         -3.20810        3.85680       -2.19310
H         -3.99810        5.96290       -5.11590
H         -4.66500        4.78930       -3.95600
H         -3.21220        5.75910       -3.54250
H         -2.10690        1.27990       -5.42250
H         -1.97620       -0.62170       -3.85910
H         -1.19900       -2.77090       -0.58690
H         -1.94980       -5.05750       -1.09270
H         -5.75360       -7.06220       -3.86420
H         -6.36790       -5.56490       -3.14140
H         -5.22580       -5.50020       -4.52780
H         -5.21190       -3.47200       -3.35760
H         -4.50440       -1.21240       -2.80610
H         -5.03380       -1.09490        0.13050
H         -7.29890       -1.36360        1.09140
H         -8.75900        0.35730        0.09810
H         -9.59060        0.08720       -2.21780
H         -7.82750       -3.22210       -4.59190
H         -9.09440       -2.54110       -5.62910
H        -10.83460       -3.77380       -4.36130
H         -9.61190       -4.50130       -3.32010
H         -9.63820       -4.88510       -5.04310
H         -7.51210       -3.62810       -2.51310
H         -3.80650       -5.59250        3.77330
H         -2.29990       -7.26310        4.77290
H         -1.48770       -9.15670        3.46750
H         -1.81890      -11.09670        2.20280
H         -0.35730      -10.21010        1.68500
H         -0.49220      -12.44070        0.57920
H         -0.62730      -11.13890       -0.61550
H         -2.07120      -12.01180       -0.09980
H         -3.62950       -7.71730        0.05920
H         -5.94230       -8.11320        0.78480
H         -7.68010       -9.36370       -0.21460
H        -12.19340       -7.12830       -3.94890
H        -14.44990       -6.86030       -4.60610
H        -13.36040       -7.05790       -6.00810
H        -15.08420       -7.48470       -6.14930
H        -12.72940      -13.11880       -4.63580
H        -13.81880      -12.91190       -3.23750
H        -14.49510      -13.13170       -4.87070
H        -11.73020      -11.96540       -2.88860
