
  xtb     02052208113D
 energy: -377.013227281525 gnorm: 0.000597817948 xtb: 6.4.1 (unknown)
232254  0     0  0            999 V2000
   -7.0865    3.2397   -1.8064 C   0  0  0  0  0  0  0  0  0  0  0  0
   -8.3335    2.7608   -2.1084 C   0  0  0  0  0  0  0  0  0  0  0  0
   -9.4787    3.6722   -1.8843 C   0  0  0  0  0  0  0  0  0  0  0  0
   -9.4594    4.8867   -1.8759 O   0  0  0  0  0  0  0  0  0  0  0  0
  -10.6194    2.7847   -1.5824 C   0  0  0  0  0  0  0  0  0  0  0  0
  -11.8888    3.1574   -1.1492 C   0  0  0  0  0  0  0  0  0  0  0  0
  -12.7314    2.0985   -0.9051 C   0  0  0  0  0  0  0  0  0  0  0  0
  -12.3424    0.7632   -1.0716 C   0  0  0  0  0  0  0  0  0  0  0  0
  -11.0940    0.3789   -1.5028 C   0  0  0  0  0  0  0  0  0  0  0  0
  -10.2257    1.4402   -1.7595 C   0  0  0  0  0  0  0  0  0  0  0  0
   -8.8556    1.4293   -2.2689 C   0  0  0  0  0  0  0  0  0  0  0  0
   -8.2793    0.4119   -2.9925 C   0  0  0  0  0  0  0  0  0  0  0  0
   -8.7473   -0.9123   -3.0160 C   0  0  0  0  0  0  0  0  0  0  0  0
   -9.0381   -2.0248   -3.0162 N   0  0  0  0  0  0  0  0  0  0  0  0
   -7.1997    0.6264   -3.8750 C   0  0  0  0  0  0  0  0  0  0  0  0
   -6.4003    0.7716   -4.6876 N   0  0  0  0  0  0  0  0  0  0  0  0
  -13.6871    0.2339   -0.6406 C   0  0  0  0  0  0  0  0  0  0  0  0
  -14.6482   -0.2748   -1.7430 C   0  0  0  0  0  0  0  0  0  0  0  0
  -14.2825    0.4663   -3.0052 C   0  0  0  0  0  0  0  0  0  0  0  0
  -14.6523    1.7309   -2.8534 C   0  0  0  0  0  0  0  0  0  0  0  0
  -15.2744    1.8678   -1.4858 C   0  0  0  0  0  0  0  0  0  0  0  0
  -15.9249    0.4824   -1.3444 C   0  0  0  0  0  0  0  0  0  0  0  0
  -14.1227    1.7223   -0.4604 C   0  0  0  0  0  0  0  0  0  0  0  0
   -5.9336    2.5719   -1.3749 C   0  0  0  0  0  0  0  0  0  0  0  0
   -4.8140    3.1677   -0.7544 C   0  0  0  0  0  0  0  0  0  0  0  0
   -4.7351    4.4938   -0.4004 N   0  0  0  0  0  0  0  0  0  0  0  0
   -5.8948    5.1451    0.0782 C   0  0  0  0  0  0  0  0  0  0  0  0
   -6.2429    6.4050   -0.3969 C   0  0  0  0  0  0  0  0  0  0  0  0
   -7.4516    6.9685   -0.0395 C   0  0  0  0  0  0  0  0  0  0  0  0
   -8.3204    6.2816    0.7995 C   0  0  0  0  0  0  0  0  0  0  0  0
   -9.9168    6.9021    1.2212 S   0  0  0  0  0  0  0  0  0  0  0  0
  -10.4068    7.7108   -0.3319 C   0  0  0  0  0  0  0  0  0  0  0  0
   -7.9334    5.0605    1.3433 C   0  0  0  0  0  0  0  0  0  0  0  0
   -6.7297    4.4955    0.9861 C   0  0  0  0  0  0  0  0  0  0  0  0
   -3.4823    5.1043   -0.2841 C   0  0  0  0  0  0  0  0  0  0  0  0
   -3.2169    5.9737    0.7729 C   0  0  0  0  0  0  0  0  0  0  0  0
   -1.9487    6.4914    0.9340 C   0  0  0  0  0  0  0  0  0  0  0  0
   -0.9414    6.1436    0.0470 C   0  0  0  0  0  0  0  0  0  0  0  0
    0.7284    6.6858    0.3678 S   0  0  0  0  0  0  0  0  0  0  0  0
    1.1613    5.3820    1.5620 C   0  0  0  0  0  0  0  0  0  0  0  0
   -1.2120    5.3385   -1.0468 C   0  0  0  0  0  0  0  0  0  0  0  0
   -2.4822    4.8257   -1.2161 C   0  0  0  0  0  0  0  0  0  0  0  0
   -3.8236    2.2076   -0.4658 C   0  0  0  0  0  0  0  0  0  0  0  0
   -2.2248    2.2240    0.2058 S   0  0  0  0  0  0  0  0  0  0  0  0
   -2.0494    0.4872   -0.0504 C   0  0  0  0  0  0  0  0  0  0  0  0
   -3.1975   -0.0690   -0.5807 C   0  0  0  0  0  0  0  0  0  0  0  0
   -3.3478   -1.3873   -1.0799 N   0  0  0  0  0  0  0  0  0  0  0  0
   -4.4506   -2.1136   -0.6179 C   0  0  0  0  0  0  0  0  0  0  0  0
   -4.7300   -3.3631   -1.1761 C   0  0  0  0  0  0  0  0  0  0  0  0
   -5.8383   -4.0797   -0.7819 C   0  0  0  0  0  0  0  0  0  0  0  0
   -6.6949   -3.5628    0.1805 C   0  0  0  0  0  0  0  0  0  0  0  0
   -8.1665   -4.4253    0.6774 S   0  0  0  0  0  0  0  0  0  0  0  0
   -8.8802   -4.8469   -0.9410 C   0  0  0  0  0  0  0  0  0  0  0  0
   -6.3817   -2.3629    0.7998 C   0  0  0  0  0  0  0  0  0  0  0  0
   -5.2651   -1.6511    0.4150 C   0  0  0  0  0  0  0  0  0  0  0  0
   -3.1012   -1.3698   -2.4880 C   0  0  0  0  0  0  0  0  0  0  0  0
   -1.8215   -1.0789   -2.9530 C   0  0  0  0  0  0  0  0  0  0  0  0
   -1.5820   -0.9502   -4.3050 C   0  0  0  0  0  0  0  0  0  0  0  0
   -2.6188   -1.0961   -5.2222 C   0  0  0  0  0  0  0  0  0  0  0  0
   -2.2298   -0.8751   -6.9291 S   0  0  0  0  0  0  0  0  0  0  0  0
   -3.8554   -0.5780   -7.6820 C   0  0  0  0  0  0  0  0  0  0  0  0
   -3.8949   -1.3936   -4.7642 C   0  0  0  0  0  0  0  0  0  0  0  0
   -4.1317   -1.5172   -3.4106 C   0  0  0  0  0  0  0  0  0  0  0  0
   -4.1852    0.9108   -0.7997 C   0  0  0  0  0  0  0  0  0  0  0  0
   -5.7733    0.8194   -1.4474 S   0  0  0  0  0  0  0  0  0  0  0  0
   -0.7523   -0.0598    0.1497 C   0  0  0  0  0  0  0  0  0  0  0  0
   -0.3025   -1.3641    0.3406 C   0  0  0  0  0  0  0  0  0  0  0  0
   -1.0546   -2.4913    0.6056 N   0  0  0  0  0  0  0  0  0  0  0  0
   -0.5112   -3.7201    0.1650 C   0  0  0  0  0  0  0  0  0  0  0  0
   -0.2450   -4.7526    1.0644 C   0  0  0  0  0  0  0  0  0  0  0  0
    0.2847   -5.9406    0.6161 C   0  0  0  0  0  0  0  0  0  0  0  0
    0.5682   -6.1243   -0.7371 C   0  0  0  0  0  0  0  0  0  0  0  0
    1.2283   -7.6965   -1.1890 S   0  0  0  0  0  0  0  0  0  0  0  0
    1.5174   -7.5576   -2.9756 C   0  0  0  0  0  0  0  0  0  0  0  0
    0.3163   -5.0945   -1.6324 C   0  0  0  0  0  0  0  0  0  0  0  0
   -0.2213   -3.9033   -1.1817 C   0  0  0  0  0  0  0  0  0  0  0  0
   -2.1290   -2.5163    1.4981 C   0  0  0  0  0  0  0  0  0  0  0  0
   -2.3611   -1.4867    2.4100 C   0  0  0  0  0  0  0  0  0  0  0  0
   -3.4166   -1.5618    3.2921 C   0  0  0  0  0  0  0  0  0  0  0  0
   -4.2602   -2.6700    3.3044 C   0  0  0  0  0  0  0  0  0  0  0  0
   -5.5885   -2.6444    4.4634 S   0  0  0  0  0  0  0  0  0  0  0  0
   -6.4662   -4.2043    4.1722 C   0  0  0  0  0  0  0  0  0  0  0  0
   -4.0224   -3.7080    2.4143 C   0  0  0  0  0  0  0  0  0  0  0  0
   -2.9799   -3.6220    1.5157 C   0  0  0  0  0  0  0  0  0  0  0  0
    1.1156   -1.4160    0.2692 C   0  0  0  0  0  0  0  0  0  0  0  0
    2.2844   -2.6759    0.4698 S   0  0  0  0  0  0  0  0  0  0  0  0
    3.6005   -1.5396    0.2240 C   0  0  0  0  0  0  0  0  0  0  0  0
    3.1437   -0.2309    0.0947 C   0  0  0  0  0  0  0  0  0  0  0  0
    3.9062    0.9271    0.0060 N   0  0  0  0  0  0  0  0  0  0  0  0
    3.4184    1.9488   -0.8251 C   0  0  0  0  0  0  0  0  0  0  0  0
    3.4536    3.2854   -0.4365 C   0  0  0  0  0  0  0  0  0  0  0  0
    2.9552    4.2741   -1.2619 C   0  0  0  0  0  0  0  0  0  0  0  0
    2.3948    3.9406   -2.4880 C   0  0  0  0  0  0  0  0  0  0  0  0
    1.6935    5.1182   -3.6015 S   0  0  0  0  0  0  0  0  0  0  0  0
    2.3271    6.7106   -3.0032 C   0  0  0  0  0  0  0  0  0  0  0  0
    2.3508    2.6046   -2.8803 C   0  0  0  0  0  0  0  0  0  0  0  0
    2.8643    1.6221   -2.0648 C   0  0  0  0  0  0  0  0  0  0  0  0
    5.0052    1.1530    0.8452 C   0  0  0  0  0  0  0  0  0  0  0  0
    6.0393    1.9956    0.4315 C   0  0  0  0  0  0  0  0  0  0  0  0
    7.1204    2.2288    1.2502 C   0  0  0  0  0  0  0  0  0  0  0  0
    7.2059    1.6147    2.4952 C   0  0  0  0  0  0  0  0  0  0  0  0
    8.6077    1.9988    3.4950 S   0  0  0  0  0  0  0  0  0  0  0  0
    8.7385    0.5462    4.5769 C   0  0  0  0  0  0  0  0  0  0  0  0
    6.1880    0.7686    2.9087 C   0  0  0  0  0  0  0  0  0  0  0  0
    5.0992    0.5409    2.0914 C   0  0  0  0  0  0  0  0  0  0  0  0
    1.7295   -0.1883    0.0993 C   0  0  0  0  0  0  0  0  0  0  0  0
    0.5774    1.0948    0.0031 S   0  0  0  0  0  0  0  0  0  0  0  0
    4.9491   -2.0301    0.1546 C   0  0  0  0  0  0  0  0  0  0  0  0
    5.2591   -3.3146    0.6593 C   0  0  0  0  0  0  0  0  0  0  0  0
    4.2151   -4.0354    1.1625 O   0  0  0  0  0  0  0  0  0  0  0  0
    4.0989   -5.4211    0.8530 C   0  0  0  0  0  0  0  0  0  0  0  0
    4.1755   -5.6943   -0.6407 C   0  0  0  0  0  0  0  0  0  0  0  0
    6.5806   -3.7510    0.6800 C   0  0  0  0  0  0  0  0  0  0  0  0
    6.9055   -4.9830    1.2111 O   0  0  0  0  0  0  0  0  0  0  0  0
    7.3824   -4.9449    2.5481 C   0  0  0  0  0  0  0  0  0  0  0  0
    7.8864   -6.3314    2.9083 C   0  0  0  0  0  0  0  0  0  0  0  0
    7.6123   -2.9286    0.1907 C   0  0  0  0  0  0  0  0  0  0  0  0
    7.2764   -1.7123   -0.4083 C   0  0  0  0  0  0  0  0  0  0  0  0
    5.9752   -1.2830   -0.4377 C   0  0  0  0  0  0  0  0  0  0  0  0
    8.9745   -3.3935    0.2709 C   0  0  0  0  0  0  0  0  0  0  0  0
   10.0342   -2.6199    0.6157 C   0  0  0  0  0  0  0  0  0  0  0  0
    9.9164   -1.2862    1.2648 C   0  0  0  0  0  0  0  0  0  0  0  0
    8.8989   -0.6858    1.5430 O   0  0  0  0  0  0  0  0  0  0  0  0
   11.2858   -0.9001    1.6408 C   0  0  0  0  0  0  0  0  0  0  0  0
   11.6687    0.2757    2.2835 C   0  0  0  0  0  0  0  0  0  0  0  0
   13.0131    0.3494    2.5539 C   0  0  0  0  0  0  0  0  0  0  0  0
   13.9131   -0.6697    2.2113 C   0  0  0  0  0  0  0  0  0  0  0  0
   13.5498   -1.8288    1.5684 C   0  0  0  0  0  0  0  0  0  0  0  0
   12.1838   -1.9275    1.2837 C   0  0  0  0  0  0  0  0  0  0  0  0
   11.4375   -2.9989    0.6322 C   0  0  0  0  0  0  0  0  0  0  0  0
   11.9736   -4.1378    0.0919 C   0  0  0  0  0  0  0  0  0  0  0  0
   11.2399   -5.1429   -0.5735 C   0  0  0  0  0  0  0  0  0  0  0  0
   10.7212   -6.0018   -1.1321 N   0  0  0  0  0  0  0  0  0  0  0  0
   13.3451   -4.4670    0.1162 C   0  0  0  0  0  0  0  0  0  0  0  0
   14.4433   -4.8017    0.1032 N   0  0  0  0  0  0  0  0  0  0  0  0
   15.0890    0.0593    2.8115 C   0  0  0  0  0  0  0  0  0  0  0  0
   15.6014   -0.4193    4.1929 C   0  0  0  0  0  0  0  0  0  0  0  0
   14.4255   -1.0569    4.8903 C   0  0  0  0  0  0  0  0  0  0  0  0
   13.5739   -0.0921    5.2114 C   0  0  0  0  0  0  0  0  0  0  0  0
   14.1582    1.2155    4.7371 C   0  0  0  0  0  0  0  0  0  0  0  0
   15.6555    0.9279    4.9313 C   0  0  0  0  0  0  0  0  0  0  0  0
   14.0866    1.1951    3.1898 C   0  0  0  0  0  0  0  0  0  0  0  0
   -7.0440    4.3217   -1.7599 H   0  0  0  0  0  0  0  0  0  0  0  0
  -12.1519    4.1963   -1.0255 H   0  0  0  0  0  0  0  0  0  0  0  0
  -10.7962   -0.6507   -1.6192 H   0  0  0  0  0  0  0  0  0  0  0  0
  -13.6873   -0.4070    0.2389 H   0  0  0  0  0  0  0  0  0  0  0  0
  -14.7114   -1.3568   -1.8231 H   0  0  0  0  0  0  0  0  0  0  0  0
  -13.7561    0.0216   -3.8294 H   0  0  0  0  0  0  0  0  0  0  0  0
  -14.4968    2.5541   -3.5261 H   0  0  0  0  0  0  0  0  0  0  0  0
  -15.9090    2.7367   -1.3317 H   0  0  0  0  0  0  0  0  0  0  0  0
  -16.7432    0.3275   -2.0460 H   0  0  0  0  0  0  0  0  0  0  0  0
  -16.2615    0.2625   -0.3321 H   0  0  0  0  0  0  0  0  0  0  0  0
  -14.4107    2.0524    0.5359 H   0  0  0  0  0  0  0  0  0  0  0  0
   -5.5775    6.9224   -1.0723 H   0  0  0  0  0  0  0  0  0  0  0  0
   -7.7217    7.9339   -0.4359 H   0  0  0  0  0  0  0  0  0  0  0  0
  -11.4839    7.8340   -0.2793 H   0  0  0  0  0  0  0  0  0  0  0  0
   -9.9321    8.6832   -0.4243 H   0  0  0  0  0  0  0  0  0  0  0  0
  -10.1384    7.0537   -1.1536 H   0  0  0  0  0  0  0  0  0  0  0  0
   -8.5956    4.5529    2.0275 H   0  0  0  0  0  0  0  0  0  0  0  0
   -6.4425    3.5319    1.3807 H   0  0  0  0  0  0  0  0  0  0  0  0
   -3.9991    6.2149    1.4771 H   0  0  0  0  0  0  0  0  0  0  0  0
   -1.7305    7.1482    1.7627 H   0  0  0  0  0  0  0  0  0  0  0  0
    1.0870    4.4135    1.0745 H   0  0  0  0  0  0  0  0  0  0  0  0
    0.4875    5.4378    2.4120 H   0  0  0  0  0  0  0  0  0  0  0  0
    2.1816    5.5709    1.8784 H   0  0  0  0  0  0  0  0  0  0  0  0
   -0.4332    5.1028   -1.7551 H   0  0  0  0  0  0  0  0  0  0  0  0
   -2.7018    4.1979   -2.0666 H   0  0  0  0  0  0  0  0  0  0  0  0
   -4.0700   -3.7657   -1.9301 H   0  0  0  0  0  0  0  0  0  0  0  0
   -6.0389   -5.0403   -1.2311 H   0  0  0  0  0  0  0  0  0  0  0  0
   -8.3352   -5.6726   -1.3887 H   0  0  0  0  0  0  0  0  0  0  0  0
   -8.8546   -3.9693   -1.5807 H   0  0  0  0  0  0  0  0  0  0  0  0
   -9.9062   -5.1445   -0.7495 H   0  0  0  0  0  0  0  0  0  0  0  0
   -7.0237   -1.9800    1.5784 H   0  0  0  0  0  0  0  0  0  0  0  0
   -5.0292   -0.7345    0.9321 H   0  0  0  0  0  0  0  0  0  0  0  0
   -1.0191   -0.9170   -2.2504 H   0  0  0  0  0  0  0  0  0  0  0  0
   -0.5911   -0.7148   -4.6625 H   0  0  0  0  0  0  0  0  0  0  0  0
   -4.4089   -1.5093   -7.7632 H   0  0  0  0  0  0  0  0  0  0  0  0
   -4.3989    0.1524   -7.0903 H   0  0  0  0  0  0  0  0  0  0  0  0
   -3.6541   -0.1837   -8.6732 H   0  0  0  0  0  0  0  0  0  0  0  0
   -4.7233   -1.5043   -5.4436 H   0  0  0  0  0  0  0  0  0  0  0  0
   -5.1381   -1.7123   -3.0713 H   0  0  0  0  0  0  0  0  0  0  0  0
   -0.4549   -4.6128    2.1140 H   0  0  0  0  0  0  0  0  0  0  0  0
    0.4885   -6.7441    1.3076 H   0  0  0  0  0  0  0  0  0  0  0  0
    0.5764   -7.3984   -3.4939 H   0  0  0  0  0  0  0  0  0  0  0  0
    1.9454   -8.5088   -3.2763 H   0  0  0  0  0  0  0  0  0  0  0  0
    2.2226   -6.7566   -3.1767 H   0  0  0  0  0  0  0  0  0  0  0  0
    0.5230   -5.2048   -2.6847 H   0  0  0  0  0  0  0  0  0  0  0  0
   -0.4283   -3.1120   -1.8858 H   0  0  0  0  0  0  0  0  0  0  0  0
   -1.7044   -0.6315    2.4453 H   0  0  0  0  0  0  0  0  0  0  0  0
   -3.5941   -0.7600    3.9930 H   0  0  0  0  0  0  0  0  0  0  0  0
   -5.8067   -5.0430    4.3749 H   0  0  0  0  0  0  0  0  0  0  0  0
   -7.2923   -4.2074    4.8766 H   0  0  0  0  0  0  0  0  0  0  0  0
   -6.8506   -4.2365    3.1565 H   0  0  0  0  0  0  0  0  0  0  0  0
   -4.6532   -4.5811    2.3935 H   0  0  0  0  0  0  0  0  0  0  0  0
   -2.8267   -4.4275    0.8147 H   0  0  0  0  0  0  0  0  0  0  0  0
    3.8676    3.5505    0.5251 H   0  0  0  0  0  0  0  0  0  0  0  0
    2.9888    5.2990   -0.9302 H   0  0  0  0  0  0  0  0  0  0  0  0
    2.0464    7.4374   -3.7591 H   0  0  0  0  0  0  0  0  0  0  0  0
    3.4085    6.6601   -2.9201 H   0  0  0  0  0  0  0  0  0  0  0  0
    1.8671    6.9704   -2.0535 H   0  0  0  0  0  0  0  0  0  0  0  0
    1.9167    2.3507   -3.8351 H   0  0  0  0  0  0  0  0  0  0  0  0
    2.8420    0.5898   -2.3829 H   0  0  0  0  0  0  0  0  0  0  0  0
    5.9940    2.4594   -0.5430 H   0  0  0  0  0  0  0  0  0  0  0  0
    7.9178    2.8800    0.9267 H   0  0  0  0  0  0  0  0  0  0  0  0
    9.7268    0.5880    5.0245 H   0  0  0  0  0  0  0  0  0  0  0  0
    8.6382   -0.3435    3.9629 H   0  0  0  0  0  0  0  0  0  0  0  0
    7.9819    0.5811    5.3556 H   0  0  0  0  0  0  0  0  0  0  0  0
    6.2249    0.2863    3.8724 H   0  0  0  0  0  0  0  0  0  0  0  0
    4.3087   -0.1113    2.4315 H   0  0  0  0  0  0  0  0  0  0  0  0
    4.8632   -5.9975    1.3808 H   0  0  0  0  0  0  0  0  0  0  0  0
    3.1106   -5.6847    1.2390 H   0  0  0  0  0  0  0  0  0  0  0  0
    3.4440   -5.0826   -1.1657 H   0  0  0  0  0  0  0  0  0  0  0  0
    5.1692   -5.4663   -1.0198 H   0  0  0  0  0  0  0  0  0  0  0  0
    3.9627   -6.7434   -0.8221 H   0  0  0  0  0  0  0  0  0  0  0  0
    8.1927   -4.2060    2.6335 H   0  0  0  0  0  0  0  0  0  0  0  0
    6.5684   -4.6385    3.2223 H   0  0  0  0  0  0  0  0  0  0  0  0
    7.0777   -7.0538    2.8372 H   0  0  0  0  0  0  0  0  0  0  0  0
    8.2752   -6.3304    3.9226 H   0  0  0  0  0  0  0  0  0  0  0  0
    8.6748   -6.6292    2.2220 H   0  0  0  0  0  0  0  0  0  0  0  0
    8.0491   -1.1217   -0.8734 H   0  0  0  0  0  0  0  0  0  0  0  0
    5.7354   -0.3679   -0.9502 H   0  0  0  0  0  0  0  0  0  0  0  0
    9.1175   -4.4498    0.0776 H   0  0  0  0  0  0  0  0  0  0  0  0
   10.9446    1.0382    2.5261 H   0  0  0  0  0  0  0  0  0  0  0  0
   14.2537   -2.6030    1.3124 H   0  0  0  0  0  0  0  0  0  0  0  0
   15.9012    0.3004    2.1289 H   0  0  0  0  0  0  0  0  0  0  0  0
   16.5140   -1.0081    4.1563 H   0  0  0  0  0  0  0  0  0  0  0  0
   14.3111   -2.1169    5.0235 H   0  0  0  0  0  0  0  0  0  0  0  0
   12.6057   -0.1861    5.6681 H   0  0  0  0  0  0  0  0  0  0  0  0
   13.7561    2.1151    5.1954 H   0  0  0  0  0  0  0  0  0  0  0  0
   16.3036    1.6600    4.4517 H   0  0  0  0  0  0  0  0  0  0  0  0
   15.9319    0.8225    5.9793 H   0  0  0  0  0  0  0  0  0  0  0  0
   14.2417    2.1800    2.7544 H   0  0  0  0  0  0  0  0  0  0  0  0
  1  2  2  0  0  0  0
  2  3  1  0  0  0  0
  3  4  2  0  0  0  0
  3  5  1  0  0  0  0
  5  6  2  0  0  0  0
  6  7  1  0  0  0  0
  7  8  2  0  0  0  0
  8  9  1  0  0  0  0
  9 10  2  0  0  0  0
 10 11  1  0  0  0  0
 11 12  2  0  0  0  0
 12 13  1  0  0  0  0
 13 14  3  0  0  0  0
 12 15  1  0  0  0  0
 15 16  3  0  0  0  0
  8 17  1  0  0  0  0
 17 18  1  0  0  0  0
 18 19  1  0  0  0  0
 19 20  2  0  0  0  0
 20 21  1  0  0  0  0
 21 22  1  0  0  0  0
 21 23  1  0  0  0  0
  1 24  1  0  0  0  0
 24 25  2  0  0  0  0
 25 26  1  0  0  0  0
 26 27  1  0  0  0  0
 27 28  2  0  0  0  0
 28 29  1  0  0  0  0
 29 30  2  0  0  0  0
 30 31  1  0  0  0  0
 31 32  1  0  0  0  0
 30 33  1  0  0  0  0
 33 34  2  0  0  0  0
 26 35  1  0  0  0  0
 35 36  2  0  0  0  0
 36 37  1  0  0  0  0
 37 38  2  0  0  0  0
 38 39  1  0  0  0  0
 39 40  1  0  0  0  0
 38 41  1  0  0  0  0
 41 42  2  0  0  0  0
 25 43  1  0  0  0  0
 43 44  1  0  0  0  0
 44 45  1  0  0  0  0
 45 46  2  0  0  0  0
 46 47  1  0  0  0  0
 47 48  1  0  0  0  0
 48 49  2  0  0  0  0
 49 50  1  0  0  0  0
 50 51  2  0  0  0  0
 51 52  1  0  0  0  0
 52 53  1  0  0  0  0
 51 54  1  0  0  0  0
 54 55  2  0  0  0  0
 47 56  1  0  0  0  0
 56 57  2  0  0  0  0
 57 58  1  0  0  0  0
 58 59  2  0  0  0  0
 59 60  1  0  0  0  0
 60 61  1  0  0  0  0
 59 62  1  0  0  0  0
 62 63  2  0  0  0  0
 46 64  1  0  0  0  0
 64 65  1  0  0  0  0
 45 66  1  0  0  0  0
 66 67  2  0  0  0  0
 67 68  1  0  0  0  0
 68 69  1  0  0  0  0
 69 70  2  0  0  0  0
 70 71  1  0  0  0  0
 71 72  2  0  0  0  0
 72 73  1  0  0  0  0
 73 74  1  0  0  0  0
 72 75  1  0  0  0  0
 75 76  2  0  0  0  0
 68 77  1  0  0  0  0
 77 78  2  0  0  0  0
 78 79  1  0  0  0  0
 79 80  2  0  0  0  0
 80 81  1  0  0  0  0
 81 82  1  0  0  0  0
 80 83  1  0  0  0  0
 83 84  2  0  0  0  0
 67 85  1  0  0  0  0
 85 86  1  0  0  0  0
 86 87  1  0  0  0  0
 87 88  2  0  0  0  0
 88 89  1  0  0  0  0
 89 90  1  0  0  0  0
 90 91  2  0  0  0  0
 91 92  1  0  0  0  0
 92 93  2  0  0  0  0
 93 94  1  0  0  0  0
 94 95  1  0  0  0  0
 93 96  1  0  0  0  0
 96 97  2  0  0  0  0
 89 98  1  0  0  0  0
 98 99  2  0  0  0  0
 99100  1  0  0  0  0
100101  2  0  0  0  0
101102  1  0  0  0  0
102103  1  0  0  0  0
101104  1  0  0  0  0
104105  2  0  0  0  0
 88106  1  0  0  0  0
106107  1  0  0  0  0
 87108  1  0  0  0  0
108109  2  0  0  0  0
109110  1  0  0  0  0
110111  1  0  0  0  0
111112  1  0  0  0  0
109113  1  0  0  0  0
113114  1  0  0  0  0
114115  1  0  0  0  0
115116  1  0  0  0  0
113117  2  0  0  0  0
117118  1  0  0  0  0
118119  2  0  0  0  0
117120  1  0  0  0  0
120121  2  0  0  0  0
121122  1  0  0  0  0
122123  2  0  0  0  0
122124  1  0  0  0  0
124125  2  0  0  0  0
125126  1  0  0  0  0
126127  2  0  0  0  0
127128  1  0  0  0  0
128129  2  0  0  0  0
129130  1  0  0  0  0
130131  2  0  0  0  0
131132  1  0  0  0  0
132133  3  0  0  0  0
131134  1  0  0  0  0
134135  3  0  0  0  0
127136  1  0  0  0  0
136137  1  0  0  0  0
137138  1  0  0  0  0
138139  2  0  0  0  0
139140  1  0  0  0  0
140141  1  0  0  0  0
140142  1  0  0  0  0
 11  2  1  0  0  0  0
 23 17  1  0  0  0  0
 65 24  1  0  0  0  0
107 66  1  0  0  0  0
119108  1  0  0  0  0
130121  1  0  0  0  0
142136  1  0  0  0  0
 10  5  1  0  0  0  0
 22 18  1  0  0  0  0
 34 27  1  0  0  0  0
 42 35  1  0  0  0  0
 64 43  2  0  0  0  0
 76 69  1  0  0  0  0
 84 77  1  0  0  0  0
106 85  2  0  0  0  0
129124  1  0  0  0  0
141137  1  0  0  0  0
 23  7  1  0  0  0  0
 55 48  1  0  0  0  0
 63 56  1  0  0  0  0
 97 90  1  0  0  0  0
105 98  1  0  0  0  0
142126  1  0  0  0  0
  1143  1  0  0  0  0
  6144  1  0  0  0  0
  9145  1  0  0  0  0
 17146  1  0  0  0  0
 18147  1  0  0  0  0
 19148  1  0  0  0  0
 20149  1  0  0  0  0
 21150  1  0  0  0  0
 22151  1  0  0  0  0
 22152  1  0  0  0  0
 23153  1  0  0  0  0
 28154  1  0  0  0  0
 29155  1  0  0  0  0
 32156  1  0  0  0  0
 32157  1  0  0  0  0
 32158  1  0  0  0  0
 33159  1  0  0  0  0
 34160  1  0  0  0  0
 36161  1  0  0  0  0
 37162  1  0  0  0  0
 40163  1  0  0  0  0
 40164  1  0  0  0  0
 40165  1  0  0  0  0
 41166  1  0  0  0  0
 42167  1  0  0  0  0
 49168  1  0  0  0  0
 50169  1  0  0  0  0
 53170  1  0  0  0  0
 53171  1  0  0  0  0
 53172  1  0  0  0  0
 54173  1  0  0  0  0
 55174  1  0  0  0  0
 57175  1  0  0  0  0
 58176  1  0  0  0  0
 61177  1  0  0  0  0
 61178  1  0  0  0  0
 61179  1  0  0  0  0
 62180  1  0  0  0  0
 63181  1  0  0  0  0
 70182  1  0  0  0  0
 71183  1  0  0  0  0
 74184  1  0  0  0  0
 74185  1  0  0  0  0
 74186  1  0  0  0  0
 75187  1  0  0  0  0
 76188  1  0  0  0  0
 78189  1  0  0  0  0
 79190  1  0  0  0  0
 82191  1  0  0  0  0
 82192  1  0  0  0  0
 82193  1  0  0  0  0
 83194  1  0  0  0  0
 84195  1  0  0  0  0
 91196  1  0  0  0  0
 92197  1  0  0  0  0
 95198  1  0  0  0  0
 95199  1  0  0  0  0
 95200  1  0  0  0  0
 96201  1  0  0  0  0
 97202  1  0  0  0  0
 99203  1  0  0  0  0
100204  1  0  0  0  0
103205  1  0  0  0  0
103206  1  0  0  0  0
103207  1  0  0  0  0
104208  1  0  0  0  0
105209  1  0  0  0  0
111210  1  0  0  0  0
111211  1  0  0  0  0
112212  1  0  0  0  0
112213  1  0  0  0  0
112214  1  0  0  0  0
115215  1  0  0  0  0
115216  1  0  0  0  0
116217  1  0  0  0  0
116218  1  0  0  0  0
116219  1  0  0  0  0
118220  1  0  0  0  0
119221  1  0  0  0  0
120222  1  0  0  0  0
125223  1  0  0  0  0
128224  1  0  0  0  0
136225  1  0  0  0  0
137226  1  0  0  0  0
138227  1  0  0  0  0
139228  1  0  0  0  0
140229  1  0  0  0  0
141230  1  0  0  0  0
141231  1  0  0  0  0
142232  1  0  0  0  0
M  END
