190

C          3.42940        6.08200       -1.12950
C          4.07260        6.26360       -2.33510
C          4.22690        5.28370       -3.40950
O          4.00070        4.08350       -3.37160
C          4.75780        6.01650       -4.57070
C          5.03700        5.49720       -5.83240
C          5.51380        6.42820       -6.72370
C          5.70200        7.77370       -6.38360
C          5.43940        8.29530       -5.13780
C          4.94930        7.36640       -4.21580
C          4.59220        7.52630       -2.80490
C          4.74380        8.68220       -2.07470
C          4.62150        8.77840       -0.67580
N          4.59930        8.92420        0.46470
C          5.08050        9.93220       -2.62830
N          5.29900       10.98900       -3.02310
C          6.19510        8.13600       -7.76310
C          5.19380        8.86110       -8.68700
C          5.76380        8.65280      -10.07170
C          5.58850        7.37740      -10.39270
C          4.89700        6.70200       -9.23060
C          4.02920        7.86330       -8.72870
C          5.98760        6.63410       -8.14090
C          2.71310        4.99040       -0.64270
C          1.97980        4.99500        0.57310
N          1.72590        6.09200        1.35540
C          1.51390        5.90140        2.73390
C          2.37900        5.09840        3.46990
C          2.18750        4.91430        4.82510
C          1.12480        5.53630        5.46630
S          0.78660        5.39500        7.19110
C          2.02260        4.20720        7.78630
C          0.25720        6.34310        4.73050
C          0.44700        6.52470        3.38020
C          1.53660        7.38200        0.82910
C          1.94510        8.49680        1.56130
C          1.79800        9.76270        1.03820
C          1.26380        9.94250       -0.23420
S          1.18250       11.59390       -0.85050
C          1.17090       11.35680       -2.65190
C          0.81220        8.83760       -0.94770
C          0.93400        7.57150       -0.41370
C          1.48060        3.71170        0.86790
S          0.49040        3.06010        2.14480
C          0.48810        1.50380        1.34620
C          1.08520        1.53260        0.08560
N          0.95940        0.55670       -0.87990
C          1.93780        0.46360       -1.88050
C          3.28640        0.57080       -1.54940
C          4.24790        0.59430       -2.53850
C          3.87230        0.50710       -3.87160
S          5.04770        0.62340       -5.18550
C          6.21020        1.84560       -4.50410
C          2.53380        0.32240       -4.20170
C          1.57210        0.30280       -3.21620
C         -0.21160       -0.21200       -0.98350
C         -1.46620        0.33280       -0.69970
C         -2.59090       -0.45830       -0.73470
C         -2.49760       -1.81090       -1.06620
S         -4.00450       -2.72320       -1.05360
C         -3.52640       -4.39410       -1.56570
C         -1.25830       -2.34840       -1.38780
C         -0.12950       -1.55360       -1.34850
C          1.71070        2.78340       -0.13940
S          2.63640        3.42040       -1.44780
C         -0.19740        0.40130        1.94190
C          0.12280       -0.92590        1.69270
F          1.30500       -1.23680        1.12400
C         -0.76260       -1.96700        1.98300
F         -0.43620       -3.18420        1.52060
C         -1.97860       -1.73880        2.60050
C         -2.22210       -0.42500        3.08480
N         -3.29600       -0.17620        3.85020
C         -3.52050        1.04490        4.27090
C         -4.78240        1.24310        5.05260
C         -5.92230        1.60000        4.09400
C         -2.62770        2.10530        3.94810
N         -1.56770        1.86950        3.21240
C         -1.33440        0.63050        2.76550
C         -2.76070        3.49950        4.47740
C         -2.07380        3.59520        5.84170
C         -3.00510       -2.77250        2.67460
C         -4.29600       -2.52320        2.24750
F         -4.66260       -1.29880        1.84250
C         -5.23800       -3.55310        2.12630
F         -6.45210       -3.25300        1.63970
C         -4.92170       -4.87310        2.38800
C         -3.63690       -5.14040        2.94180
N         -3.34040       -6.37740        3.36560
C         -2.14870       -6.62360        3.84780
C         -1.91560       -8.02040        4.33880
C         -2.28210       -8.12820        5.82130
C         -1.18690       -5.58000        3.96840
N         -1.48970       -4.35420        3.62520
C         -2.69250       -4.09520        3.08820
C          0.21020       -5.79580        4.46290
C          1.11480       -6.15260        3.27980
C         -5.85060       -5.94620        2.13950
C         -5.49050       -7.11700        1.56350
C         -4.24180       -7.32120        0.77680
O         -3.30700       -6.56070        0.63830
C         -4.42410       -8.60190        0.07290
C         -3.54550       -9.17530       -0.84470
C         -3.98920      -10.35860       -1.38200
C         -5.22440      -10.92900       -1.04180
C         -6.10370      -10.37200       -0.14460
C         -5.66650       -9.17010        0.42200
C         -6.31900       -8.30080        1.39330
C         -7.45550       -8.58490        2.09890
C         -7.99570       -7.75880        3.10910
N         -8.47990       -7.15610        3.95740
C         -8.21480       -9.76440        1.94660
N         -8.87410      -10.70070        1.86790
C         -5.02390      -12.10530       -1.96410
C         -4.61530      -13.45780       -1.32970
C         -3.89310      -13.12860       -0.04670
C         -2.72430      -12.58970       -0.36680
C         -2.63500      -12.54420       -1.87230
C         -3.42110      -13.81570       -2.22900
C         -3.64810      -11.47060       -2.34120
H          3.43860        6.93530       -0.46440
H          4.87760        4.45310       -6.05220
H          5.59940        9.33160       -4.89080
H          7.19930        8.55250       -7.81420
H          4.96770        9.88430       -8.39960
H          6.26940        9.41630      -10.63330
H          5.91820        6.86250      -11.27600
H          4.40040        5.75790       -9.43770
H          3.56390        7.68330       -7.76130
H          3.26730        8.15010       -9.45180
H          6.85450        6.04870       -8.44210
H          3.21490        4.62460        2.97730
H          2.88080        4.29260        5.36750
H          3.02140        4.61820        7.67210
H          1.91740        3.26610        7.25460
H          1.80400        4.06210        8.83970
H         -0.56710        6.82320        5.23480
H         -0.22980        7.14760        2.81520
H          2.40370        8.36390        2.52830
H          2.13220       10.62290        1.59540
H          1.38010       12.33290       -3.07790
H          1.95600       10.65960       -2.92880
H          0.19760       11.01050       -2.98770
H          0.35320        8.95530       -1.91660
H          0.57490        6.71940       -0.97200
H          3.57420        0.63840       -0.51090
H          5.28650        0.68760       -2.26450
H          5.63420        2.61460       -3.99760
H          6.91350        1.36810       -3.82790
H          6.74600        2.26410       -5.35060
H          2.25440        0.22820       -5.23970
H          0.52890        0.19960       -3.47610
H         -1.55480        1.37860       -0.44620
H         -3.55900       -0.04180       -0.50330
H         -3.01600       -4.35660       -2.52350
H         -4.45940       -4.94080       -1.66990
H         -2.91660       -4.86370       -0.79860
H         -1.15230       -3.38990       -1.64270
H          0.83590       -1.98180       -1.57250
H         -4.66250        2.02540        5.80140
H         -5.02160        0.30400        5.55260
H         -6.85220        1.71620        4.64480
H         -6.04640        0.80950        3.35860
H         -5.71100        2.52840        3.56740
H         -3.80830        3.78630        4.56230
H         -2.25760        4.17430        3.78380
H         -2.52780        2.91360        6.55790
H         -1.02290        3.33840        5.73860
H         -2.14480        4.60680        6.23130
H         -0.87690       -8.31350        4.18760
H         -2.55800       -8.69000        3.76480
H         -2.12960       -9.14590        6.17200
H         -1.67210       -7.45800        6.42340
H         -3.32660       -7.86300        5.96480
H          0.24560       -6.58390        5.21460
H          0.55930       -4.86330        4.90770
H          0.78240       -7.07100        2.80050
H          1.08810       -5.35370        2.54350
H          2.13950       -6.28630        3.61790
H         -6.88080       -5.76690        2.41990
H         -2.60820       -8.69790       -1.08520
H         -7.05660      -10.81320        0.09630
H         -5.76430      -12.22380       -2.75250
H         -5.42130      -14.18240       -1.25440
H         -4.31760      -13.26520        0.93060
H         -1.97620      -12.18530        0.28970
H         -1.63790      -12.43750       -2.29160
H         -2.91440      -14.72630       -1.91340
H         -3.67830      -13.88490       -3.28510
H         -3.48950      -11.17460       -3.37640
