149

C          1.82430        5.24040        4.41860
C          3.06150        5.34740        4.96270
C          4.05230        4.23360        5.01470
O          3.89240        3.07810        4.68810
C          5.32510        4.85550        5.41600
C          6.55330        4.21130        5.55150
C          7.58840        5.04620        5.89410
C          7.41720        6.42480        6.08700
C          6.21210        7.07250        5.95830
C          5.14350        6.24060        5.60760
C          3.74250        6.56670        5.36610
C          3.15490        7.78900        5.54970
C          1.77970        8.05600        5.37270
N          0.67620        8.35350        5.26640
C          3.83980        8.95140        5.96290
N          4.33670        9.93330        6.28960
C          8.87980        6.64460        6.38230
C          9.75500        7.25810        5.26110
C          9.09710        6.89170        3.95380
C          9.25720        5.58780        3.77130
C         10.02700        5.04880        4.95180
C         10.92230        6.25790        5.26590
C          9.06950        5.10970        6.16830
C          1.18910        3.98890        4.12550
C          1.21080        2.88320        4.98940
C          0.68870        1.58740        4.59620
N          0.79200        0.69760        5.59160
S          1.46720        1.40350        6.85030
N          1.65610        2.87160        6.24930
C          0.14070        1.34770        3.32970
C          0.02130        2.47570        2.50450
N         -0.46870        2.51150        1.25760
S         -0.37230        4.00710        0.69940
N          0.32700        4.70020        1.95980
C          0.50910        3.78120        2.91370
C         -0.23060        0.01150        2.88750
C         -1.43950       -0.21320        2.17390
N         -2.28660        0.80110        1.97390
C         -3.38630        0.60440        1.29440
C         -4.22960        1.78620        1.06250
C         -4.48590        2.68840        2.09980
C         -5.33970        3.76150        1.92220
C         -5.98990        4.02100        0.70020
O         -6.78370        5.09510        0.68540
C         -7.72770        5.32200       -0.35780
C         -8.87400        4.32020       -0.32090
C         -5.68650        3.14160       -0.34500
C         -4.82850        2.06550       -0.15950
F         -4.56380        1.29340       -1.22980
F         -6.21770        3.29500       -1.57700
F         -5.57950        4.59040        2.94450
F         -3.93950        2.49750        3.29910
C         -3.73890       -0.70960        0.85180
C         -5.01180       -1.00510        0.17430
C         -6.23820       -0.50210        0.59440
F         -6.32300        0.19910        1.73780
C         -7.41600       -0.70880       -0.11230
F         -8.53600       -0.14760        0.39020
C         -7.43800       -1.45450       -1.29610
O         -8.47700       -1.74750       -2.08280
C         -9.71210       -1.04190       -1.99590
C         -9.58620        0.39240       -2.49230
C         -6.20190       -1.99920       -1.69140
F         -6.16970       -2.73500       -2.80920
C         -5.03360       -1.78870       -0.98340
F         -3.90330       -2.31080       -1.46100
N         -2.91820       -1.71200        1.03770
C         -1.74580       -1.50020        1.64980
C         -0.82930       -2.57190        1.79420
C          0.30320       -2.34200        2.54140
C          0.59590       -1.07700        3.08580
F          1.77630       -0.93820        3.69630
F          1.21370       -3.30940        2.69460
C         -1.00230       -3.79990        1.01080
C         -1.02260       -5.07270        1.53370
F         -1.01010       -5.23840        2.86680
C         -1.06280       -6.21630        0.73400
C         -1.04250       -6.10540       -0.64000
C         -1.08250       -4.81130       -1.22660
N         -1.14860       -4.67290       -2.57060
C         -1.13010       -3.47870       -3.07110
C         -1.04040       -2.32200       -2.23860
O         -1.01960       -1.12740       -2.81820
C         -1.08390        0.00480       -1.95250
C          0.22810        0.28080       -1.23200
N         -1.01320       -2.43090       -0.93560
C         -1.05480       -3.66540       -0.39910
C         -0.99690       -7.27040       -1.50480
C         -0.15300       -7.35710       -2.55160
C          0.96140       -6.39480       -2.81110
O          1.43570       -5.59010       -2.04150
C          1.45530       -6.72110       -4.15840
C          2.43120       -6.03180       -4.87640
C          2.70680       -6.57240       -6.10810
C          2.06610       -7.72320       -6.59100
C          1.11210       -8.41980       -5.89040
C          0.81080       -7.88310       -4.63210
C         -0.13170       -8.34880       -3.62170
C         -0.85490       -9.50760       -3.66880
C         -1.73010       -9.95520       -2.65500
N         -2.44940      -10.38990       -1.87320
C         -0.80400      -10.44260       -4.72570
N         -0.81140      -11.24410       -5.54710
C          2.82700       -7.69580       -7.89350
C          2.06250       -7.16980       -9.12690
C          3.15770       -6.80630      -10.10360
C          3.76120       -5.71660       -9.64630
C          3.08480       -5.32590       -8.35220
C          1.64850       -5.76780       -8.66120
C          3.53930       -6.41350       -7.35510
H          1.28300        6.12380        4.10460
H          6.64030        3.14830        5.38970
H          6.09810        8.13390        6.10270
H          9.11230        7.05610        7.36230
H          9.99460        8.30880        5.40000
H          8.55060        7.58640        3.34330
H          8.87080        4.97510        2.97790
H         10.51450        4.08800        4.80870
H         11.65040        6.45740        4.48120
H         11.42820        6.18530        6.22760
H          9.42730        4.51730        7.00800
H         -8.09890        6.32680       -0.14410
H         -7.23910        5.32890       -1.33590
H         -9.33650        4.32000        0.66300
H         -8.52540        3.31440       -0.54040
H         -9.61760        4.59670       -1.06210
H        -10.11470       -1.07570       -0.98010
H        -10.37190       -1.61170       -2.65390
H        -10.56800        0.85580       -2.50710
H         -9.17320        0.40300       -3.49790
H         -8.93820        0.97740       -1.84490
H         -1.04710       -7.18380        1.21150
H         -1.19830       -3.37750       -4.14450
H         -1.88220       -0.16140       -1.22330
H         -1.35500        0.83570       -2.60730
H          0.52620       -0.59540       -0.66250
H          0.08950        1.11060       -0.54410
H          1.01110        0.52350       -1.94580
H         -1.70930       -8.05670       -1.29490
H          2.90360       -5.15470       -4.46280
H          0.63400       -9.30620       -6.27280
H          3.42980       -8.57570       -8.10910
H          1.28000       -7.82900       -9.49210
H          3.40830       -7.39110      -10.96900
H          4.61650       -5.20970      -10.05300
H          3.23320       -4.30490       -8.01090
H          0.98690       -5.76400       -7.79690
H          1.20240       -5.18320       -9.46400
H          4.61800       -6.43630       -7.21290
