
  xtb     02122207473D
 energy: -378.457269434105 gnorm: 0.000340636332 xtb: 6.4.1 (unknown)
226251  0     0  0            999 V2000
    2.9050   11.7998   -0.2185 C   0  0  0  0  0  0  0  0  0  0  0  0
    3.8527   12.5012   -0.9071 C   0  0  0  0  0  0  0  0  0  0  0  0
    4.9224   11.9301   -1.7454 C   0  0  0  0  0  0  0  0  0  0  0  0
    5.2045   10.7564   -1.8937 O   0  0  0  0  0  0  0  0  0  0  0  0
    5.6006   13.0724   -2.3796 C   0  0  0  0  0  0  0  0  0  0  0  0
    6.6499   13.0168   -3.2949 C   0  0  0  0  0  0  0  0  0  0  0  0
    7.0705   14.2473   -3.7377 C   0  0  0  0  0  0  0  0  0  0  0  0
    6.4935   15.4466   -3.2979 C   0  0  0  0  0  0  0  0  0  0  0  0
    5.4639   15.5156   -2.3901 C   0  0  0  0  0  0  0  0  0  0  0  0
    5.0158   14.2731   -1.9290 C   0  0  0  0  0  0  0  0  0  0  0  0
    3.9479   13.9490   -0.9858 C   0  0  0  0  0  0  0  0  0  0  0  0
    3.1963   14.8651   -0.2962 C   0  0  0  0  0  0  0  0  0  0  0  0
    2.1763   14.5697    0.6328 C   0  0  0  0  0  0  0  0  0  0  0  0
    1.3361   14.4280    1.4036 N   0  0  0  0  0  0  0  0  0  0  0  0
    3.3449   16.2643   -0.4030 C   0  0  0  0  0  0  0  0  0  0  0  0
    3.4040   17.4106   -0.4352 N   0  0  0  0  0  0  0  0  0  0  0  0
    7.3932   16.2909   -4.1657 C   0  0  0  0  0  0  0  0  0  0  0  0
    6.7659   16.8619   -5.4552 C   0  0  0  0  0  0  0  0  0  0  0  0
    7.9595   17.2136   -6.3136 C   0  0  0  0  0  0  0  0  0  0  0  0
    8.5055   16.0782   -6.7302 C   0  0  0  0  0  0  0  0  0  0  0  0
    7.6899   14.9400   -6.1605 C   0  0  0  0  0  0  0  0  0  0  0  0
    6.2979   15.5850   -6.1654 C   0  0  0  0  0  0  0  0  0  0  0  0
    8.0362   14.9539   -4.6561 C   0  0  0  0  0  0  0  0  0  0  0  0
    2.6894   10.4095   -0.1120 C   0  0  0  0  0  0  0  0  0  0  0  0
    1.6066    9.8967    0.5779 C   0  0  0  0  0  0  0  0  0  0  0  0
    1.5199    8.4970    0.5600 C   0  0  0  0  0  0  0  0  0  0  0  0
    0.5136    7.6743    1.1271 C   0  0  0  0  0  0  0  0  0  0  0  0
   -0.6835    8.2270    1.7049 C   0  0  0  0  0  0  0  0  0  0  0  0
   -1.3847    9.3471    1.3324 C   0  0  0  0  0  0  0  0  0  0  0  0
   -2.5617    9.5518    2.0654 C   0  0  0  0  0  0  0  0  0  0  0  0
   -2.7769    8.5836    3.0100 C   0  0  0  0  0  0  0  0  0  0  0  0
   -4.1564    8.5027    4.0715 S   0  0  0  0  0  0  0  0  0  0  0  0
   -4.0264    6.8181    4.7750 C   0  0  0  0  0  0  0  0  0  0  0  0
   -3.1031    6.7493    5.9743 C   0  0  0  0  0  0  0  0  0  0  0  0
   -1.5018    7.4075    3.0116 S   0  0  0  0  0  0  0  0  0  0  0  0
    0.7281    6.3044    1.0291 C   0  0  0  0  0  0  0  0  0  0  0  0
    1.8203    5.7287    0.3334 C   0  0  0  0  0  0  0  0  0  0  0  0
    2.7988    6.5460   -0.2629 C   0  0  0  0  0  0  0  0  0  0  0  0
    3.9230    6.0176   -1.0122 C   0  0  0  0  0  0  0  0  0  0  0  0
    5.2049    6.5004   -1.0473 C   0  0  0  0  0  0  0  0  0  0  0  0
    6.0449    5.8274   -1.9505 C   0  0  0  0  0  0  0  0  0  0  0  0
    5.4088    4.8192   -2.6128 C   0  0  0  0  0  0  0  0  0  0  0  0
    6.0195    3.7655   -3.8703 S   0  0  0  0  0  0  0  0  0  0  0  0
    7.4810    3.0471   -3.0339 C   0  0  0  0  0  0  0  0  0  0  0  0
    7.0738    2.1435   -1.8893 C   0  0  0  0  0  0  0  0  0  0  0  0
    3.7583    4.6712   -2.1087 S   0  0  0  0  0  0  0  0  0  0  0  0
    2.6264    7.9224   -0.1200 C   0  0  0  0  0  0  0  0  0  0  0  0
    3.6799    9.1356   -0.7884 S   0  0  0  0  0  0  0  0  0  0  0  0
    1.7331    4.3142    0.3050 C   0  0  0  0  0  0  0  0  0  0  0  0
    0.6293    3.8200    0.9258 C   0  0  0  0  0  0  0  0  0  0  0  0
   -0.3472    5.0768    1.6442 S   0  0  0  0  0  0  0  0  0  0  0  0
    0.1643    2.4642    0.8813 C   0  0  0  0  0  0  0  0  0  0  0  0
    0.0682    1.7240   -0.2821 C   0  0  0  0  0  0  0  0  0  0  0  0
    0.3127    2.2647   -1.5512 N   0  0  0  0  0  0  0  0  0  0  0  0
   -0.2979    3.5070   -1.7918 C   0  0  0  0  0  0  0  0  0  0  0  0
    0.3582    4.5677   -2.4153 C   0  0  0  0  0  0  0  0  0  0  0  0
   -0.2089    5.8224   -2.4374 C   0  0  0  0  0  0  0  0  0  0  0  0
   -1.4531    6.0519   -1.8564 C   0  0  0  0  0  0  0  0  0  0  0  0
   -2.0200    7.7244   -1.8189 S   0  0  0  0  0  0  0  0  0  0  0  0
   -3.5303    7.6387   -0.8161 C   0  0  0  0  0  0  0  0  0  0  0  0
   -2.1590    4.9793   -1.3306 C   0  0  0  0  0  0  0  0  0  0  0  0
   -1.5854    3.7240   -1.3022 C   0  0  0  0  0  0  0  0  0  0  0  0
    1.3897    1.7783   -2.2939 C   0  0  0  0  0  0  0  0  0  0  0  0
    1.4764    1.9930   -3.6671 C   0  0  0  0  0  0  0  0  0  0  0  0
    2.5628    1.5348   -4.3862 C   0  0  0  0  0  0  0  0  0  0  0  0
    3.5761    0.8311   -3.7502 C   0  0  0  0  0  0  0  0  0  0  0  0
    5.0070    0.1961   -4.5706 S   0  0  0  0  0  0  0  0  0  0  0  0
    4.9943    1.0433   -6.1732 C   0  0  0  0  0  0  0  0  0  0  0  0
    3.4728    0.5746   -2.3864 C   0  0  0  0  0  0  0  0  0  0  0  0
    2.3993    1.0467   -1.6658 C   0  0  0  0  0  0  0  0  0  0  0  0
   -0.4513    0.4358   -0.0208 C   0  0  0  0  0  0  0  0  0  0  0  0
   -0.7906   -0.9570   -0.9844 S   0  0  0  0  0  0  0  0  0  0  0  0
   -1.4920   -1.7651    0.4082 C   0  0  0  0  0  0  0  0  0  0  0  0
   -1.4010   -1.0161    1.5702 C   0  0  0  0  0  0  0  0  0  0  0  0
   -1.7949   -1.4092    2.8423 N   0  0  0  0  0  0  0  0  0  0  0  0
   -2.3850   -0.4349    3.6614 C   0  0  0  0  0  0  0  0  0  0  0  0
   -2.0904   -0.3668    5.0192 C   0  0  0  0  0  0  0  0  0  0  0  0
   -2.6326    0.6292    5.8084 C   0  0  0  0  0  0  0  0  0  0  0  0
   -3.4736    1.5810    5.2481 C   0  0  0  0  0  0  0  0  0  0  0  0
   -4.1916    2.9260    6.1399 S   0  0  0  0  0  0  0  0  0  0  0  0
   -3.5742    2.7143    7.8339 C   0  0  0  0  0  0  0  0  0  0  0  0
   -3.7906    1.5028    3.8941 C   0  0  0  0  0  0  0  0  0  0  0  0
   -3.2599    0.5033    3.1112 C   0  0  0  0  0  0  0  0  0  0  0  0
   -1.6932   -2.7405    3.2590 C   0  0  0  0  0  0  0  0  0  0  0  0
   -2.6541   -3.2982    4.1065 C   0  0  0  0  0  0  0  0  0  0  0  0
   -2.6507   -4.6486    4.3699 C   0  0  0  0  0  0  0  0  0  0  0  0
   -1.6935   -5.4809    3.7922 C   0  0  0  0  0  0  0  0  0  0  0  0
   -1.8810   -7.2148    4.0671 S   0  0  0  0  0  0  0  0  0  0  0  0
   -0.5635   -7.9649    3.0722 C   0  0  0  0  0  0  0  0  0  0  0  0
   -0.6787   -4.9185    3.0316 C   0  0  0  0  0  0  0  0  0  0  0  0
   -0.6744   -3.5603    2.7786 C   0  0  0  0  0  0  0  0  0  0  0  0
   -0.8049    0.2422    1.3062 C   0  0  0  0  0  0  0  0  0  0  0  0
   -0.4680    1.6315    2.2802 S   0  0  0  0  0  0  0  0  0  0  0  0
   -2.0656   -3.0724    0.2946 C   0  0  0  0  0  0  0  0  0  0  0  0
   -1.5436   -4.1909   -0.2763 C   0  0  0  0  0  0  0  0  0  0  0  0
   -2.2852   -5.3670    0.0046 C   0  0  0  0  0  0  0  0  0  0  0  0
   -1.9294   -6.6961   -0.2920 C   0  0  0  0  0  0  0  0  0  0  0  0
   -0.7907   -7.0092   -1.1263 C   0  0  0  0  0  0  0  0  0  0  0  0
   -0.3822   -6.4076   -2.2854 C   0  0  0  0  0  0  0  0  0  0  0  0
    0.7293   -7.0268   -2.8813 C   0  0  0  0  0  0  0  0  0  0  0  0
    1.1844   -8.1006   -2.1681 C   0  0  0  0  0  0  0  0  0  0  0  0
    2.5615   -9.0845   -2.5873 S   0  0  0  0  0  0  0  0  0  0  0  0
    2.3453  -10.5430   -1.5041 C   0  0  0  0  0  0  0  0  0  0  0  0
    1.1996  -11.4384   -1.9316 C   0  0  0  0  0  0  0  0  0  0  0  0
    0.2481   -8.3526   -0.7299 S   0  0  0  0  0  0  0  0  0  0  0  0
   -2.7290   -7.6969    0.2569 C   0  0  0  0  0  0  0  0  0  0  0  0
   -3.8500   -7.4255    1.0821 C   0  0  0  0  0  0  0  0  0  0  0  0
   -4.1893   -6.0884    1.4127 C   0  0  0  0  0  0  0  0  0  0  0  0
   -5.1908   -5.7872    2.3999 C   0  0  0  0  0  0  0  0  0  0  0  0
   -5.4845   -6.4792    3.5492 C   0  0  0  0  0  0  0  0  0  0  0  0
   -6.4093   -5.8303    4.3784 C   0  0  0  0  0  0  0  0  0  0  0  0
   -6.8378   -4.6351    3.8665 C   0  0  0  0  0  0  0  0  0  0  0  0
   -8.0044   -3.5783    4.6127 S   0  0  0  0  0  0  0  0  0  0  0  0
   -7.7146   -1.9988    3.7361 C   0  0  0  0  0  0  0  0  0  0  0  0
   -6.3916   -1.3596    4.1090 C   0  0  0  0  0  0  0  0  0  0  0  0
   -6.1098   -4.3086    2.3250 S   0  0  0  0  0  0  0  0  0  0  0  0
   -3.4173   -5.1002    0.8143 C   0  0  0  0  0  0  0  0  0  0  0  0
   -3.5963   -3.3904    1.0878 S   0  0  0  0  0  0  0  0  0  0  0  0
   -4.5189   -8.6055    1.4352 C   0  0  0  0  0  0  0  0  0  0  0  0
   -3.9390   -9.7588    0.9378 C   0  0  0  0  0  0  0  0  0  0  0  0
   -2.5082   -9.4037   -0.0039 S   0  0  0  0  0  0  0  0  0  0  0  0
   -4.4891  -11.0331    1.1820 C   0  0  0  0  0  0  0  0  0  0  0  0
   -4.0781  -12.2711    0.7741 C   0  0  0  0  0  0  0  0  0  0  0  0
   -2.8976  -12.5717   -0.0537 C   0  0  0  0  0  0  0  0  0  0  0  0
   -2.0642  -11.7924   -0.4780 O   0  0  0  0  0  0  0  0  0  0  0  0
   -2.9073  -14.0269   -0.2725 C   0  0  0  0  0  0  0  0  0  0  0  0
   -1.9926  -14.7640   -1.0224 C   0  0  0  0  0  0  0  0  0  0  0  0
   -2.2544  -16.1122   -1.0541 C   0  0  0  0  0  0  0  0  0  0  0  0
   -3.3485  -16.6848   -0.3910 C   0  0  0  0  0  0  0  0  0  0  0  0
   -4.2603  -15.9686    0.3470 C   0  0  0  0  0  0  0  0  0  0  0  0
   -4.0107  -14.5931    0.3968 C   0  0  0  0  0  0  0  0  0  0  0  0
   -4.7482  -13.5258    1.0698 C   0  0  0  0  0  0  0  0  0  0  0  0
   -5.8664  -13.7049    1.8429 C   0  0  0  0  0  0  0  0  0  0  0  0
   -6.4699  -14.9545    2.0991 C   0  0  0  0  0  0  0  0  0  0  0  0
   -7.0162  -15.9314    2.3554 N   0  0  0  0  0  0  0  0  0  0  0  0
   -6.5877  -12.6922    2.5099 C   0  0  0  0  0  0  0  0  0  0  0  0
   -7.2369  -11.9409    3.0882 N   0  0  0  0  0  0  0  0  0  0  0  0
   -2.9964  -18.0792   -0.8451 C   0  0  0  0  0  0  0  0  0  0  0  0
   -2.3217  -18.9935    0.1995 C   0  0  0  0  0  0  0  0  0  0  0  0
   -1.6742  -20.0763   -0.6332 C   0  0  0  0  0  0  0  0  0  0  0  0
   -0.6392  -19.5359   -1.2634 C   0  0  0  0  0  0  0  0  0  0  0  0
   -0.5694  -18.0787   -0.8669 C   0  0  0  0  0  0  0  0  0  0  0  0
   -1.0811  -18.1735    0.5763 C   0  0  0  0  0  0  0  0  0  0  0  0
   -1.7775  -17.4410   -1.5855 C   0  0  0  0  0  0  0  0  0  0  0  0
    2.1651   12.3775    0.3226 H   0  0  0  0  0  0  0  0  0  0  0  0
    7.0642   12.0699   -3.6041 H   0  0  0  0  0  0  0  0  0  0  0  0
    5.0344   16.4474   -2.0629 H   0  0  0  0  0  0  0  0  0  0  0  0
    8.0199   17.0103   -3.6422 H   0  0  0  0  0  0  0  0  0  0  0  0
    6.0302   17.6452   -5.2949 H   0  0  0  0  0  0  0  0  0  0  0  0
    8.3050   18.2172   -6.4785 H   0  0  0  0  0  0  0  0  0  0  0  0
    9.3981   15.9439   -7.3126 H   0  0  0  0  0  0  0  0  0  0  0  0
    7.7956   13.9723   -6.6433 H   0  0  0  0  0  0  0  0  0  0  0  0
    5.9402   15.7832   -7.1744 H   0  0  0  0  0  0  0  0  0  0  0  0
    5.5452   15.0217   -5.6169 H   0  0  0  0  0  0  0  0  0  0  0  0
    9.0928   14.7811   -4.4607 H   0  0  0  0  0  0  0  0  0  0  0  0
    0.9184   10.5344    1.1026 H   0  0  0  0  0  0  0  0  0  0  0  0
   -1.1027    9.9638    0.4989 H   0  0  0  0  0  0  0  0  0  0  0  0
   -3.2416   10.3677    1.9029 H   0  0  0  0  0  0  0  0  0  0  0  0
   -5.0474    6.5620    5.0564 H   0  0  0  0  0  0  0  0  0  0  0  0
   -3.6963    6.1548    3.9762 H   0  0  0  0  0  0  0  0  0  0  0  0
   -2.0873    7.0222    5.6993 H   0  0  0  0  0  0  0  0  0  0  0  0
   -3.0974    5.7313    6.3572 H   0  0  0  0  0  0  0  0  0  0  0  0
   -3.4459    7.4200    6.7586 H   0  0  0  0  0  0  0  0  0  0  0  0
    5.5468    7.3123   -0.4321 H   0  0  0  0  0  0  0  0  0  0  0  0
    7.0746    6.0896   -2.1140 H   0  0  0  0  0  0  0  0  0  0  0  0
    7.9916    2.4880   -3.8168 H   0  0  0  0  0  0  0  0  0  0  0  0
    8.1134    3.8703   -2.7044 H   0  0  0  0  0  0  0  0  0  0  0  0
    7.9586    1.7149   -1.4232 H   0  0  0  0  0  0  0  0  0  0  0  0
    6.5204    2.7031   -1.1366 H   0  0  0  0  0  0  0  0  0  0  0  0
    6.4450    1.3367   -2.2579 H   0  0  0  0  0  0  0  0  0  0  0  0
    2.4603    3.6776   -0.1645 H   0  0  0  0  0  0  0  0  0  0  0  0
    1.3354    4.4205   -2.8424 H   0  0  0  0  0  0  0  0  0  0  0  0
    0.3271    6.6495   -2.8775 H   0  0  0  0  0  0  0  0  0  0  0  0
   -3.8461    8.6667   -0.6698 H   0  0  0  0  0  0  0  0  0  0  0  0
   -3.3080    7.1825    0.1440 H   0  0  0  0  0  0  0  0  0  0  0  0
   -4.3014    7.0883   -1.3474 H   0  0  0  0  0  0  0  0  0  0  0  0
   -3.1476    5.1065   -0.9206 H   0  0  0  0  0  0  0  0  0  0  0  0
   -2.1340    2.9047   -0.8609 H   0  0  0  0  0  0  0  0  0  0  0  0
    0.6844    2.5206   -4.1764 H   0  0  0  0  0  0  0  0  0  0  0  0
    2.6024    1.7283   -5.4459 H   0  0  0  0  0  0  0  0  0  0  0  0
    4.1714    0.6817   -6.7832 H   0  0  0  0  0  0  0  0  0  0  0  0
    5.9387    0.7921   -6.6460 H   0  0  0  0  0  0  0  0  0  0  0  0
    4.9332    2.1154   -6.0109 H   0  0  0  0  0  0  0  0  0  0  0  0
    4.2498    0.0092   -1.8942 H   0  0  0  0  0  0  0  0  0  0  0  0
    2.3465    0.8606   -0.6029 H   0  0  0  0  0  0  0  0  0  0  0  0
   -1.4216   -1.0934    5.4562 H   0  0  0  0  0  0  0  0  0  0  0  0
   -2.3763    0.6578    6.8550 H   0  0  0  0  0  0  0  0  0  0  0  0
   -4.0058    3.5292    8.4071 H   0  0  0  0  0  0  0  0  0  0  0  0
   -2.4905    2.7875    7.8460 H   0  0  0  0  0  0  0  0  0  0  0  0
   -3.9118    1.7638    8.2363 H   0  0  0  0  0  0  0  0  0  0  0  0
   -4.4577    2.2364    3.4675 H   0  0  0  0  0  0  0  0  0  0  0  0
   -3.5183    0.4408    2.0644 H   0  0  0  0  0  0  0  0  0  0  0  0
   -3.4277   -2.6714    4.5229 H   0  0  0  0  0  0  0  0  0  0  0  0
   -3.4140   -5.0815    4.9979 H   0  0  0  0  0  0  0  0  0  0  0  0
   -0.7180   -9.0373    3.1407 H   0  0  0  0  0  0  0  0  0  0  0  0
   -0.6543   -7.6481    2.0375 H   0  0  0  0  0  0  0  0  0  0  0  0
    0.4083   -7.7054    3.4819 H   0  0  0  0  0  0  0  0  0  0  0  0
    0.1092   -5.5251    2.6151 H   0  0  0  0  0  0  0  0  0  0  0  0
    0.1147   -3.1363    2.1756 H   0  0  0  0  0  0  0  0  0  0  0  0
   -0.6047   -4.1912   -0.7998 H   0  0  0  0  0  0  0  0  0  0  0  0
   -0.9023   -5.5771   -2.7285 H   0  0  0  0  0  0  0  0  0  0  0  0
    1.1737   -6.7106   -3.8069 H   0  0  0  0  0  0  0  0  0  0  0  0
    3.3003  -11.0633   -1.5801 H   0  0  0  0  0  0  0  0  0  0  0  0
    2.2161  -10.1772   -0.4854 H   0  0  0  0  0  0  0  0  0  0  0  0
    1.3139  -11.7305   -2.9733 H   0  0  0  0  0  0  0  0  0  0  0  0
    1.1967  -12.3341   -1.3138 H   0  0  0  0  0  0  0  0  0  0  0  0
    0.2393  -10.9441   -1.8058 H   0  0  0  0  0  0  0  0  0  0  0  0
   -4.9855   -7.3891    3.8280 H   0  0  0  0  0  0  0  0  0  0  0  0
   -6.7407   -6.2103    5.3271 H   0  0  0  0  0  0  0  0  0  0  0  0
   -8.5538   -1.3730    4.0380 H   0  0  0  0  0  0  0  0  0  0  0  0
   -7.7805   -2.1998    2.6671 H   0  0  0  0  0  0  0  0  0  0  0  0
   -6.3035   -0.3870    3.6300 H   0  0  0  0  0  0  0  0  0  0  0  0
   -6.3231   -1.2229    5.1859 H   0  0  0  0  0  0  0  0  0  0  0  0
   -5.5589   -1.9760    3.7783 H   0  0  0  0  0  0  0  0  0  0  0  0
   -5.4285   -8.6303    2.0079 H   0  0  0  0  0  0  0  0  0  0  0  0
   -5.3873  -10.9894    1.7861 H   0  0  0  0  0  0  0  0  0  0  0  0
   -1.1693  -14.2786   -1.5230 H   0  0  0  0  0  0  0  0  0  0  0  0
   -5.0998  -16.4265    0.8422 H   0  0  0  0  0  0  0  0  0  0  0  0
   -3.7543  -18.5926   -1.4335 H   0  0  0  0  0  0  0  0  0  0  0  0
   -2.9721  -19.3189    1.0067 H   0  0  0  0  0  0  0  0  0  0  0  0
   -2.0563  -21.0765   -0.7185 H   0  0  0  0  0  0  0  0  0  0  0  0
    0.0159  -19.9944   -1.9807 H   0  0  0  0  0  0  0  0  0  0  0  0
    0.3779  -17.5721   -1.0311 H   0  0  0  0  0  0  0  0  0  0  0  0
   -1.3065  -17.2108    1.0317 H   0  0  0  0  0  0  0  0  0  0  0  0
   -0.4002  -18.7295    1.2186 H   0  0  0  0  0  0  0  0  0  0  0  0
   -1.7230  -17.5273   -2.6691 H   0  0  0  0  0  0  0  0  0  0  0  0
  1  2  2  0  0  0  0
  2  3  1  0  0  0  0
  3  4  2  0  0  0  0
  3  5  1  0  0  0  0
  5  6  2  0  0  0  0
  6  7  1  0  0  0  0
  7  8  2  0  0  0  0
  8  9  1  0  0  0  0
  9 10  2  0  0  0  0
 10 11  1  0  0  0  0
 11 12  2  0  0  0  0
 12 13  1  0  0  0  0
 13 14  3  0  0  0  0
 12 15  1  0  0  0  0
 15 16  3  0  0  0  0
  8 17  1  0  0  0  0
 17 18  1  0  0  0  0
 18 19  1  0  0  0  0
 19 20  2  0  0  0  0
 20 21  1  0  0  0  0
 21 22  1  0  0  0  0
 21 23  1  0  0  0  0
  1 24  1  0  0  0  0
 24 25  2  0  0  0  0
 25 26  1  0  0  0  0
 26 27  2  0  0  0  0
 27 28  1  0  0  0  0
 28 29  2  0  0  0  0
 29 30  1  0  0  0  0
 30 31  2  0  0  0  0
 31 32  1  0  0  0  0
 32 33  1  0  0  0  0
 33 34  1  0  0  0  0
 31 35  1  0  0  0  0
 27 36  1  0  0  0  0
 36 37  2  0  0  0  0
 37 38  1  0  0  0  0
 38 39  1  0  0  0  0
 39 40  2  0  0  0  0
 40 41  1  0  0  0  0
 41 42  2  0  0  0  0
 42 43  1  0  0  0  0
 43 44  1  0  0  0  0
 44 45  1  0  0  0  0
 42 46  1  0  0  0  0
 38 47  2  0  0  0  0
 47 48  1  0  0  0  0
 37 49  1  0  0  0  0
 49 50  2  0  0  0  0
 50 51  1  0  0  0  0
 50 52  1  0  0  0  0
 52 53  2  0  0  0  0
 53 54  1  0  0  0  0
 54 55  1  0  0  0  0
 55 56  2  0  0  0  0
 56 57  1  0  0  0  0
 57 58  2  0  0  0  0
 58 59  1  0  0  0  0
 59 60  1  0  0  0  0
 58 61  1  0  0  0  0
 61 62  2  0  0  0  0
 54 63  1  0  0  0  0
 63 64  2  0  0  0  0
 64 65  1  0  0  0  0
 65 66  2  0  0  0  0
 66 67  1  0  0  0  0
 67 68  1  0  0  0  0
 66 69  1  0  0  0  0
 69 70  2  0  0  0  0
 53 71  1  0  0  0  0
 71 72  1  0  0  0  0
 72 73  1  0  0  0  0
 73 74  2  0  0  0  0
 74 75  1  0  0  0  0
 75 76  1  0  0  0  0
 76 77  2  0  0  0  0
 77 78  1  0  0  0  0
 78 79  2  0  0  0  0
 79 80  1  0  0  0  0
 80 81  1  0  0  0  0
 79 82  1  0  0  0  0
 82 83  2  0  0  0  0
 75 84  1  0  0  0  0
 84 85  2  0  0  0  0
 85 86  1  0  0  0  0
 86 87  2  0  0  0  0
 87 88  1  0  0  0  0
 88 89  1  0  0  0  0
 87 90  1  0  0  0  0
 90 91  2  0  0  0  0
 74 92  1  0  0  0  0
 92 93  1  0  0  0  0
 73 94  1  0  0  0  0
 94 95  2  0  0  0  0
 95 96  1  0  0  0  0
 96 97  2  0  0  0  0
 97 98  1  0  0  0  0
 98 99  2  0  0  0  0
 99100  1  0  0  0  0
100101  2  0  0  0  0
101102  1  0  0  0  0
102103  1  0  0  0  0
103104  1  0  0  0  0
101105  1  0  0  0  0
 97106  1  0  0  0  0
106107  2  0  0  0  0
107108  1  0  0  0  0
108109  1  0  0  0  0
109110  2  0  0  0  0
110111  1  0  0  0  0
111112  2  0  0  0  0
112113  1  0  0  0  0
113114  1  0  0  0  0
114115  1  0  0  0  0
112116  1  0  0  0  0
108117  2  0  0  0  0
117118  1  0  0  0  0
107119  1  0  0  0  0
119120  2  0  0  0  0
120121  1  0  0  0  0
120122  1  0  0  0  0
122123  2  0  0  0  0
123124  1  0  0  0  0
124125  2  0  0  0  0
124126  1  0  0  0  0
126127  2  0  0  0  0
127128  1  0  0  0  0
128129  2  0  0  0  0
129130  1  0  0  0  0
130131  2  0  0  0  0
131132  1  0  0  0  0
132133  2  0  0  0  0
133134  1  0  0  0  0
134135  3  0  0  0  0
133136  1  0  0  0  0
136137  3  0  0  0  0
129138  1  0  0  0  0
138139  1  0  0  0  0
139140  1  0  0  0  0
140141  2  0  0  0  0
141142  1  0  0  0  0
142143  1  0  0  0  0
142144  1  0  0  0  0
 11  2  1  0  0  0  0
 23 17  1  0  0  0  0
 48 24  1  0  0  0  0
 93 52  1  0  0  0  0
118 94  1  0  0  0  0
132123  1  0  0  0  0
144138  1  0  0  0  0
 10  5  1  0  0  0  0
 22 18  1  0  0  0  0
 47 26  1  0  0  0  0
 62 55  1  0  0  0  0
 70 63  1  0  0  0  0
 92 71  2  0  0  0  0
117 96  1  0  0  0  0
131126  1  0  0  0  0
143139  1  0  0  0  0
 23  7  1  0  0  0  0
 35 28  1  0  0  0  0
 51 36  1  0  0  0  0
 83 76  1  0  0  0  0
 91 84  1  0  0  0  0
105 98  1  0  0  0  0
121106  1  0  0  0  0
144128  1  0  0  0  0
 46 39  1  0  0  0  0
116109  1  0  0  0  0
  1145  1  0  0  0  0
  6146  1  0  0  0  0
  9147  1  0  0  0  0
 17148  1  0  0  0  0
 18149  1  0  0  0  0
 19150  1  0  0  0  0
 20151  1  0  0  0  0
 21152  1  0  0  0  0
 22153  1  0  0  0  0
 22154  1  0  0  0  0
 23155  1  0  0  0  0
 25156  1  0  0  0  0
 29157  1  0  0  0  0
 30158  1  0  0  0  0
 33159  1  0  0  0  0
 33160  1  0  0  0  0
 34161  1  0  0  0  0
 34162  1  0  0  0  0
 34163  1  0  0  0  0
 40164  1  0  0  0  0
 41165  1  0  0  0  0
 44166  1  0  0  0  0
 44167  1  0  0  0  0
 45168  1  0  0  0  0
 45169  1  0  0  0  0
 45170  1  0  0  0  0
 49171  1  0  0  0  0
 56172  1  0  0  0  0
 57173  1  0  0  0  0
 60174  1  0  0  0  0
 60175  1  0  0  0  0
 60176  1  0  0  0  0
 61177  1  0  0  0  0
 62178  1  0  0  0  0
 64179  1  0  0  0  0
 65180  1  0  0  0  0
 68181  1  0  0  0  0
 68182  1  0  0  0  0
 68183  1  0  0  0  0
 69184  1  0  0  0  0
 70185  1  0  0  0  0
 77186  1  0  0  0  0
 78187  1  0  0  0  0
 81188  1  0  0  0  0
 81189  1  0  0  0  0
 81190  1  0  0  0  0
 82191  1  0  0  0  0
 83192  1  0  0  0  0
 85193  1  0  0  0  0
 86194  1  0  0  0  0
 89195  1  0  0  0  0
 89196  1  0  0  0  0
 89197  1  0  0  0  0
 90198  1  0  0  0  0
 91199  1  0  0  0  0
 95200  1  0  0  0  0
 99201  1  0  0  0  0
100202  1  0  0  0  0
103203  1  0  0  0  0
103204  1  0  0  0  0
104205  1  0  0  0  0
104206  1  0  0  0  0
104207  1  0  0  0  0
110208  1  0  0  0  0
111209  1  0  0  0  0
114210  1  0  0  0  0
114211  1  0  0  0  0
115212  1  0  0  0  0
115213  1  0  0  0  0
115214  1  0  0  0  0
119215  1  0  0  0  0
122216  1  0  0  0  0
127217  1  0  0  0  0
130218  1  0  0  0  0
138219  1  0  0  0  0
139220  1  0  0  0  0
140221  1  0  0  0  0
141222  1  0  0  0  0
142223  1  0  0  0  0
143224  1  0  0  0  0
143225  1  0  0  0  0
144226  1  0  0  0  0
M  END
