172

C          7.73680       -0.26080       -1.44650
C          8.21750       -0.97630       -2.51280
C          9.62740       -1.07760       -2.93830
O         10.59320       -0.51050       -2.46700
C          9.63280       -2.02590       -4.07460
C         10.73720       -2.45360       -4.80730
C         10.43310       -3.33240       -5.81980
C          9.12590       -3.76110       -6.08350
C          8.02790       -3.35320       -5.36460
C          8.31520       -2.45400       -4.33360
C          7.41530       -1.79260       -3.39210
C          6.04430       -1.89740       -3.39170
C          5.29480       -2.71440       -4.25640
N          4.58810       -3.34720       -4.90740
C          5.15570       -1.18270       -2.56230
N          4.33990       -0.63000       -1.96850
C          9.55600       -4.62300       -7.24450
C          9.29200       -4.05780       -8.65640
C         10.22000       -4.85500       -9.54420
C         11.46010       -4.45490       -9.29370
C         11.39080       -3.37940       -8.23360
C         10.05340       -2.72680       -8.60660
C         11.01470       -4.14780       -6.94910
C          8.46690        0.57100       -0.58330
C          7.88500        1.28760        0.43560
C          6.51120        1.29530        0.73170
C          5.91780        2.01190        1.73020
C          4.53320        1.92960        1.97800
C          3.77050        2.58140        2.95610
N          4.23760        3.56610        3.80100
C          3.70640        3.66540        5.09510
C          3.45020        2.51540        5.83670
C          2.91640        2.59840        7.10780
C          2.63560        3.83920        7.66290
S          1.96030        4.07800        9.27470
C          1.66280        2.39330        9.88150
C          2.90070        4.99370        6.92690
C          3.42630        4.91090        5.65840
C          5.14550        4.53290        3.34400
C          6.13930        5.02180        4.19300
C          7.03600        5.96310        3.73990
C          6.96770        6.43610        2.43000
S          8.17970        7.62940        1.96240
C          7.85900        7.91360        0.19860
C          5.97220        5.96030        1.58610
C          5.06770        5.02290        2.04290
C          2.43770        2.11300        2.95160
S          1.00930        2.51330        3.84470
C          0.06890        1.36460        2.90590
C          0.81740        0.74250        1.91950
N          0.34850       -0.13330        0.95070
C          1.20860       -1.12340        0.44660
C          2.08750       -1.80250        1.28950
C          2.93670       -2.76240        0.78050
C          2.91100       -3.07550       -0.57330
S          4.03950       -4.30800       -1.15410
C          3.12310       -5.06520       -2.53080
C          2.03330       -2.40770       -1.41760
C          1.19210       -1.44010       -0.91030
C         -0.95380       -0.03800        0.44330
C         -1.67620       -1.20070        0.16670
C         -2.99110       -1.12640       -0.23030
C         -3.62630        0.10750       -0.35430
S         -5.34490        0.06650       -0.75580
C         -5.87840        1.78770       -0.58330
C         -2.89220        1.26830       -0.14970
C         -1.56860        1.19380        0.23730
C          2.17000        1.16690        1.97310
S          3.55960        0.81180        1.01890
C         -1.36140        1.26270        3.12730
C         -1.99220        0.02260        3.07090
C         -3.37560       -0.00620        3.02640
N         -4.22070       -1.06820        2.82870
C         -3.84640       -2.45640        2.80890
C         -3.95590       -3.08320        4.19820
C         -5.50200       -0.58810        2.70760
C         -5.49490        0.82160        2.87720
C         -4.13210        1.19310        3.08400
C         -3.48870        2.41380        3.26280
C         -2.11480        2.43870        3.28480
C         -6.68320        1.54010        2.77720
C         -7.83610        0.87620        2.43160
C         -7.83700       -0.51350        2.21010
C         -6.67150       -1.25990        2.41160
C         -9.01820       -1.22060        1.79060
C         -9.96440       -0.80670        0.90980
C         -9.84970        0.33360       -0.03790
O         -9.04750        1.24330       -0.03720
C        -10.89080        0.10560       -1.05740
C        -11.10590        0.86330       -2.20780
C        -12.13960        0.41090       -2.99120
C        -12.90120       -0.71940       -2.66220
C        -12.69950       -1.47690       -1.53390
C        -11.65540       -1.02810       -0.71760
C        -11.14580       -1.57100        0.53480
C        -11.72190       -2.57030        1.27200
C        -11.25610       -3.01720        2.52750
N        -10.95460       -3.42430        3.55800
C        -12.89060       -3.26580        0.89720
N        -13.83380       -3.87230        0.65060
C        -13.75750       -0.60100       -3.89830
C        -15.17380       -0.01950       -3.70430
C        -15.57770        0.41910       -5.09350
C        -14.85930        1.49090       -5.40310
C        -13.95770        1.79490       -4.22830
C        -14.86540        1.34570       -3.07600
C        -12.91120        0.66080       -4.26310
H          6.67900       -0.35560       -1.25450
H         11.72930       -2.10190       -4.57030
H          7.02770       -3.69620       -5.57240
H          9.32620       -5.68370       -7.16140
H          8.24500       -4.02560       -8.94560
H          9.89470       -5.64150      -10.19980
H         12.37760       -4.84070       -9.69840
H         12.25660       -2.72950       -8.13920
H         10.09100       -2.23750       -9.57870
H          9.67780       -2.02800       -7.86150
H         11.75640       -4.89240       -6.66550
H          9.53190        0.65040       -0.74360
H          8.52340        1.90500        1.05570
H          5.85270        0.69190        0.12210
H          6.51230        2.64630        2.37370
H          3.67930        1.54730        5.41590
H          2.73320        1.68740        7.65390
H          0.98190        1.87450        9.21330
H          2.60400        1.86060        9.98210
H          1.20260        2.51250       10.85750
H          2.67860        5.95530        7.36330
H          3.61690        5.80940        5.09110
H          6.20580        4.65220        5.20530
H          7.80890        6.33830        4.39280
H          7.95000        6.98050       -0.34960
H          6.87780        8.35940        0.06350
H          8.62590        8.60930       -0.12770
H          5.88210        6.31610        0.57280
H          4.29360        4.66340        1.38170
H          2.09820       -1.58000        2.34690
H          3.62280       -3.28430        1.42970
H          3.24730       -4.48140       -3.43940
H          3.55730       -6.05040       -2.67030
H          2.07730       -5.15210       -2.25410
H          2.01870       -2.62090       -2.47480
H          0.52330       -0.91000       -1.57170
H         -1.19940       -2.16330        0.28410
H         -3.55420       -2.02560       -0.42850
H         -5.52710        2.17920        0.36590
H         -6.96420        1.75810       -0.58430
H         -5.51330        2.37710       -1.41980
H         -3.33970        2.23910       -0.28770
H         -1.00930        2.10330        0.39690
H         -1.40360       -0.88020        3.02300
H         -2.82130       -2.53220        2.43980
H         -4.49860       -2.98130        2.10630
H         -4.97670       -3.01070        4.56610
H         -3.30040       -2.56710        4.89610
H         -3.67130       -4.13120        4.16050
H         -4.05910        3.32650        3.34630
H         -1.59040        3.37860        3.37460
H         -6.69230        2.60640        2.94630
H         -8.76280        1.41870        2.34850
H         -6.68980       -2.32960        2.26670
H         -9.10560       -2.22960        2.17860
H        -10.48960        1.72060       -2.42950
H        -13.28340       -2.35150       -1.29990
H        -13.73650       -1.45510       -4.57240
H        -15.86450       -0.67060       -3.17570
H        -16.28040       -0.11080       -5.70930
H        -14.84210        2.03500       -6.32910
H        -13.54160        2.79760       -4.17760
H        -14.36330        1.28730       -2.11200
H        -15.75450        1.96760       -2.98630
H        -12.32720        0.64910       -5.18160
