172

C          2.34440        0.72760       -6.86180
C          1.86100       -0.21860       -7.71090
C          0.86460       -1.23480       -7.29980
O          0.50370       -1.48970       -6.16990
C          0.29770       -1.75700       -8.55890
C         -0.73660       -2.68030       -8.69780
C         -1.10610       -2.92230      -10.00010
C         -0.51060       -2.27520      -11.09080
C          0.52510       -1.37890      -10.97260
C          0.92760       -1.13550       -9.65710
C          1.96470       -0.24610       -9.15100
C          2.96350        0.35120       -9.87370
C          3.08940        0.27260      -11.27420
N          3.23240        0.24470      -12.41320
C          4.02430        1.05510       -9.26720
N          4.92870        1.60100       -8.81710
C         -1.43980       -2.92500      -12.08760
C         -0.86540       -4.07020      -12.94520
C         -2.08790       -4.81300      -13.43290
C         -2.61050       -5.45500      -12.39600
C         -1.75310       -5.15140      -11.18770
C         -0.37930       -5.03890      -11.86150
C         -2.07860       -3.67500      -10.87450
C          2.37610        0.60120       -5.43960
C          3.11310       -0.27460       -4.64860
N          4.02480       -1.20740       -5.09360
C          3.69650       -2.08900       -6.14990
C          2.72360       -3.05860       -5.95170
C          2.36580       -3.90920       -6.98060
C          2.98410       -3.79200       -8.21670
S          2.55920       -4.77650       -9.61640
C          1.41960       -6.01870       -8.93780
C          3.99200       -2.84550       -8.40310
C          4.35630       -2.00640       -7.37300
C          5.26970       -1.33280       -4.47600
C          5.88630       -0.23970       -3.87110
C          7.11240       -0.37210       -3.25080
C          7.75560       -1.60160       -3.23490
S          9.31780       -1.89830       -2.46720
C          9.75760       -0.29660       -1.73490
C          7.15740       -2.69150       -3.86400
C          5.93160       -2.56210       -4.47560
C          2.94600        0.02380       -3.27200
S          3.44740       -0.77300       -1.81630
C          2.55150        0.39080       -0.86190
C          1.81560        1.27760       -1.64550
N          0.85170        2.16350       -1.18570
C         -0.00510        1.79300       -0.14250
C         -0.37940        0.46180        0.03180
C         -1.10750        0.07140        1.13620
C         -1.48950        1.00950        2.08660
S         -2.36850        0.59540        3.55970
C         -1.92820       -1.14920        3.81450
C         -1.18460        2.35210        1.87990
C         -0.44950        2.74060        0.78230
C          0.70510        3.39060       -1.84500
C         -0.55350        3.94330       -2.06290
C         -0.68870        5.14930       -2.72200
C          0.43500        5.82030       -3.18600
S          0.39090        7.36080       -4.04540
C         -1.38010        7.72080       -4.21510
C          1.69720        5.27060       -2.96980
C          1.83270        4.07400       -2.30400
C          2.08700        1.07750       -3.01910
S          1.51290        1.79900       -4.48220
C          2.55670        0.29110        0.56580
C          2.26760        1.35290        1.41460
C          2.01670        1.14840        2.76100
C          2.06030       -0.10810        3.35460
C          2.55410       -1.18620        2.55760
N          2.75780       -2.40900        3.07860
C          3.22920       -3.35180        2.30200
C          3.52960       -3.12160        0.95130
N          3.31190       -1.95190        0.41010
C          2.81960       -0.96780        1.17430
C          1.57560       -0.30050        4.69170
S          0.57890        0.95920        5.42420
C          0.29280       -0.04330        6.79500
C         -0.42150       -0.07900        7.99180
C         -0.12510       -1.33660        8.58790
N          0.75300       -2.03650        7.79850
C          1.18500       -3.39530        7.99650
C          0.22750       -4.38850        7.34020
C          0.98830       -1.27010        6.68860
C          1.70230       -1.41160        5.49920
C         -0.78830       -1.53800        9.78170
C         -1.61830       -0.46050       10.11130
S         -1.54930        0.83590        8.91590
C         -2.40620       -0.48640       11.27010
C         -3.34660        0.39630       11.73520
C         -3.77910        1.62750       11.06380
O         -3.30790        2.12920       10.05880
C         -4.91630        2.14500       11.84620
C         -5.69460        3.26340       11.55670
C         -6.71270        3.48280       12.45360
C         -6.94240        2.64900       13.55560
C         -6.18020        1.54450       13.85410
C         -5.13530        1.30520       12.95650
C         -4.14150        0.23250       12.93440
C         -3.99350       -0.72900       13.90290
C         -4.78600       -0.82220       15.06550
N         -5.38420       -0.96540       16.03560
C         -3.02610       -1.75450       13.90620
N         -2.27430       -2.61970       13.99390
C         -8.13200        3.45290       14.01860
C         -7.90510        4.39540       15.21910
C         -9.05540        5.37240       15.13380
C         -8.83570        6.16430       14.09210
C         -7.53310        5.73590       13.45560
C         -6.76520        5.28390       14.70440
C         -7.87400        4.38500       12.79140
H          2.66970        1.68320       -7.26060
H         -1.19560       -3.13100       -7.83090
H          0.97660       -0.88100      -11.81490
H         -2.06520       -2.23790      -12.65460
H         -0.14650       -3.75960      -13.69780
H         -2.46520       -4.75560      -14.43700
H         -3.51220       -6.03820      -12.36010
H         -1.84660       -5.82940      -10.34280
H         -0.04540       -5.98840      -12.27710
H          0.40050       -4.62120      -11.22970
H         -3.13310       -3.51300      -10.65600
H          2.22980       -3.12830       -4.99480
H          1.59640       -4.64280       -6.80600
H          1.90040       -6.54910       -8.12150
H          1.21430       -6.70460       -9.75350
H          0.49800       -5.54220       -8.61590
H          4.47550       -2.77620       -9.36600
H          5.13200       -1.26840       -7.51300
H          5.40920        0.72840       -3.89540
H          7.55710        0.49710       -2.79420
H          9.87980        0.44860       -2.51560
H          9.00050        0.00240       -1.01590
H         10.70440       -0.45730       -1.22860
H          7.66560       -3.64360       -3.85910
H          5.47470       -3.41620       -4.95190
H         -0.08600       -0.27680       -0.69900
H         -1.37520       -0.96750        1.24650
H         -0.86230       -1.28070        3.65120
H         -2.17600       -1.36740        4.84890
H         -2.50800       -1.78940        3.15570
H         -1.50580        3.08070        2.60790
H         -0.18520        3.77940        0.65100
H         -1.43290        3.41960       -1.71870
H         -1.67860        5.54780       -2.87420
H         -1.86790        6.92560       -4.77110
H         -1.43570        8.64940       -4.77460
H         -1.83020        7.85430       -3.23560
H          2.56780        5.79890       -3.32640
H          2.81530        3.66110       -2.12940
H          2.22500        2.35530        1.02110
H          1.73690        1.99600        3.36910
H          3.38190       -4.32050        2.75930
H          3.94690       -3.88750        0.31320
H          1.24320       -3.58160        9.07180
H          2.18580       -3.50070        7.56900
H         -0.77000       -4.28460        7.76100
H          0.57230       -5.40520        7.50610
H          0.17350       -4.20640        6.26930
H          2.27640       -2.26860        5.20420
H         -0.71170       -2.41070       10.40530
H         -2.24900       -1.37970       11.86280
H         -5.48860        3.87190       10.69010
H         -6.37680        0.90900       14.70110
H         -9.07570        2.91330       14.07320
H         -7.75870        3.89260       16.17110
H         -9.91010        5.35120       15.78420
H         -9.47030        6.93670       13.69840
H         -7.04790        6.45570       12.80180
H         -6.55210        6.11170       15.37870
H         -5.84520        4.74400       14.48830
H         -8.64690        4.46880       12.02940
