
  xtb     02172217523D
 energy: -321.181937264645 gnorm: 0.000324275329 xtb: 6.4.1 (unknown)
190209  0     0  0            999 V2000
    3.4294    6.0820   -1.1295 C   0  0  0  0  0  0  0  0  0  0  0  0
    4.0726    6.2636   -2.3351 C   0  0  0  0  0  0  0  0  0  0  0  0
    4.2269    5.2837   -3.4095 C   0  0  0  0  0  0  0  0  0  0  0  0
    4.0007    4.0835   -3.3716 O   0  0  0  0  0  0  0  0  0  0  0  0
    4.7578    6.0165   -4.5707 C   0  0  0  0  0  0  0  0  0  0  0  0
    5.0370    5.4972   -5.8324 C   0  0  0  0  0  0  0  0  0  0  0  0
    5.5138    6.4282   -6.7237 C   0  0  0  0  0  0  0  0  0  0  0  0
    5.7020    7.7737   -6.3836 C   0  0  0  0  0  0  0  0  0  0  0  0
    5.4394    8.2953   -5.1378 C   0  0  0  0  0  0  0  0  0  0  0  0
    4.9493    7.3664   -4.2158 C   0  0  0  0  0  0  0  0  0  0  0  0
    4.5922    7.5263   -2.8049 C   0  0  0  0  0  0  0  0  0  0  0  0
    4.7438    8.6822   -2.0747 C   0  0  0  0  0  0  0  0  0  0  0  0
    4.6215    8.7784   -0.6758 C   0  0  0  0  0  0  0  0  0  0  0  0
    4.5993    8.9242    0.4647 N   0  0  0  0  0  0  0  0  0  0  0  0
    5.0805    9.9322   -2.6283 C   0  0  0  0  0  0  0  0  0  0  0  0
    5.2990   10.9890   -3.0231 N   0  0  0  0  0  0  0  0  0  0  0  0
    6.1951    8.1360   -7.7631 C   0  0  0  0  0  0  0  0  0  0  0  0
    5.1938    8.8611   -8.6870 C   0  0  0  0  0  0  0  0  0  0  0  0
    5.7638    8.6528  -10.0717 C   0  0  0  0  0  0  0  0  0  0  0  0
    5.5885    7.3774  -10.3927 C   0  0  0  0  0  0  0  0  0  0  0  0
    4.8970    6.7020   -9.2306 C   0  0  0  0  0  0  0  0  0  0  0  0
    4.0292    7.8633   -8.7287 C   0  0  0  0  0  0  0  0  0  0  0  0
    5.9876    6.6341   -8.1409 C   0  0  0  0  0  0  0  0  0  0  0  0
    2.7131    4.9904   -0.6427 C   0  0  0  0  0  0  0  0  0  0  0  0
    1.9798    4.9950    0.5731 C   0  0  0  0  0  0  0  0  0  0  0  0
    1.7259    6.0920    1.3554 N   0  0  0  0  0  0  0  0  0  0  0  0
    1.5139    5.9014    2.7339 C   0  0  0  0  0  0  0  0  0  0  0  0
    2.3790    5.0984    3.4699 C   0  0  0  0  0  0  0  0  0  0  0  0
    2.1875    4.9143    4.8251 C   0  0  0  0  0  0  0  0  0  0  0  0
    1.1248    5.5363    5.4663 C   0  0  0  0  0  0  0  0  0  0  0  0
    0.7866    5.3950    7.1911 S   0  0  0  0  0  0  0  0  0  0  0  0
    2.0226    4.2072    7.7863 C   0  0  0  0  0  0  0  0  0  0  0  0
    0.2572    6.3431    4.7305 C   0  0  0  0  0  0  0  0  0  0  0  0
    0.4470    6.5247    3.3802 C   0  0  0  0  0  0  0  0  0  0  0  0
    1.5366    7.3820    0.8291 C   0  0  0  0  0  0  0  0  0  0  0  0
    1.9451    8.4968    1.5613 C   0  0  0  0  0  0  0  0  0  0  0  0
    1.7980    9.7627    1.0382 C   0  0  0  0  0  0  0  0  0  0  0  0
    1.2638    9.9425   -0.2342 C   0  0  0  0  0  0  0  0  0  0  0  0
    1.1825   11.5939   -0.8505 S   0  0  0  0  0  0  0  0  0  0  0  0
    1.1709   11.3568   -2.6519 C   0  0  0  0  0  0  0  0  0  0  0  0
    0.8122    8.8376   -0.9477 C   0  0  0  0  0  0  0  0  0  0  0  0
    0.9340    7.5715   -0.4137 C   0  0  0  0  0  0  0  0  0  0  0  0
    1.4806    3.7117    0.8679 C   0  0  0  0  0  0  0  0  0  0  0  0
    0.4904    3.0601    2.1448 S   0  0  0  0  0  0  0  0  0  0  0  0
    0.4881    1.5038    1.3462 C   0  0  0  0  0  0  0  0  0  0  0  0
    1.0852    1.5326    0.0856 C   0  0  0  0  0  0  0  0  0  0  0  0
    0.9594    0.5567   -0.8799 N   0  0  0  0  0  0  0  0  0  0  0  0
    1.9378    0.4636   -1.8805 C   0  0  0  0  0  0  0  0  0  0  0  0
    3.2864    0.5708   -1.5494 C   0  0  0  0  0  0  0  0  0  0  0  0
    4.2479    0.5943   -2.5385 C   0  0  0  0  0  0  0  0  0  0  0  0
    3.8723    0.5071   -3.8716 C   0  0  0  0  0  0  0  0  0  0  0  0
    5.0477    0.6234   -5.1855 S   0  0  0  0  0  0  0  0  0  0  0  0
    6.2102    1.8456   -4.5041 C   0  0  0  0  0  0  0  0  0  0  0  0
    2.5338    0.3224   -4.2017 C   0  0  0  0  0  0  0  0  0  0  0  0
    1.5721    0.3028   -3.2162 C   0  0  0  0  0  0  0  0  0  0  0  0
   -0.2116   -0.2120   -0.9835 C   0  0  0  0  0  0  0  0  0  0  0  0
   -1.4662    0.3328   -0.6997 C   0  0  0  0  0  0  0  0  0  0  0  0
   -2.5909   -0.4583   -0.7347 C   0  0  0  0  0  0  0  0  0  0  0  0
   -2.4976   -1.8109   -1.0662 C   0  0  0  0  0  0  0  0  0  0  0  0
   -4.0045   -2.7232   -1.0536 S   0  0  0  0  0  0  0  0  0  0  0  0
   -3.5264   -4.3941   -1.5657 C   0  0  0  0  0  0  0  0  0  0  0  0
   -1.2583   -2.3484   -1.3878 C   0  0  0  0  0  0  0  0  0  0  0  0
   -0.1295   -1.5536   -1.3485 C   0  0  0  0  0  0  0  0  0  0  0  0
    1.7107    2.7834   -0.1394 C   0  0  0  0  0  0  0  0  0  0  0  0
    2.6364    3.4204   -1.4478 S   0  0  0  0  0  0  0  0  0  0  0  0
   -0.1974    0.4013    1.9419 C   0  0  0  0  0  0  0  0  0  0  0  0
    0.1228   -0.9259    1.6927 C   0  0  0  0  0  0  0  0  0  0  0  0
    1.3050   -1.2368    1.1240 F   0  0  0  0  0  0  0  0  0  0  0  0
   -0.7626   -1.9670    1.9830 C   0  0  0  0  0  0  0  0  0  0  0  0
   -0.4362   -3.1842    1.5206 F   0  0  0  0  0  0  0  0  0  0  0  0
   -1.9786   -1.7388    2.6005 C   0  0  0  0  0  0  0  0  0  0  0  0
   -2.2221   -0.4250    3.0848 C   0  0  0  0  0  0  0  0  0  0  0  0
   -3.2960   -0.1762    3.8502 N   0  0  0  0  0  0  0  0  0  0  0  0
   -3.5205    1.0449    4.2709 C   0  0  0  0  0  0  0  0  0  0  0  0
   -4.7824    1.2431    5.0526 C   0  0  0  0  0  0  0  0  0  0  0  0
   -5.9223    1.6000    4.0940 C   0  0  0  0  0  0  0  0  0  0  0  0
   -2.6277    2.1053    3.9481 C   0  0  0  0  0  0  0  0  0  0  0  0
   -1.5677    1.8695    3.2124 N   0  0  0  0  0  0  0  0  0  0  0  0
   -1.3344    0.6305    2.7655 C   0  0  0  0  0  0  0  0  0  0  0  0
   -2.7607    3.4995    4.4774 C   0  0  0  0  0  0  0  0  0  0  0  0
   -2.0738    3.5952    5.8417 C   0  0  0  0  0  0  0  0  0  0  0  0
   -3.0051   -2.7725    2.6746 C   0  0  0  0  0  0  0  0  0  0  0  0
   -4.2960   -2.5232    2.2475 C   0  0  0  0  0  0  0  0  0  0  0  0
   -4.6626   -1.2988    1.8425 F   0  0  0  0  0  0  0  0  0  0  0  0
   -5.2380   -3.5531    2.1263 C   0  0  0  0  0  0  0  0  0  0  0  0
   -6.4521   -3.2530    1.6397 F   0  0  0  0  0  0  0  0  0  0  0  0
   -4.9217   -4.8731    2.3880 C   0  0  0  0  0  0  0  0  0  0  0  0
   -3.6369   -5.1404    2.9418 C   0  0  0  0  0  0  0  0  0  0  0  0
   -3.3404   -6.3774    3.3656 N   0  0  0  0  0  0  0  0  0  0  0  0
   -2.1487   -6.6236    3.8478 C   0  0  0  0  0  0  0  0  0  0  0  0
   -1.9156   -8.0204    4.3388 C   0  0  0  0  0  0  0  0  0  0  0  0
   -2.2821   -8.1282    5.8213 C   0  0  0  0  0  0  0  0  0  0  0  0
   -1.1869   -5.5800    3.9684 C   0  0  0  0  0  0  0  0  0  0  0  0
   -1.4897   -4.3542    3.6252 N   0  0  0  0  0  0  0  0  0  0  0  0
   -2.6925   -4.0952    3.0882 C   0  0  0  0  0  0  0  0  0  0  0  0
    0.2102   -5.7958    4.4629 C   0  0  0  0  0  0  0  0  0  0  0  0
    1.1148   -6.1526    3.2798 C   0  0  0  0  0  0  0  0  0  0  0  0
   -5.8506   -5.9462    2.1395 C   0  0  0  0  0  0  0  0  0  0  0  0
   -5.4905   -7.1170    1.5635 C   0  0  0  0  0  0  0  0  0  0  0  0
   -4.2418   -7.3212    0.7768 C   0  0  0  0  0  0  0  0  0  0  0  0
   -3.3070   -6.5607    0.6383 O   0  0  0  0  0  0  0  0  0  0  0  0
   -4.4241   -8.6019    0.0729 C   0  0  0  0  0  0  0  0  0  0  0  0
   -3.5455   -9.1753   -0.8447 C   0  0  0  0  0  0  0  0  0  0  0  0
   -3.9892  -10.3586   -1.3820 C   0  0  0  0  0  0  0  0  0  0  0  0
   -5.2244  -10.9290   -1.0418 C   0  0  0  0  0  0  0  0  0  0  0  0
   -6.1037  -10.3720   -0.1446 C   0  0  0  0  0  0  0  0  0  0  0  0
   -5.6665   -9.1701    0.4220 C   0  0  0  0  0  0  0  0  0  0  0  0
   -6.3190   -8.3008    1.3933 C   0  0  0  0  0  0  0  0  0  0  0  0
   -7.4555   -8.5849    2.0989 C   0  0  0  0  0  0  0  0  0  0  0  0
   -7.9957   -7.7588    3.1091 C   0  0  0  0  0  0  0  0  0  0  0  0
   -8.4799   -7.1561    3.9574 N   0  0  0  0  0  0  0  0  0  0  0  0
   -8.2148   -9.7644    1.9466 C   0  0  0  0  0  0  0  0  0  0  0  0
   -8.8741  -10.7007    1.8679 N   0  0  0  0  0  0  0  0  0  0  0  0
   -5.0239  -12.1053   -1.9641 C   0  0  0  0  0  0  0  0  0  0  0  0
   -4.6153  -13.4578   -1.3297 C   0  0  0  0  0  0  0  0  0  0  0  0
   -3.8931  -13.1286   -0.0467 C   0  0  0  0  0  0  0  0  0  0  0  0
   -2.7243  -12.5897   -0.3668 C   0  0  0  0  0  0  0  0  0  0  0  0
   -2.6350  -12.5442   -1.8723 C   0  0  0  0  0  0  0  0  0  0  0  0
   -3.4211  -13.8157   -2.2290 C   0  0  0  0  0  0  0  0  0  0  0  0
   -3.6481  -11.4706   -2.3412 C   0  0  0  0  0  0  0  0  0  0  0  0
    3.4386    6.9353   -0.4644 H   0  0  0  0  0  0  0  0  0  0  0  0
    4.8776    4.4531   -6.0522 H   0  0  0  0  0  0  0  0  0  0  0  0
    5.5994    9.3316   -4.8908 H   0  0  0  0  0  0  0  0  0  0  0  0
    7.1993    8.5525   -7.8142 H   0  0  0  0  0  0  0  0  0  0  0  0
    4.9677    9.8843   -8.3996 H   0  0  0  0  0  0  0  0  0  0  0  0
    6.2694    9.4163  -10.6333 H   0  0  0  0  0  0  0  0  0  0  0  0
    5.9182    6.8625  -11.2760 H   0  0  0  0  0  0  0  0  0  0  0  0
    4.4004    5.7579   -9.4377 H   0  0  0  0  0  0  0  0  0  0  0  0
    3.5639    7.6833   -7.7613 H   0  0  0  0  0  0  0  0  0  0  0  0
    3.2673    8.1501   -9.4518 H   0  0  0  0  0  0  0  0  0  0  0  0
    6.8545    6.0487   -8.4421 H   0  0  0  0  0  0  0  0  0  0  0  0
    3.2149    4.6246    2.9773 H   0  0  0  0  0  0  0  0  0  0  0  0
    2.8808    4.2926    5.3675 H   0  0  0  0  0  0  0  0  0  0  0  0
    3.0214    4.6182    7.6721 H   0  0  0  0  0  0  0  0  0  0  0  0
    1.9174    3.2661    7.2546 H   0  0  0  0  0  0  0  0  0  0  0  0
    1.8040    4.0621    8.8397 H   0  0  0  0  0  0  0  0  0  0  0  0
   -0.5671    6.8232    5.2348 H   0  0  0  0  0  0  0  0  0  0  0  0
   -0.2298    7.1476    2.8152 H   0  0  0  0  0  0  0  0  0  0  0  0
    2.4037    8.3639    2.5283 H   0  0  0  0  0  0  0  0  0  0  0  0
    2.1322   10.6229    1.5954 H   0  0  0  0  0  0  0  0  0  0  0  0
    1.3801   12.3329   -3.0779 H   0  0  0  0  0  0  0  0  0  0  0  0
    1.9560   10.6596   -2.9288 H   0  0  0  0  0  0  0  0  0  0  0  0
    0.1976   11.0105   -2.9877 H   0  0  0  0  0  0  0  0  0  0  0  0
    0.3532    8.9553   -1.9166 H   0  0  0  0  0  0  0  0  0  0  0  0
    0.5749    6.7194   -0.9720 H   0  0  0  0  0  0  0  0  0  0  0  0
    3.5742    0.6384   -0.5109 H   0  0  0  0  0  0  0  0  0  0  0  0
    5.2865    0.6876   -2.2645 H   0  0  0  0  0  0  0  0  0  0  0  0
    5.6342    2.6146   -3.9976 H   0  0  0  0  0  0  0  0  0  0  0  0
    6.9135    1.3681   -3.8279 H   0  0  0  0  0  0  0  0  0  0  0  0
    6.7460    2.2641   -5.3506 H   0  0  0  0  0  0  0  0  0  0  0  0
    2.2544    0.2282   -5.2397 H   0  0  0  0  0  0  0  0  0  0  0  0
    0.5289    0.1996   -3.4761 H   0  0  0  0  0  0  0  0  0  0  0  0
   -1.5548    1.3786   -0.4462 H   0  0  0  0  0  0  0  0  0  0  0  0
   -3.5590   -0.0418   -0.5033 H   0  0  0  0  0  0  0  0  0  0  0  0
   -3.0160   -4.3566   -2.5235 H   0  0  0  0  0  0  0  0  0  0  0  0
   -4.4594   -4.9408   -1.6699 H   0  0  0  0  0  0  0  0  0  0  0  0
   -2.9166   -4.8637   -0.7986 H   0  0  0  0  0  0  0  0  0  0  0  0
   -1.1523   -3.3899   -1.6427 H   0  0  0  0  0  0  0  0  0  0  0  0
    0.8359   -1.9818   -1.5725 H   0  0  0  0  0  0  0  0  0  0  0  0
   -4.6625    2.0254    5.8014 H   0  0  0  0  0  0  0  0  0  0  0  0
   -5.0216    0.3040    5.5526 H   0  0  0  0  0  0  0  0  0  0  0  0
   -6.8522    1.7162    4.6448 H   0  0  0  0  0  0  0  0  0  0  0  0
   -6.0464    0.8095    3.3586 H   0  0  0  0  0  0  0  0  0  0  0  0
   -5.7110    2.5284    3.5674 H   0  0  0  0  0  0  0  0  0  0  0  0
   -3.8083    3.7863    4.5623 H   0  0  0  0  0  0  0  0  0  0  0  0
   -2.2576    4.1743    3.7838 H   0  0  0  0  0  0  0  0  0  0  0  0
   -2.5278    2.9136    6.5579 H   0  0  0  0  0  0  0  0  0  0  0  0
   -1.0229    3.3384    5.7386 H   0  0  0  0  0  0  0  0  0  0  0  0
   -2.1448    4.6068    6.2313 H   0  0  0  0  0  0  0  0  0  0  0  0
   -0.8769   -8.3135    4.1876 H   0  0  0  0  0  0  0  0  0  0  0  0
   -2.5580   -8.6900    3.7648 H   0  0  0  0  0  0  0  0  0  0  0  0
   -2.1296   -9.1459    6.1720 H   0  0  0  0  0  0  0  0  0  0  0  0
   -1.6721   -7.4580    6.4234 H   0  0  0  0  0  0  0  0  0  0  0  0
   -3.3266   -7.8630    5.9648 H   0  0  0  0  0  0  0  0  0  0  0  0
    0.2456   -6.5839    5.2146 H   0  0  0  0  0  0  0  0  0  0  0  0
    0.5593   -4.8633    4.9077 H   0  0  0  0  0  0  0  0  0  0  0  0
    0.7824   -7.0710    2.8005 H   0  0  0  0  0  0  0  0  0  0  0  0
    1.0881   -5.3537    2.5435 H   0  0  0  0  0  0  0  0  0  0  0  0
    2.1395   -6.2863    3.6179 H   0  0  0  0  0  0  0  0  0  0  0  0
   -6.8808   -5.7669    2.4199 H   0  0  0  0  0  0  0  0  0  0  0  0
   -2.6082   -8.6979   -1.0852 H   0  0  0  0  0  0  0  0  0  0  0  0
   -7.0566  -10.8132    0.0963 H   0  0  0  0  0  0  0  0  0  0  0  0
   -5.7643  -12.2238   -2.7525 H   0  0  0  0  0  0  0  0  0  0  0  0
   -5.4213  -14.1824   -1.2544 H   0  0  0  0  0  0  0  0  0  0  0  0
   -4.3176  -13.2652    0.9306 H   0  0  0  0  0  0  0  0  0  0  0  0
   -1.9762  -12.1853    0.2897 H   0  0  0  0  0  0  0  0  0  0  0  0
   -1.6379  -12.4375   -2.2916 H   0  0  0  0  0  0  0  0  0  0  0  0
   -2.9144  -14.7263   -1.9134 H   0  0  0  0  0  0  0  0  0  0  0  0
   -3.6783  -13.8849   -3.2851 H   0  0  0  0  0  0  0  0  0  0  0  0
   -3.4895  -11.1746   -3.3764 H   0  0  0  0  0  0  0  0  0  0  0  0
  1  2  2  0  0  0  0
  2  3  1  0  0  0  0
  3  4  2  0  0  0  0
  3  5  1  0  0  0  0
  5  6  2  0  0  0  0
  6  7  1  0  0  0  0
  7  8  2  0  0  0  0
  8  9  1  0  0  0  0
  9 10  2  0  0  0  0
 10 11  1  0  0  0  0
 11 12  2  0  0  0  0
 12 13  1  0  0  0  0
 13 14  3  0  0  0  0
 12 15  1  0  0  0  0
 15 16  3  0  0  0  0
  8 17  1  0  0  0  0
 17 18  1  0  0  0  0
 18 19  1  0  0  0  0
 19 20  2  0  0  0  0
 20 21  1  0  0  0  0
 21 22  1  0  0  0  0
 21 23  1  0  0  0  0
  1 24  1  0  0  0  0
 24 25  2  0  0  0  0
 25 26  1  0  0  0  0
 26 27  1  0  0  0  0
 27 28  2  0  0  0  0
 28 29  1  0  0  0  0
 29 30  2  0  0  0  0
 30 31  1  0  0  0  0
 31 32  1  0  0  0  0
 30 33  1  0  0  0  0
 33 34  2  0  0  0  0
 26 35  1  0  0  0  0
 35 36  2  0  0  0  0
 36 37  1  0  0  0  0
 37 38  2  0  0  0  0
 38 39  1  0  0  0  0
 39 40  1  0  0  0  0
 38 41  1  0  0  0  0
 41 42  2  0  0  0  0
 25 43  1  0  0  0  0
 43 44  1  0  0  0  0
 44 45  1  0  0  0  0
 45 46  2  0  0  0  0
 46 47  1  0  0  0  0
 47 48  1  0  0  0  0
 48 49  2  0  0  0  0
 49 50  1  0  0  0  0
 50 51  2  0  0  0  0
 51 52  1  0  0  0  0
 52 53  1  0  0  0  0
 51 54  1  0  0  0  0
 54 55  2  0  0  0  0
 47 56  1  0  0  0  0
 56 57  2  0  0  0  0
 57 58  1  0  0  0  0
 58 59  2  0  0  0  0
 59 60  1  0  0  0  0
 60 61  1  0  0  0  0
 59 62  1  0  0  0  0
 62 63  2  0  0  0  0
 46 64  1  0  0  0  0
 64 65  1  0  0  0  0
 45 66  1  0  0  0  0
 66 67  2  0  0  0  0
 67 68  1  0  0  0  0
 67 69  1  0  0  0  0
 69 70  1  0  0  0  0
 69 71  2  0  0  0  0
 71 72  1  0  0  0  0
 72 73  2  0  0  0  0
 73 74  1  0  0  0  0
 74 75  1  0  0  0  0
 75 76  1  0  0  0  0
 74 77  2  0  0  0  0
 77 78  1  0  0  0  0
 78 79  2  0  0  0  0
 77 80  1  0  0  0  0
 80 81  1  0  0  0  0
 71 82  1  0  0  0  0
 82 83  2  0  0  0  0
 83 84  1  0  0  0  0
 83 85  1  0  0  0  0
 85 86  1  0  0  0  0
 85 87  2  0  0  0  0
 87 88  1  0  0  0  0
 88 89  2  0  0  0  0
 89 90  1  0  0  0  0
 90 91  1  0  0  0  0
 91 92  1  0  0  0  0
 90 93  2  0  0  0  0
 93 94  1  0  0  0  0
 94 95  2  0  0  0  0
 93 96  1  0  0  0  0
 96 97  1  0  0  0  0
 87 98  1  0  0  0  0
 98 99  2  0  0  0  0
 99100  1  0  0  0  0
100101  2  0  0  0  0
100102  1  0  0  0  0
102103  2  0  0  0  0
103104  1  0  0  0  0
104105  2  0  0  0  0
105106  1  0  0  0  0
106107  2  0  0  0  0
107108  1  0  0  0  0
108109  2  0  0  0  0
109110  1  0  0  0  0
110111  3  0  0  0  0
109112  1  0  0  0  0
112113  3  0  0  0  0
105114  1  0  0  0  0
114115  1  0  0  0  0
115116  1  0  0  0  0
116117  2  0  0  0  0
117118  1  0  0  0  0
118119  1  0  0  0  0
118120  1  0  0  0  0
 11  2  1  0  0  0  0
 23 17  1  0  0  0  0
 65 24  1  0  0  0  0
 79 66  1  0  0  0  0
 95 82  1  0  0  0  0
108 99  1  0  0  0  0
120114  1  0  0  0  0
 10  5  1  0  0  0  0
 22 18  1  0  0  0  0
 34 27  1  0  0  0  0
 42 35  1  0  0  0  0
 64 43  2  0  0  0  0
 79 72  1  0  0  0  0
 95 88  1  0  0  0  0
107102  1  0  0  0  0
119115  1  0  0  0  0
 23  7  1  0  0  0  0
 55 48  1  0  0  0  0
 63 56  1  0  0  0  0
120104  1  0  0  0  0
  1121  1  0  0  0  0
  6122  1  0  0  0  0
  9123  1  0  0  0  0
 17124  1  0  0  0  0
 18125  1  0  0  0  0
 19126  1  0  0  0  0
 20127  1  0  0  0  0
 21128  1  0  0  0  0
 22129  1  0  0  0  0
 22130  1  0  0  0  0
 23131  1  0  0  0  0
 28132  1  0  0  0  0
 29133  1  0  0  0  0
 32134  1  0  0  0  0
 32135  1  0  0  0  0
 32136  1  0  0  0  0
 33137  1  0  0  0  0
 34138  1  0  0  0  0
 36139  1  0  0  0  0
 37140  1  0  0  0  0
 40141  1  0  0  0  0
 40142  1  0  0  0  0
 40143  1  0  0  0  0
 41144  1  0  0  0  0
 42145  1  0  0  0  0
 49146  1  0  0  0  0
 50147  1  0  0  0  0
 53148  1  0  0  0  0
 53149  1  0  0  0  0
 53150  1  0  0  0  0
 54151  1  0  0  0  0
 55152  1  0  0  0  0
 57153  1  0  0  0  0
 58154  1  0  0  0  0
 61155  1  0  0  0  0
 61156  1  0  0  0  0
 61157  1  0  0  0  0
 62158  1  0  0  0  0
 63159  1  0  0  0  0
 75160  1  0  0  0  0
 75161  1  0  0  0  0
 76162  1  0  0  0  0
 76163  1  0  0  0  0
 76164  1  0  0  0  0
 80165  1  0  0  0  0
 80166  1  0  0  0  0
 81167  1  0  0  0  0
 81168  1  0  0  0  0
 81169  1  0  0  0  0
 91170  1  0  0  0  0
 91171  1  0  0  0  0
 92172  1  0  0  0  0
 92173  1  0  0  0  0
 92174  1  0  0  0  0
 96175  1  0  0  0  0
 96176  1  0  0  0  0
 97177  1  0  0  0  0
 97178  1  0  0  0  0
 97179  1  0  0  0  0
 98180  1  0  0  0  0
103181  1  0  0  0  0
106182  1  0  0  0  0
114183  1  0  0  0  0
115184  1  0  0  0  0
116185  1  0  0  0  0
117186  1  0  0  0  0
118187  1  0  0  0  0
119188  1  0  0  0  0
119189  1  0  0  0  0
120190  1  0  0  0  0
M  END
