
  xtb     02152211363D
 energy: -339.875566445469 gnorm: 0.000568443964 xtb: 6.4.1 (unknown)
201220  0     0  0            999 V2000
   -5.8634   -1.8700    2.5435 C   0  0  0  0  0  0  0  0  0  0  0  0
   -6.0504   -2.4315    3.7879 C   0  0  0  0  0  0  0  0  0  0  0  0
   -5.0254   -3.2163    4.4934 C   0  0  0  0  0  0  0  0  0  0  0  0
   -3.8903   -3.4491    4.1210 O   0  0  0  0  0  0  0  0  0  0  0  0
   -5.7020   -3.7872    5.6770 C   0  0  0  0  0  0  0  0  0  0  0  0
   -5.1441   -4.6174    6.6431 C   0  0  0  0  0  0  0  0  0  0  0  0
   -6.0205   -4.9898    7.6352 C   0  0  0  0  0  0  0  0  0  0  0  0
   -7.3567   -4.5738    7.6597 C   0  0  0  0  0  0  0  0  0  0  0  0
   -7.9210   -3.7564    6.7081 C   0  0  0  0  0  0  0  0  0  0  0  0
   -7.0449   -3.3635    5.6951 C   0  0  0  0  0  0  0  0  0  0  0  0
   -7.2709   -2.4981    4.5389 C   0  0  0  0  0  0  0  0  0  0  0  0
   -8.3957   -1.7447    4.3002 C   0  0  0  0  0  0  0  0  0  0  0  0
   -8.5108   -0.8175    3.2464 C   0  0  0  0  0  0  0  0  0  0  0  0
   -8.6635   -0.0235    2.4297 N   0  0  0  0  0  0  0  0  0  0  0  0
   -9.5381   -1.7379    5.1198 C   0  0  0  0  0  0  0  0  0  0  0  0
  -10.4922   -1.6734    5.7576 N   0  0  0  0  0  0  0  0  0  0  0  0
   -7.6562   -5.3395    8.9248 C   0  0  0  0  0  0  0  0  0  0  0  0
   -8.4312   -6.6740    8.7958 C   0  0  0  0  0  0  0  0  0  0  0  0
   -8.1392   -7.2079    7.4156 C   0  0  0  0  0  0  0  0  0  0  0  0
   -6.8726   -7.6005    7.3930 C   0  0  0  0  0  0  0  0  0  0  0  0
   -6.2853   -7.3391    8.7578 C   0  0  0  0  0  0  0  0  0  0  0  0
   -7.5223   -7.5851    9.6363 C   0  0  0  0  0  0  0  0  0  0  0  0
   -6.1650   -5.8015    8.8989 C   0  0  0  0  0  0  0  0  0  0  0  0
   -4.6422   -1.4721    1.9925 C   0  0  0  0  0  0  0  0  0  0  0  0
   -3.4290   -1.0703    2.5927 C   0  0  0  0  0  0  0  0  0  0  0  0
   -3.2130   -0.8533    3.9236 N   0  0  0  0  0  0  0  0  0  0  0  0
   -1.9147   -1.0149    4.4553 C   0  0  0  0  0  0  0  0  0  0  0  0
   -1.1672   -2.1490    4.1607 C   0  0  0  0  0  0  0  0  0  0  0  0
    0.0558   -2.3442    4.7714 C   0  0  0  0  0  0  0  0  0  0  0  0
    0.5702   -1.4086    5.6606 C   0  0  0  0  0  0  0  0  0  0  0  0
    1.8866   -1.6220    6.3433 C   0  0  0  0  0  0  0  0  0  0  0  0
   -0.1704   -0.2595    5.9172 C   0  0  0  0  0  0  0  0  0  0  0  0
   -1.4038   -0.0618    5.3304 C   0  0  0  0  0  0  0  0  0  0  0  0
   -4.2431   -0.5053    4.8074 C   0  0  0  0  0  0  0  0  0  0  0  0
   -4.2699   -1.0380    6.0947 C   0  0  0  0  0  0  0  0  0  0  0  0
   -5.3068   -0.7287    6.9552 C   0  0  0  0  0  0  0  0  0  0  0  0
   -6.3357    0.1178    6.5658 C   0  0  0  0  0  0  0  0  0  0  0  0
   -7.4871    0.4140    7.4743 C   0  0  0  0  0  0  0  0  0  0  0  0
   -6.2776    0.6814    5.2929 C   0  0  0  0  0  0  0  0  0  0  0  0
   -5.2513    0.3789    4.4239 C   0  0  0  0  0  0  0  0  0  0  0  0
   -2.4666   -0.7585    1.6052 C   0  0  0  0  0  0  0  0  0  0  0  0
   -0.8300   -0.1763    1.6505 S   0  0  0  0  0  0  0  0  0  0  0  0
   -0.8187   -0.0065   -0.1015 C   0  0  0  0  0  0  0  0  0  0  0  0
   -1.9989   -0.4708   -0.6812 C   0  0  0  0  0  0  0  0  0  0  0  0
   -2.2376   -0.5357   -2.0481 N   0  0  0  0  0  0  0  0  0  0  0  0
   -3.4966   -0.1081   -2.5047 C   0  0  0  0  0  0  0  0  0  0  0  0
   -4.2229   -0.8493   -3.4294 C   0  0  0  0  0  0  0  0  0  0  0  0
   -5.4695   -0.4140   -3.8373 C   0  0  0  0  0  0  0  0  0  0  0  0
   -6.0228    0.7557   -3.3345 C   0  0  0  0  0  0  0  0  0  0  0  0
   -7.3727    1.2329   -3.7704 C   0  0  0  0  0  0  0  0  0  0  0  0
   -5.2872    1.4904   -2.4104 C   0  0  0  0  0  0  0  0  0  0  0  0
   -4.0397    1.0714   -2.0008 C   0  0  0  0  0  0  0  0  0  0  0  0
   -1.3516   -1.2117   -2.8922 C   0  0  0  0  0  0  0  0  0  0  0  0
   -0.5216   -2.2176   -2.4054 C   0  0  0  0  0  0  0  0  0  0  0  0
    0.3837   -2.8381   -3.2449 C   0  0  0  0  0  0  0  0  0  0  0  0
    0.4862   -2.4839   -4.5835 C   0  0  0  0  0  0  0  0  0  0  0  0
    1.4604   -3.1637   -5.4961 C   0  0  0  0  0  0  0  0  0  0  0  0
   -0.3539   -1.4844   -5.0644 C   0  0  0  0  0  0  0  0  0  0  0  0
   -1.2575   -0.8523   -4.2376 C   0  0  0  0  0  0  0  0  0  0  0  0
   -2.9310   -0.8592    0.2995 C   0  0  0  0  0  0  0  0  0  0  0  0
   -4.5794   -1.3510    0.2274 S   0  0  0  0  0  0  0  0  0  0  0  0
    0.1848    0.7245   -0.7818 C   0  0  0  0  0  0  0  0  0  0  0  0
    1.4332    1.1533   -0.3368 C   0  0  0  0  0  0  0  0  0  0  0  0
    2.0674    0.7396    0.8235 N   0  0  0  0  0  0  0  0  0  0  0  0
    2.8398    1.7067    1.4912 C   0  0  0  0  0  0  0  0  0  0  0  0
    2.2957    2.9660    1.7248 C   0  0  0  0  0  0  0  0  0  0  0  0
    3.0368    3.9541    2.3431 C   0  0  0  0  0  0  0  0  0  0  0  0
    4.3402    3.6937    2.7425 C   0  0  0  0  0  0  0  0  0  0  0  0
    5.3874    4.8668    3.5424 S   0  0  0  0  0  0  0  0  0  0  0  0
    4.4154    6.4001    3.5354 C   0  0  0  0  0  0  0  0  0  0  0  0
    4.8870    2.4312    2.5147 C   0  0  0  0  0  0  0  0  0  0  0  0
    4.1503    1.4492    1.8930 C   0  0  0  0  0  0  0  0  0  0  0  0
    2.1617   -0.6120    1.1625 C   0  0  0  0  0  0  0  0  0  0  0  0
    1.9921   -1.6134    0.2094 C   0  0  0  0  0  0  0  0  0  0  0  0
    2.0818   -2.9469    0.5589 C   0  0  0  0  0  0  0  0  0  0  0  0
    2.3831   -3.3052    1.8644 C   0  0  0  0  0  0  0  0  0  0  0  0
    2.5247   -4.9683    2.4407 S   0  0  0  0  0  0  0  0  0  0  0  0
    2.3061   -5.9721    0.9457 C   0  0  0  0  0  0  0  0  0  0  0  0
    2.5828   -2.3059    2.8146 C   0  0  0  0  0  0  0  0  0  0  0  0
    2.4472   -0.9800    2.4788 C   0  0  0  0  0  0  0  0  0  0  0  0
    2.0188    2.0575   -1.2528 C   0  0  0  0  0  0  0  0  0  0  0  0
    3.5435    2.8754   -1.3301 S   0  0  0  0  0  0  0  0  0  0  0  0
    3.1176    3.5390   -2.9011 C   0  0  0  0  0  0  0  0  0  0  0  0
    1.8896    3.0756   -3.3692 C   0  0  0  0  0  0  0  0  0  0  0  0
    1.4228    3.2341   -4.6564 N   0  0  0  0  0  0  0  0  0  0  0  0
    0.0469    3.1393   -4.9055 C   0  0  0  0  0  0  0  0  0  0  0  0
   -0.4304    2.4128   -5.9925 C   0  0  0  0  0  0  0  0  0  0  0  0
   -1.7877    2.2922   -6.2153 C   0  0  0  0  0  0  0  0  0  0  0  0
   -2.6937    2.8927   -5.3495 C   0  0  0  0  0  0  0  0  0  0  0  0
   -4.4436    2.8127   -5.5457 S   0  0  0  0  0  0  0  0  0  0  0  0
   -4.6832    1.4316   -6.6987 C   0  0  0  0  0  0  0  0  0  0  0  0
   -2.2189    3.6374   -4.2723 C   0  0  0  0  0  0  0  0  0  0  0  0
   -0.8655    3.7652   -4.0543 C   0  0  0  0  0  0  0  0  0  0  0  0
    2.3435    3.2907   -5.7201 C   0  0  0  0  0  0  0  0  0  0  0  0
    3.5022    2.5182   -5.6921 C   0  0  0  0  0  0  0  0  0  0  0  0
    4.4902    2.6970   -6.6365 C   0  0  0  0  0  0  0  0  0  0  0  0
    4.3253    3.6432   -7.6405 C   0  0  0  0  0  0  0  0  0  0  0  0
    5.5786    4.0253   -8.8229 S   0  0  0  0  0  0  0  0  0  0  0  0
    7.0873    3.3980   -8.0300 C   0  0  0  0  0  0  0  0  0  0  0  0
    3.1231    4.3397   -7.7343 C   0  0  0  0  0  0  0  0  0  0  0  0
    2.1405    4.1689   -6.7820 C   0  0  0  0  0  0  0  0  0  0  0  0
    1.2598    2.2749   -2.3927 C   0  0  0  0  0  0  0  0  0  0  0  0
   -0.2194    1.3924   -2.3617 S   0  0  0  0  0  0  0  0  0  0  0  0
    4.0210    4.3935   -3.5934 C   0  0  0  0  0  0  0  0  0  0  0  0
    3.7625    5.4985   -4.4058 C   0  0  0  0  0  0  0  0  0  0  0  0
    4.9955    5.9527   -4.8444 C   0  0  0  0  0  0  0  0  0  0  0  0
    5.9569    5.0928   -4.3034 C   0  0  0  0  0  0  0  0  0  0  0  0
    5.3374    4.1757   -3.5241 O   0  0  0  0  0  0  0  0  0  0  0  0
    7.3458    5.1164   -4.5055 C   0  0  0  0  0  0  0  0  0  0  0  0
    8.2504    4.1270   -4.1999 C   0  0  0  0  0  0  0  0  0  0  0  0
    7.9139    2.7181   -3.8966 C   0  0  0  0  0  0  0  0  0  0  0  0
    6.8421    2.1599   -3.9833 O   0  0  0  0  0  0  0  0  0  0  0  0
    9.2119    2.0585   -3.6120 C   0  0  0  0  0  0  0  0  0  0  0  0
    9.4410    0.7570   -3.2188 C   0  0  0  0  0  0  0  0  0  0  0  0
   10.7617    0.3674   -3.0172 C   0  0  0  0  0  0  0  0  0  0  0  0
   11.0641   -1.0478   -2.6099 C   0  0  0  0  0  0  0  0  0  0  0  0
   10.0640   -1.6166   -1.9223 F   0  0  0  0  0  0  0  0  0  0  0  0
   12.1608   -1.1465   -1.8443 F   0  0  0  0  0  0  0  0  0  0  0  0
   11.2820   -1.8401   -3.6794 F   0  0  0  0  0  0  0  0  0  0  0  0
   11.8112    1.2557   -3.2245 C   0  0  0  0  0  0  0  0  0  0  0  0
   11.5713    2.5615   -3.6287 C   0  0  0  0  0  0  0  0  0  0  0  0
   10.2599    2.9684   -3.8229 C   0  0  0  0  0  0  0  0  0  0  0  0
    9.6892    4.2571   -4.2253 C   0  0  0  0  0  0  0  0  0  0  0  0
   10.4219    5.3770   -4.5332 C   0  0  0  0  0  0  0  0  0  0  0  0
    9.8912    6.6303   -4.9014 C   0  0  0  0  0  0  0  0  0  0  0  0
    9.5406    7.6812   -5.2059 N   0  0  0  0  0  0  0  0  0  0  0  0
   11.8311    5.4265   -4.5348 C   0  0  0  0  0  0  0  0  0  0  0  0
   12.9740    5.5345   -4.5618 N   0  0  0  0  0  0  0  0  0  0  0  0
   -6.7254   -1.7475    1.8981 H   0  0  0  0  0  0  0  0  0  0  0  0
   -4.1087   -4.9166    6.5878 H   0  0  0  0  0  0  0  0  0  0  0  0
   -8.9540   -3.4511    6.7329 H   0  0  0  0  0  0  0  0  0  0  0  0
   -7.9915   -4.7468    9.7739 H   0  0  0  0  0  0  0  0  0  0  0  0
   -9.4796   -6.6160    9.0761 H   0  0  0  0  0  0  0  0  0  0  0  0
   -8.8447   -7.1917    6.6056 H   0  0  0  0  0  0  0  0  0  0  0  0
   -6.3083   -7.9772    6.5600 H   0  0  0  0  0  0  0  0  0  0  0  0
   -5.3797   -7.8877    9.0037 H   0  0  0  0  0  0  0  0  0  0  0  0
   -7.8449   -8.6252    9.6285 H   0  0  0  0  0  0  0  0  0  0  0  0
   -7.3990   -7.2459   10.6640 H   0  0  0  0  0  0  0  0  0  0  0  0
   -5.5272   -5.5106    9.7317 H   0  0  0  0  0  0  0  0  0  0  0  0
   -1.5806   -2.8960    3.5022 H   0  0  0  0  0  0  0  0  0  0  0  0
    0.6025   -3.2530    4.5701 H   0  0  0  0  0  0  0  0  0  0  0  0
    2.6506   -0.9826    5.8998 H   0  0  0  0  0  0  0  0  0  0  0  0
    1.8157   -1.3669    7.3992 H   0  0  0  0  0  0  0  0  0  0  0  0
    2.2081   -2.6568    6.2554 H   0  0  0  0  0  0  0  0  0  0  0  0
    0.2191    0.4832    6.5987 H   0  0  0  0  0  0  0  0  0  0  0  0
   -1.9838    0.8216    5.5555 H   0  0  0  0  0  0  0  0  0  0  0  0
   -3.4816   -1.7046    6.4103 H   0  0  0  0  0  0  0  0  0  0  0  0
   -5.3217   -1.1695    7.9415 H   0  0  0  0  0  0  0  0  0  0  0  0
   -7.7102    1.4791    7.4783 H   0  0  0  0  0  0  0  0  0  0  0  0
   -8.3811   -0.1082    7.1315 H   0  0  0  0  0  0  0  0  0  0  0  0
   -7.2743    0.0921    8.4904 H   0  0  0  0  0  0  0  0  0  0  0  0
   -7.0547    1.3618    4.9764 H   0  0  0  0  0  0  0  0  0  0  0  0
   -5.2305    0.8246    3.4405 H   0  0  0  0  0  0  0  0  0  0  0  0
   -3.8130   -1.7710   -3.8163 H   0  0  0  0  0  0  0  0  0  0  0  0
   -6.0261   -1.0050   -4.5511 H   0  0  0  0  0  0  0  0  0  0  0  0
   -8.0314    1.3388   -2.9100 H   0  0  0  0  0  0  0  0  0  0  0  0
   -7.2883    2.2087   -4.2479 H   0  0  0  0  0  0  0  0  0  0  0  0
   -7.8271    0.5372   -4.4715 H   0  0  0  0  0  0  0  0  0  0  0  0
   -5.6997    2.4067   -2.0152 H   0  0  0  0  0  0  0  0  0  0  0  0
   -3.4703    1.6528   -1.2900 H   0  0  0  0  0  0  0  0  0  0  0  0
   -0.5893   -2.5124   -1.3682 H   0  0  0  0  0  0  0  0  0  0  0  0
    1.0212   -3.6171   -2.8513 H   0  0  0  0  0  0  0  0  0  0  0  0
    1.9627   -2.4373   -6.1323 H   0  0  0  0  0  0  0  0  0  0  0  0
    0.9392   -3.8694   -6.1437 H   0  0  0  0  0  0  0  0  0  0  0  0
    2.2092   -3.7114   -4.9294 H   0  0  0  0  0  0  0  0  0  0  0  0
   -0.2868   -1.1877   -6.1013 H   0  0  0  0  0  0  0  0  0  0  0  0
   -1.8810   -0.0559   -4.6153 H   0  0  0  0  0  0  0  0  0  0  0  0
    1.2795    3.1689    1.4195 H   0  0  0  0  0  0  0  0  0  0  0  0
    2.5826    4.9171    2.5105 H   0  0  0  0  0  0  0  0  0  0  0  0
    3.5255    6.2827    4.1470 H   0  0  0  0  0  0  0  0  0  0  0  0
    5.0617    7.1565    3.9695 H   0  0  0  0  0  0  0  0  0  0  0  0
    4.1626    6.6721    2.5148 H   0  0  0  0  0  0  0  0  0  0  0  0
    5.9035    2.2382    2.8213 H   0  0  0  0  0  0  0  0  0  0  0  0
    4.5889    0.4816    1.7028 H   0  0  0  0  0  0  0  0  0  0  0  0
    1.7926   -1.3539   -0.8198 H   0  0  0  0  0  0  0  0  0  0  0  0
    1.9302   -3.6926   -0.2049 H   0  0  0  0  0  0  0  0  0  0  0  0
    2.4257   -7.0029    1.2648 H   0  0  0  0  0  0  0  0  0  0  0  0
    1.3085   -5.8262    0.5413 H   0  0  0  0  0  0  0  0  0  0  0  0
    3.0712   -5.7209    0.2169 H   0  0  0  0  0  0  0  0  0  0  0  0
    2.8435   -2.5866    3.8215 H   0  0  0  0  0  0  0  0  0  0  0  0
    2.5653   -0.2173    3.2325 H   0  0  0  0  0  0  0  0  0  0  0  0
    0.2702    1.9340   -6.6603 H   0  0  0  0  0  0  0  0  0  0  0  0
   -2.1279    1.7225   -7.0653 H   0  0  0  0  0  0  0  0  0  0  0  0
   -4.1613    0.5556   -6.3257 H   0  0  0  0  0  0  0  0  0  0  0  0
   -5.7522    1.2454   -6.7114 H   0  0  0  0  0  0  0  0  0  0  0  0
   -4.3468    1.7047   -7.6947 H   0  0  0  0  0  0  0  0  0  0  0  0
   -2.9270    4.1141   -3.6128 H   0  0  0  0  0  0  0  0  0  0  0  0
   -0.5031    4.3509   -3.2226 H   0  0  0  0  0  0  0  0  0  0  0  0
    3.6506    1.7914   -4.9083 H   0  0  0  0  0  0  0  0  0  0  0  0
    5.3852    2.1012   -6.5657 H   0  0  0  0  0  0  0  0  0  0  0  0
    7.9145    3.8302   -8.5848 H   0  0  0  0  0  0  0  0  0  0  0  0
    7.1290    2.3145   -8.0949 H   0  0  0  0  0  0  0  0  0  0  0  0
    7.1162    3.7304   -6.9960 H   0  0  0  0  0  0  0  0  0  0  0  0
    2.9841    5.0414   -8.5419 H   0  0  0  0  0  0  0  0  0  0  0  0
    1.2248    4.7388   -6.8366 H   0  0  0  0  0  0  0  0  0  0  0  0
    2.7987    5.9130   -4.6167 H   0  0  0  0  0  0  0  0  0  0  0  0
    5.1937    6.7865   -5.4869 H   0  0  0  0  0  0  0  0  0  0  0  0
    7.7065    6.0293   -4.9593 H   0  0  0  0  0  0  0  0  0  0  0  0
    8.6189    0.0755   -3.0633 H   0  0  0  0  0  0  0  0  0  0  0  0
   12.8259    0.9251   -3.0633 H   0  0  0  0  0  0  0  0  0  0  0  0
   12.4023    3.2293   -3.7822 H   0  0  0  0  0  0  0  0  0  0  0  0
  1  2  2  0  0  0  0
  2  3  1  0  0  0  0
  3  4  2  0  0  0  0
  3  5  1  0  0  0  0
  5  6  2  0  0  0  0
  6  7  1  0  0  0  0
  7  8  2  0  0  0  0
  8  9  1  0  0  0  0
  9 10  2  0  0  0  0
 10 11  1  0  0  0  0
 11 12  2  0  0  0  0
 12 13  1  0  0  0  0
 13 14  3  0  0  0  0
 12 15  1  0  0  0  0
 15 16  3  0  0  0  0
  8 17  1  0  0  0  0
 17 18  1  0  0  0  0
 18 19  1  0  0  0  0
 19 20  2  0  0  0  0
 20 21  1  0  0  0  0
 21 22  1  0  0  0  0
 21 23  1  0  0  0  0
  1 24  1  0  0  0  0
 24 25  2  0  0  0  0
 25 26  1  0  0  0  0
 26 27  1  0  0  0  0
 27 28  2  0  0  0  0
 28 29  1  0  0  0  0
 29 30  2  0  0  0  0
 30 31  1  0  0  0  0
 30 32  1  0  0  0  0
 32 33  2  0  0  0  0
 26 34  1  0  0  0  0
 34 35  2  0  0  0  0
 35 36  1  0  0  0  0
 36 37  2  0  0  0  0
 37 38  1  0  0  0  0
 37 39  1  0  0  0  0
 39 40  2  0  0  0  0
 25 41  1  0  0  0  0
 41 42  1  0  0  0  0
 42 43  1  0  0  0  0
 43 44  2  0  0  0  0
 44 45  1  0  0  0  0
 45 46  1  0  0  0  0
 46 47  2  0  0  0  0
 47 48  1  0  0  0  0
 48 49  2  0  0  0  0
 49 50  1  0  0  0  0
 49 51  1  0  0  0  0
 51 52  2  0  0  0  0
 45 53  1  0  0  0  0
 53 54  2  0  0  0  0
 54 55  1  0  0  0  0
 55 56  2  0  0  0  0
 56 57  1  0  0  0  0
 56 58  1  0  0  0  0
 58 59  2  0  0  0  0
 44 60  1  0  0  0  0
 60 61  1  0  0  0  0
 43 62  1  0  0  0  0
 62 63  2  0  0  0  0
 63 64  1  0  0  0  0
 64 65  1  0  0  0  0
 65 66  2  0  0  0  0
 66 67  1  0  0  0  0
 67 68  2  0  0  0  0
 68 69  1  0  0  0  0
 69 70  1  0  0  0  0
 68 71  1  0  0  0  0
 71 72  2  0  0  0  0
 64 73  1  0  0  0  0
 73 74  2  0  0  0  0
 74 75  1  0  0  0  0
 75 76  2  0  0  0  0
 76 77  1  0  0  0  0
 77 78  1  0  0  0  0
 76 79  1  0  0  0  0
 79 80  2  0  0  0  0
 63 81  1  0  0  0  0
 81 82  1  0  0  0  0
 82 83  1  0  0  0  0
 83 84  2  0  0  0  0
 84 85  1  0  0  0  0
 85 86  1  0  0  0  0
 86 87  2  0  0  0  0
 87 88  1  0  0  0  0
 88 89  2  0  0  0  0
 89 90  1  0  0  0  0
 90 91  1  0  0  0  0
 89 92  1  0  0  0  0
 92 93  2  0  0  0  0
 85 94  1  0  0  0  0
 94 95  2  0  0  0  0
 95 96  1  0  0  0  0
 96 97  2  0  0  0  0
 97 98  1  0  0  0  0
 98 99  1  0  0  0  0
 97100  1  0  0  0  0
100101  2  0  0  0  0
 84102  1  0  0  0  0
102103  1  0  0  0  0
 83104  1  0  0  0  0
104105  2  0  0  0  0
105106  1  0  0  0  0
106107  2  0  0  0  0
107108  1  0  0  0  0
107109  1  0  0  0  0
109110  2  0  0  0  0
110111  1  0  0  0  0
111112  2  0  0  0  0
111113  1  0  0  0  0
113114  2  0  0  0  0
114115  1  0  0  0  0
115116  1  0  0  0  0
116117  1  0  0  0  0
116118  1  0  0  0  0
116119  1  0  0  0  0
115120  2  0  0  0  0
120121  1  0  0  0  0
121122  2  0  0  0  0
122123  1  0  0  0  0
123124  2  0  0  0  0
124125  1  0  0  0  0
125126  3  0  0  0  0
124127  1  0  0  0  0
127128  3  0  0  0  0
 11  2  1  0  0  0  0
 23 17  1  0  0  0  0
 61 24  1  0  0  0  0
103 62  1  0  0  0  0
108104  1  0  0  0  0
123110  1  0  0  0  0
 10  5  1  0  0  0  0
 22 18  1  0  0  0  0
 33 27  1  0  0  0  0
 40 34  1  0  0  0  0
 60 41  2  0  0  0  0
 72 65  1  0  0  0  0
 80 73  1  0  0  0  0
102 81  2  0  0  0  0
122113  1  0  0  0  0
 23  7  1  0  0  0  0
 52 46  1  0  0  0  0
 59 53  1  0  0  0  0
 93 86  1  0  0  0  0
101 94  1  0  0  0  0
  1129  1  0  0  0  0
  6130  1  0  0  0  0
  9131  1  0  0  0  0
 17132  1  0  0  0  0
 18133  1  0  0  0  0
 19134  1  0  0  0  0
 20135  1  0  0  0  0
 21136  1  0  0  0  0
 22137  1  0  0  0  0
 22138  1  0  0  0  0
 23139  1  0  0  0  0
 28140  1  0  0  0  0
 29141  1  0  0  0  0
 31142  1  0  0  0  0
 31143  1  0  0  0  0
 31144  1  0  0  0  0
 32145  1  0  0  0  0
 33146  1  0  0  0  0
 35147  1  0  0  0  0
 36148  1  0  0  0  0
 38149  1  0  0  0  0
 38150  1  0  0  0  0
 38151  1  0  0  0  0
 39152  1  0  0  0  0
 40153  1  0  0  0  0
 47154  1  0  0  0  0
 48155  1  0  0  0  0
 50156  1  0  0  0  0
 50157  1  0  0  0  0
 50158  1  0  0  0  0
 51159  1  0  0  0  0
 52160  1  0  0  0  0
 54161  1  0  0  0  0
 55162  1  0  0  0  0
 57163  1  0  0  0  0
 57164  1  0  0  0  0
 57165  1  0  0  0  0
 58166  1  0  0  0  0
 59167  1  0  0  0  0
 66168  1  0  0  0  0
 67169  1  0  0  0  0
 70170  1  0  0  0  0
 70171  1  0  0  0  0
 70172  1  0  0  0  0
 71173  1  0  0  0  0
 72174  1  0  0  0  0
 74175  1  0  0  0  0
 75176  1  0  0  0  0
 78177  1  0  0  0  0
 78178  1  0  0  0  0
 78179  1  0  0  0  0
 79180  1  0  0  0  0
 80181  1  0  0  0  0
 87182  1  0  0  0  0
 88183  1  0  0  0  0
 91184  1  0  0  0  0
 91185  1  0  0  0  0
 91186  1  0  0  0  0
 92187  1  0  0  0  0
 93188  1  0  0  0  0
 95189  1  0  0  0  0
 96190  1  0  0  0  0
 99191  1  0  0  0  0
 99192  1  0  0  0  0
 99193  1  0  0  0  0
100194  1  0  0  0  0
101195  1  0  0  0  0
105196  1  0  0  0  0
106197  1  0  0  0  0
109198  1  0  0  0  0
114199  1  0  0  0  0
120200  1  0  0  0  0
121201  1  0  0  0  0
M  END
