
  xtb     02152212353D
 energy: -394.855394430680 gnorm: 0.000693794052 xtb: 6.4.1 (unknown)
237261  0     0  0            999 V2000
    3.4618   -6.7707    3.9428 C   0  0  0  0  0  0  0  0  0  0  0  0
    4.4322   -6.6299    4.9155 C   0  0  0  0  0  0  0  0  0  0  0  0
    4.8861   -5.3397    5.4432 C   0  0  0  0  0  0  0  0  0  0  0  0
    4.5304   -4.2240    5.0944 O   0  0  0  0  0  0  0  0  0  0  0  0
    5.7730   -5.6569    6.5814 C   0  0  0  0  0  0  0  0  0  0  0  0
    6.4399   -4.7563    7.4068 C   0  0  0  0  0  0  0  0  0  0  0  0
    7.2094   -5.3507    8.3794 C   0  0  0  0  0  0  0  0  0  0  0  0
    7.3030   -6.7393    8.5258 C   0  0  0  0  0  0  0  0  0  0  0  0
    6.6474   -7.6399    7.7186 C   0  0  0  0  0  0  0  0  0  0  0  0
    5.8649   -7.0550    6.7217 C   0  0  0  0  0  0  0  0  0  0  0  0
    5.0547   -7.6761    5.6748 C   0  0  0  0  0  0  0  0  0  0  0  0
    5.0236   -9.0151    5.3681 C   0  0  0  0  0  0  0  0  0  0  0  0
    5.7323  -10.0091    6.0662 C   0  0  0  0  0  0  0  0  0  0  0  0
    6.3005  -10.8645    6.5825 N   0  0  0  0  0  0  0  0  0  0  0  0
    4.3409   -9.5545    4.2602 C   0  0  0  0  0  0  0  0  0  0  0  0
    3.8368  -10.0592    3.3595 N   0  0  0  0  0  0  0  0  0  0  0  0
    8.2339   -6.6338    9.7087 C   0  0  0  0  0  0  0  0  0  0  0  0
    7.6113   -6.8721   11.1003 C   0  0  0  0  0  0  0  0  0  0  0  0
    8.6025   -6.2436   12.0529 C   0  0  0  0  0  0  0  0  0  0  0  0
    8.5166   -4.9268   11.9137 C   0  0  0  0  0  0  0  0  0  0  0  0
    7.4653   -4.6434   10.8650 C   0  0  0  0  0  0  0  0  0  0  0  0
    6.5050   -5.8096   11.1321 C   0  0  0  0  0  0  0  0  0  0  0  0
    8.1314   -5.0833    9.5442 C   0  0  0  0  0  0  0  0  0  0  0  0
    3.1284   -5.8156    2.9846 C   0  0  0  0  0  0  0  0  0  0  0  0
    3.8768   -4.7421    2.4470 C   0  0  0  0  0  0  0  0  0  0  0  0
    5.2251   -4.6054    2.5209 N   0  0  0  0  0  0  0  0  0  0  0  0
    5.8538   -3.3836    2.1886 C   0  0  0  0  0  0  0  0  0  0  0  0
    5.4558   -2.1922    2.7795 C   0  0  0  0  0  0  0  0  0  0  0  0
    6.1090   -1.0171    2.4626 C   0  0  0  0  0  0  0  0  0  0  0  0
    7.1601   -1.0038    1.5553 C   0  0  0  0  0  0  0  0  0  0  0  0
    7.8481    0.2769    1.1962 C   0  0  0  0  0  0  0  0  0  0  0  0
    7.5544   -2.2053    0.9757 C   0  0  0  0  0  0  0  0  0  0  0  0
    6.9150   -3.3876    1.2888 C   0  0  0  0  0  0  0  0  0  0  0  0
    6.0863   -5.6673    2.8562 C   0  0  0  0  0  0  0  0  0  0  0  0
    5.9282   -6.9371    2.3050 C   0  0  0  0  0  0  0  0  0  0  0  0
    6.7792   -7.9590    2.6690 C   0  0  0  0  0  0  0  0  0  0  0  0
    7.8052   -7.7514    3.5889 C   0  0  0  0  0  0  0  0  0  0  0  0
    8.6836   -8.8855    4.0132 C   0  0  0  0  0  0  0  0  0  0  0  0
    7.9796   -6.4734    4.1019 C   0  0  0  0  0  0  0  0  0  0  0  0
    7.1386   -5.4377    3.7382 C   0  0  0  0  0  0  0  0  0  0  0  0
    3.0394   -3.9104    1.6609 C   0  0  0  0  0  0  0  0  0  0  0  0
    3.2621   -2.4050    0.8288 S   0  0  0  0  0  0  0  0  0  0  0  0
    1.6079   -2.4573    0.2648 C   0  0  0  0  0  0  0  0  0  0  0  0
    0.9523   -3.6209    0.6188 C   0  0  0  0  0  0  0  0  0  0  0  0
   -0.2939   -3.9751    0.1087 N   0  0  0  0  0  0  0  0  0  0  0  0
   -1.3118   -4.4237    0.9546 C   0  0  0  0  0  0  0  0  0  0  0  0
   -1.3057   -4.0663    2.2998 C   0  0  0  0  0  0  0  0  0  0  0  0
   -2.3394   -4.4401    3.1328 C   0  0  0  0  0  0  0  0  0  0  0  0
   -3.4128   -5.1794    2.6551 C   0  0  0  0  0  0  0  0  0  0  0  0
   -4.5733   -5.5149    3.5392 C   0  0  0  0  0  0  0  0  0  0  0  0
   -3.3885   -5.5770    1.3238 C   0  0  0  0  0  0  0  0  0  0  0  0
   -2.3533   -5.2198    0.4834 C   0  0  0  0  0  0  0  0  0  0  0  0
   -0.4613   -3.8690   -1.2835 C   0  0  0  0  0  0  0  0  0  0  0  0
    0.5983   -4.1908   -2.1304 C   0  0  0  0  0  0  0  0  0  0  0  0
    0.4740   -4.0558   -3.4986 C   0  0  0  0  0  0  0  0  0  0  0  0
   -0.7092   -3.6083   -4.0708 C   0  0  0  0  0  0  0  0  0  0  0  0
   -0.8560   -3.4856   -5.5565 C   0  0  0  0  0  0  0  0  0  0  0  0
   -1.7701   -3.3090   -3.2246 C   0  0  0  0  0  0  0  0  0  0  0  0
   -1.6553   -3.4325   -1.8541 C   0  0  0  0  0  0  0  0  0  0  0  0
    1.7605   -4.4158    1.4648 C   0  0  0  0  0  0  0  0  0  0  0  0
    1.4995   -5.9016    2.2916 S   0  0  0  0  0  0  0  0  0  0  0  0
    0.9524   -1.3563   -0.4024 C   0  0  0  0  0  0  0  0  0  0  0  0
    0.0129   -0.5557    0.2133 C   0  0  0  0  0  0  0  0  0  0  0  0
   -0.2595   -0.6002    1.5809 N   0  0  0  0  0  0  0  0  0  0  0  0
   -1.5698   -0.8009    2.0135 C   0  0  0  0  0  0  0  0  0  0  0  0
   -2.5044   -1.3856    1.1574 C   0  0  0  0  0  0  0  0  0  0  0  0
   -3.7814   -1.6570    1.5882 C   0  0  0  0  0  0  0  0  0  0  0  0
   -4.1650   -1.3507    2.8901 C   0  0  0  0  0  0  0  0  0  0  0  0
   -5.8078   -1.8054    3.3549 S   0  0  0  0  0  0  0  0  0  0  0  0
   -5.8639   -1.4628    5.1371 C   0  0  0  0  0  0  0  0  0  0  0  0
   -3.2619   -0.7151    3.7296 C   0  0  0  0  0  0  0  0  0  0  0  0
   -1.9812   -0.4362    3.2929 C   0  0  0  0  0  0  0  0  0  0  0  0
    0.8222   -0.4865    2.4688 C   0  0  0  0  0  0  0  0  0  0  0  0
    0.9109   -1.2540    3.6270 C   0  0  0  0  0  0  0  0  0  0  0  0
    1.9758   -1.1145    4.4950 C   0  0  0  0  0  0  0  0  0  0  0  0
    2.9755   -0.1898    4.2277 C   0  0  0  0  0  0  0  0  0  0  0  0
    4.3378    0.1220    5.3077 S   0  0  0  0  0  0  0  0  0  0  0  0
    4.2700   -1.2330    6.5123 C   0  0  0  0  0  0  0  0  0  0  0  0
    2.9015    0.5722    3.0635 C   0  0  0  0  0  0  0  0  0  0  0  0
    1.8455    0.4220    2.1933 C   0  0  0  0  0  0  0  0  0  0  0  0
   -0.6075    0.3104   -0.7185 C   0  0  0  0  0  0  0  0  0  0  0  0
   -1.8632    1.4893   -0.6353 S   0  0  0  0  0  0  0  0  0  0  0  0
   -1.7526    1.7722   -2.3697 C   0  0  0  0  0  0  0  0  0  0  0  0
   -0.8049    0.9560   -2.9726 C   0  0  0  0  0  0  0  0  0  0  0  0
   -0.4997    0.8820   -4.3308 N   0  0  0  0  0  0  0  0  0  0  0  0
    0.8747    0.8187   -4.6271 C   0  0  0  0  0  0  0  0  0  0  0  0
    1.7301    1.7341   -4.0206 C   0  0  0  0  0  0  0  0  0  0  0  0
    3.0929    1.6832   -4.2384 C   0  0  0  0  0  0  0  0  0  0  0  0
    3.6240    0.7118   -5.0755 C   0  0  0  0  0  0  0  0  0  0  0  0
    5.3430    0.5398   -5.4326 S   0  0  0  0  0  0  0  0  0  0  0  0
    6.1377    1.7806   -4.3721 C   0  0  0  0  0  0  0  0  0  0  0  0
    2.7696   -0.2030   -5.6894 C   0  0  0  0  0  0  0  0  0  0  0  0
    1.4126   -0.1567   -5.4662 C   0  0  0  0  0  0  0  0  0  0  0  0
   -1.4501    0.4355   -5.2505 C   0  0  0  0  0  0  0  0  0  0  0  0
   -1.2554    0.6477   -6.6188 C   0  0  0  0  0  0  0  0  0  0  0  0
   -2.1466    0.1412   -7.5360 C   0  0  0  0  0  0  0  0  0  0  0  0
   -3.2683   -0.5723   -7.1148 C   0  0  0  0  0  0  0  0  0  0  0  0
   -4.3147   -1.2267   -8.3801 S   0  0  0  0  0  0  0  0  0  0  0  0
   -5.4495   -2.3213   -7.4815 C   0  0  0  0  0  0  0  0  0  0  0  0
   -3.5056   -0.7225   -5.7564 C   0  0  0  0  0  0  0  0  0  0  0  0
   -2.6022   -0.2283   -4.8346 C   0  0  0  0  0  0  0  0  0  0  0  0
   -0.1364    0.1589   -2.0119 C   0  0  0  0  0  0  0  0  0  0  0  0
    1.1399   -1.0033   -2.1083 S   0  0  0  0  0  0  0  0  0  0  0  0
   -2.5407    2.8249   -2.9179 C   0  0  0  0  0  0  0  0  0  0  0  0
   -2.8054    3.1576   -4.2180 C   0  0  0  0  0  0  0  0  0  0  0  0
   -3.5716    4.3390   -4.3530 C   0  0  0  0  0  0  0  0  0  0  0  0
   -3.9762    4.9548   -5.5509 C   0  0  0  0  0  0  0  0  0  0  0  0
   -3.7773    4.3139   -6.8583 C   0  0  0  0  0  0  0  0  0  0  0  0
   -4.3168    3.0267   -7.0710 C   0  0  0  0  0  0  0  0  0  0  0  0
   -4.2286    2.4339   -8.2953 C   0  0  0  0  0  0  0  0  0  0  0  0
   -3.5619    3.0702   -9.3626 C   0  0  0  0  0  0  0  0  0  0  0  0
   -3.4323    2.4641  -10.6285 C   0  0  0  0  0  0  0  0  0  0  0  0
   -2.7830    3.1080  -11.6445 C   0  0  0  0  0  0  0  0  0  0  0  0
   -2.2383    4.3860  -11.4401 C   0  0  0  0  0  0  0  0  0  0  0  0
   -2.3464    4.9984  -10.2230 C   0  0  0  0  0  0  0  0  0  0  0  0
   -3.0072    4.3594   -9.1530 C   0  0  0  0  0  0  0  0  0  0  0  0
   -3.1445    4.9643   -7.8884 C   0  0  0  0  0  0  0  0  0  0  0  0
   -4.6385    6.1630   -5.4356 C   0  0  0  0  0  0  0  0  0  0  0  0
   -4.9452    6.7688   -4.1845 C   0  0  0  0  0  0  0  0  0  0  0  0
   -4.5305    6.1526   -2.9745 C   0  0  0  0  0  0  0  0  0  0  0  0
   -4.7543    6.7947   -1.7041 C   0  0  0  0  0  0  0  0  0  0  0  0
   -4.7090    8.1354   -1.4157 C   0  0  0  0  0  0  0  0  0  0  0  0
   -4.9473    8.4344   -0.0671 C   0  0  0  0  0  0  0  0  0  0  0  0
   -5.1894    7.3188    0.6867 C   0  0  0  0  0  0  0  0  0  0  0  0
   -5.5302    7.1614    2.3903 S   0  0  0  0  0  0  0  0  0  0  0  0
   -6.0620    8.8543    2.8345 C   0  0  0  0  0  0  0  0  0  0  0  0
   -7.3873    9.2274    2.2006 C   0  0  0  0  0  0  0  0  0  0  0  0
   -5.1044    5.8704   -0.2624 S   0  0  0  0  0  0  0  0  0  0  0  0
   -3.8742    4.9350   -3.1019 C   0  0  0  0  0  0  0  0  0  0  0  0
   -3.2445    3.9749   -1.7924 S   0  0  0  0  0  0  0  0  0  0  0  0
   -5.7122    7.9313   -4.3353 C   0  0  0  0  0  0  0  0  0  0  0  0
   -5.9595    8.2784   -5.6477 C   0  0  0  0  0  0  0  0  0  0  0  0
   -5.2616    7.0986   -6.7620 S   0  0  0  0  0  0  0  0  0  0  0  0
   -6.6729    9.3480   -6.2150 C   0  0  0  0  0  0  0  0  0  0  0  0
   -7.1950   10.4885   -5.6515 C   0  0  0  0  0  0  0  0  0  0  0  0
   -6.9852   11.0110   -4.2857 C   0  0  0  0  0  0  0  0  0  0  0  0
   -6.3902   10.5048   -3.3563 O   0  0  0  0  0  0  0  0  0  0  0  0
   -7.6192   12.3466   -4.2668 C   0  0  0  0  0  0  0  0  0  0  0  0
   -7.6933   13.2709   -3.2361 C   0  0  0  0  0  0  0  0  0  0  0  0
   -7.0106   12.9460   -1.6987 Cl  0  0  0  0  0  0  0  0  0  0  0  0
   -8.3390   14.4831   -3.4607 C   0  0  0  0  0  0  0  0  0  0  0  0
   -8.8875   14.7372   -4.7067 C   0  0  0  0  0  0  0  0  0  0  0  0
   -9.7537   16.3988   -4.9934 Br  0  0  0  0  0  0  0  0  0  0  0  0
   -8.8299   13.8242   -5.7545 C   0  0  0  0  0  0  0  0  0  0  0  0
   -8.1908   12.6193   -5.5218 C   0  0  0  0  0  0  0  0  0  0  0  0
   -7.9719   11.4620   -6.3922 C   0  0  0  0  0  0  0  0  0  0  0  0
   -8.4840   11.3352   -7.6584 C   0  0  0  0  0  0  0  0  0  0  0  0
   -9.2408   12.3308   -8.3121 C   0  0  0  0  0  0  0  0  0  0  0  0
   -9.8550   13.0972   -8.9069 N   0  0  0  0  0  0  0  0  0  0  0  0
   -8.3734   10.2041   -8.4961 C   0  0  0  0  0  0  0  0  0  0  0  0
   -8.3605    9.3337   -9.2456 N   0  0  0  0  0  0  0  0  0  0  0  0
    2.8597   -7.6714    3.9406 H   0  0  0  0  0  0  0  0  0  0  0  0
    6.3468   -3.6912    7.2604 H   0  0  0  0  0  0  0  0  0  0  0  0
    6.7245   -8.7071    7.8447 H   0  0  0  0  0  0  0  0  0  0  0  0
    9.2071   -7.1070    9.5918 H   0  0  0  0  0  0  0  0  0  0  0  0
    7.3244   -7.9008   11.3005 H   0  0  0  0  0  0  0  0  0  0  0  0
    9.2810   -6.8041   12.6689 H   0  0  0  0  0  0  0  0  0  0  0  0
    9.1091   -4.1677   12.3900 H   0  0  0  0  0  0  0  0  0  0  0  0
    7.0452   -3.6410   10.8525 H   0  0  0  0  0  0  0  0  0  0  0  0
    5.7426   -5.9406   10.3665 H   0  0  0  0  0  0  0  0  0  0  0  0
    6.0314   -5.7376   12.1099 H   0  0  0  0  0  0  0  0  0  0  0  0
    9.0372   -4.5235    9.3172 H   0  0  0  0  0  0  0  0  0  0  0  0
    4.6554   -2.2087    3.5011 H   0  0  0  0  0  0  0  0  0  0  0  0
    5.8060   -0.0998    2.9431 H   0  0  0  0  0  0  0  0  0  0  0  0
    7.4390    0.6680    0.2641 H   0  0  0  0  0  0  0  0  0  0  0  0
    7.7024    1.0254    1.9709 H   0  0  0  0  0  0  0  0  0  0  0  0
    8.9145    0.1180    1.0518 H   0  0  0  0  0  0  0  0  0  0  0  0
    8.3734   -2.2150    0.2712 H   0  0  0  0  0  0  0  0  0  0  0  0
    7.2306   -4.3178    0.8390 H   0  0  0  0  0  0  0  0  0  0  0  0
    5.1377   -7.1220    1.5933 H   0  0  0  0  0  0  0  0  0  0  0  0
    6.6429   -8.9392    2.2367 H   0  0  0  0  0  0  0  0  0  0  0  0
    8.1518   -9.5316    4.7127 H   0  0  0  0  0  0  0  0  0  0  0  0
    8.9688   -9.4931    3.1570 H   0  0  0  0  0  0  0  0  0  0  0  0
    9.5815   -8.5204    4.5052 H   0  0  0  0  0  0  0  0  0  0  0  0
    8.7778   -6.2832    4.8046 H   0  0  0  0  0  0  0  0  0  0  0  0
    7.2863   -4.4472    4.1418 H   0  0  0  0  0  0  0  0  0  0  0  0
   -0.4854   -3.4823    2.6836 H   0  0  0  0  0  0  0  0  0  0  0  0
   -2.3171   -4.1375    4.1702 H   0  0  0  0  0  0  0  0  0  0  0  0
   -5.3186   -4.7202    3.4821 H   0  0  0  0  0  0  0  0  0  0  0  0
   -5.0460   -6.4430    3.2266 H   0  0  0  0  0  0  0  0  0  0  0  0
   -4.2582   -5.6100    4.5759 H   0  0  0  0  0  0  0  0  0  0  0  0
   -4.1959   -6.1812    0.9357 H   0  0  0  0  0  0  0  0  0  0  0  0
   -2.3501   -5.5591   -0.5415 H   0  0  0  0  0  0  0  0  0  0  0  0
    1.5274   -4.5469   -1.7099 H   0  0  0  0  0  0  0  0  0  0  0  0
    1.3128   -4.3066   -4.1312 H   0  0  0  0  0  0  0  0  0  0  0  0
   -1.3961   -2.5778   -5.8198 H   0  0  0  0  0  0  0  0  0  0  0  0
   -1.4187   -4.3340   -5.9480 H   0  0  0  0  0  0  0  0  0  0  0  0
    0.1168   -3.4745   -6.0420 H   0  0  0  0  0  0  0  0  0  0  0  0
   -2.7044   -2.9690   -3.6474 H   0  0  0  0  0  0  0  0  0  0  0  0
   -2.4999   -3.1983   -1.2242 H   0  0  0  0  0  0  0  0  0  0  0  0
   -2.2116   -1.6412    0.1525 H   0  0  0  0  0  0  0  0  0  0  0  0
   -4.4917   -2.1295    0.9272 H   0  0  0  0  0  0  0  0  0  0  0  0
   -6.8287   -1.8270    5.4762 H   0  0  0  0  0  0  0  0  0  0  0  0
   -5.7922   -0.3937    5.3152 H   0  0  0  0  0  0  0  0  0  0  0  0
   -5.0666   -2.0023    5.6395 H   0  0  0  0  0  0  0  0  0  0  0  0
   -3.5402   -0.4237    4.7297 H   0  0  0  0  0  0  0  0  0  0  0  0
   -1.2961    0.0711    3.9552 H   0  0  0  0  0  0  0  0  0  0  0  0
    0.1323   -1.9613    3.8669 H   0  0  0  0  0  0  0  0  0  0  0  0
    2.0128   -1.7353    5.3755 H   0  0  0  0  0  0  0  0  0  0  0  0
    3.3828   -1.1378    7.1325 H   0  0  0  0  0  0  0  0  0  0  0  0
    5.1569   -1.1109    7.1272 H   0  0  0  0  0  0  0  0  0  0  0  0
    4.2989   -2.1915    5.9999 H   0  0  0  0  0  0  0  0  0  0  0  0
    3.6740    1.2964    2.8554 H   0  0  0  0  0  0  0  0  0  0  0  0
    1.7982    1.0211    1.2961 H   0  0  0  0  0  0  0  0  0  0  0  0
    1.3193    2.4918   -3.3691 H   0  0  0  0  0  0  0  0  0  0  0  0
    3.7244    2.4086   -3.7518 H   0  0  0  0  0  0  0  0  0  0  0  0
    7.2048    1.6572   -4.5284 H   0  0  0  0  0  0  0  0  0  0  0  0
    5.8913    1.5883   -3.3320 H   0  0  0  0  0  0  0  0  0  0  0  0
    5.8358    2.7795   -4.6737 H   0  0  0  0  0  0  0  0  0  0  0  0
    3.1900   -0.9603   -6.3332 H   0  0  0  0  0  0  0  0  0  0  0  0
    0.7650   -0.8865   -5.9260 H   0  0  0  0  0  0  0  0  0  0  0  0
   -0.3935    1.2032   -6.9554 H   0  0  0  0  0  0  0  0  0  0  0  0
   -1.9818    0.2908   -8.5916 H   0  0  0  0  0  0  0  0  0  0  0  0
   -6.1182   -1.7391   -6.8538 H   0  0  0  0  0  0  0  0  0  0  0  0
   -6.0224   -2.8381   -8.2451 H   0  0  0  0  0  0  0  0  0  0  0  0
   -4.8809   -3.0383   -6.8967 H   0  0  0  0  0  0  0  0  0  0  0  0
   -4.3826   -1.2373   -5.3977 H   0  0  0  0  0  0  0  0  0  0  0  0
   -2.7842   -0.3761   -3.7811 H   0  0  0  0  0  0  0  0  0  0  0  0
   -2.4655    2.5929   -5.0652 H   0  0  0  0  0  0  0  0  0  0  0  0
   -4.8282    2.5349   -6.2559 H   0  0  0  0  0  0  0  0  0  0  0  0
   -4.6755    1.4677   -8.4722 H   0  0  0  0  0  0  0  0  0  0  0  0
   -3.8548    1.4801  -10.7756 H   0  0  0  0  0  0  0  0  0  0  0  0
   -2.6853    2.6400  -12.6131 H   0  0  0  0  0  0  0  0  0  0  0  0
   -1.7328    4.8816  -12.2560 H   0  0  0  0  0  0  0  0  0  0  0  0
   -1.9299    5.9826  -10.0624 H   0  0  0  0  0  0  0  0  0  0  0  0
   -2.7287    5.9501   -7.7340 H   0  0  0  0  0  0  0  0  0  0  0  0
   -4.4685    8.8930   -2.1385 H   0  0  0  0  0  0  0  0  0  0  0  0
   -4.9301    9.4369    0.3181 H   0  0  0  0  0  0  0  0  0  0  0  0
   -6.1411    8.8244    3.9210 H   0  0  0  0  0  0  0  0  0  0  0  0
   -5.2631    9.5411    2.5587 H   0  0  0  0  0  0  0  0  0  0  0  0
   -8.1609    8.5245    2.5008 H   0  0  0  0  0  0  0  0  0  0  0  0
   -7.6793   10.2255    2.5208 H   0  0  0  0  0  0  0  0  0  0  0  0
   -7.3153    9.2187    1.1152 H   0  0  0  0  0  0  0  0  0  0  0  0
   -6.1113    8.4918   -3.5132 H   0  0  0  0  0  0  0  0  0  0  0  0
   -6.8048    9.2481   -7.2859 H   0  0  0  0  0  0  0  0  0  0  0  0
   -8.4080   15.2143   -2.6712 H   0  0  0  0  0  0  0  0  0  0  0  0
   -9.2711   14.0696   -6.7060 H   0  0  0  0  0  0  0  0  0  0  0  0
  1  2  2  0  0  0  0
  2  3  1  0  0  0  0
  3  4  2  0  0  0  0
  3  5  1  0  0  0  0
  5  6  2  0  0  0  0
  6  7  1  0  0  0  0
  7  8  2  0  0  0  0
  8  9  1  0  0  0  0
  9 10  2  0  0  0  0
 10 11  1  0  0  0  0
 11 12  2  0  0  0  0
 12 13  1  0  0  0  0
 13 14  3  0  0  0  0
 12 15  1  0  0  0  0
 15 16  3  0  0  0  0
  8 17  1  0  0  0  0
 17 18  1  0  0  0  0
 18 19  1  0  0  0  0
 19 20  2  0  0  0  0
 20 21  1  0  0  0  0
 21 22  1  0  0  0  0
 21 23  1  0  0  0  0
  1 24  1  0  0  0  0
 24 25  2  0  0  0  0
 25 26  1  0  0  0  0
 26 27  1  0  0  0  0
 27 28  2  0  0  0  0
 28 29  1  0  0  0  0
 29 30  2  0  0  0  0
 30 31  1  0  0  0  0
 30 32  1  0  0  0  0
 32 33  2  0  0  0  0
 26 34  1  0  0  0  0
 34 35  2  0  0  0  0
 35 36  1  0  0  0  0
 36 37  2  0  0  0  0
 37 38  1  0  0  0  0
 37 39  1  0  0  0  0
 39 40  2  0  0  0  0
 25 41  1  0  0  0  0
 41 42  1  0  0  0  0
 42 43  1  0  0  0  0
 43 44  2  0  0  0  0
 44 45  1  0  0  0  0
 45 46  1  0  0  0  0
 46 47  2  0  0  0  0
 47 48  1  0  0  0  0
 48 49  2  0  0  0  0
 49 50  1  0  0  0  0
 49 51  1  0  0  0  0
 51 52  2  0  0  0  0
 45 53  1  0  0  0  0
 53 54  2  0  0  0  0
 54 55  1  0  0  0  0
 55 56  2  0  0  0  0
 56 57  1  0  0  0  0
 56 58  1  0  0  0  0
 58 59  2  0  0  0  0
 44 60  1  0  0  0  0
 60 61  1  0  0  0  0
 43 62  1  0  0  0  0
 62 63  2  0  0  0  0
 63 64  1  0  0  0  0
 64 65  1  0  0  0  0
 65 66  2  0  0  0  0
 66 67  1  0  0  0  0
 67 68  2  0  0  0  0
 68 69  1  0  0  0  0
 69 70  1  0  0  0  0
 68 71  1  0  0  0  0
 71 72  2  0  0  0  0
 64 73  1  0  0  0  0
 73 74  2  0  0  0  0
 74 75  1  0  0  0  0
 75 76  2  0  0  0  0
 76 77  1  0  0  0  0
 77 78  1  0  0  0  0
 76 79  1  0  0  0  0
 79 80  2  0  0  0  0
 63 81  1  0  0  0  0
 81 82  1  0  0  0  0
 82 83  1  0  0  0  0
 83 84  2  0  0  0  0
 84 85  1  0  0  0  0
 85 86  1  0  0  0  0
 86 87  2  0  0  0  0
 87 88  1  0  0  0  0
 88 89  2  0  0  0  0
 89 90  1  0  0  0  0
 90 91  1  0  0  0  0
 89 92  1  0  0  0  0
 92 93  2  0  0  0  0
 85 94  1  0  0  0  0
 94 95  2  0  0  0  0
 95 96  1  0  0  0  0
 96 97  2  0  0  0  0
 97 98  1  0  0  0  0
 98 99  1  0  0  0  0
 97100  1  0  0  0  0
100101  2  0  0  0  0
 84102  1  0  0  0  0
102103  1  0  0  0  0
 83104  1  0  0  0  0
104105  2  0  0  0  0
105106  1  0  0  0  0
106107  2  0  0  0  0
107108  1  0  0  0  0
108109  2  0  0  0  0
109110  1  0  0  0  0
110111  2  0  0  0  0
111112  1  0  0  0  0
112113  2  0  0  0  0
113114  1  0  0  0  0
114115  2  0  0  0  0
115116  1  0  0  0  0
116117  2  0  0  0  0
107118  1  0  0  0  0
118119  2  0  0  0  0
119120  1  0  0  0  0
120121  1  0  0  0  0
121122  2  0  0  0  0
122123  1  0  0  0  0
123124  2  0  0  0  0
124125  1  0  0  0  0
125126  1  0  0  0  0
126127  1  0  0  0  0
124128  1  0  0  0  0
120129  2  0  0  0  0
129130  1  0  0  0  0
119131  1  0  0  0  0
131132  2  0  0  0  0
132133  1  0  0  0  0
132134  1  0  0  0  0
134135  2  0  0  0  0
135136  1  0  0  0  0
136137  2  0  0  0  0
136138  1  0  0  0  0
138139  2  0  0  0  0
139140  1  0  0  0  0
139141  1  0  0  0  0
141142  2  0  0  0  0
142143  1  0  0  0  0
142144  1  0  0  0  0
144145  2  0  0  0  0
145146  1  0  0  0  0
146147  2  0  0  0  0
147148  1  0  0  0  0
148149  3  0  0  0  0
147150  1  0  0  0  0
150151  3  0  0  0  0
 11  2  1  0  0  0  0
 23 17  1  0  0  0  0
 61 24  1  0  0  0  0
103 62  1  0  0  0  0
130104  1  0  0  0  0
146135  1  0  0  0  0
 10  5  1  0  0  0  0
 22 18  1  0  0  0  0
 33 27  1  0  0  0  0
 40 34  1  0  0  0  0
 60 41  2  0  0  0  0
 72 65  1  0  0  0  0
 80 73  1  0  0  0  0
102 81  2  0  0  0  0
129106  1  0  0  0  0
145138  1  0  0  0  0
 23  7  1  0  0  0  0
 52 46  1  0  0  0  0
 59 53  1  0  0  0  0
 93 86  1  0  0  0  0
101 94  1  0  0  0  0
117108  1  0  0  0  0
133118  1  0  0  0  0
116111  1  0  0  0  0
128121  1  0  0  0  0
  1152  1  0  0  0  0
  6153  1  0  0  0  0
  9154  1  0  0  0  0
 17155  1  0  0  0  0
 18156  1  0  0  0  0
 19157  1  0  0  0  0
 20158  1  0  0  0  0
 21159  1  0  0  0  0
 22160  1  0  0  0  0
 22161  1  0  0  0  0
 23162  1  0  0  0  0
 28163  1  0  0  0  0
 29164  1  0  0  0  0
 31165  1  0  0  0  0
 31166  1  0  0  0  0
 31167  1  0  0  0  0
 32168  1  0  0  0  0
 33169  1  0  0  0  0
 35170  1  0  0  0  0
 36171  1  0  0  0  0
 38172  1  0  0  0  0
 38173  1  0  0  0  0
 38174  1  0  0  0  0
 39175  1  0  0  0  0
 40176  1  0  0  0  0
 47177  1  0  0  0  0
 48178  1  0  0  0  0
 50179  1  0  0  0  0
 50180  1  0  0  0  0
 50181  1  0  0  0  0
 51182  1  0  0  0  0
 52183  1  0  0  0  0
 54184  1  0  0  0  0
 55185  1  0  0  0  0
 57186  1  0  0  0  0
 57187  1  0  0  0  0
 57188  1  0  0  0  0
 58189  1  0  0  0  0
 59190  1  0  0  0  0
 66191  1  0  0  0  0
 67192  1  0  0  0  0
 70193  1  0  0  0  0
 70194  1  0  0  0  0
 70195  1  0  0  0  0
 71196  1  0  0  0  0
 72197  1  0  0  0  0
 74198  1  0  0  0  0
 75199  1  0  0  0  0
 78200  1  0  0  0  0
 78201  1  0  0  0  0
 78202  1  0  0  0  0
 79203  1  0  0  0  0
 80204  1  0  0  0  0
 87205  1  0  0  0  0
 88206  1  0  0  0  0
 91207  1  0  0  0  0
 91208  1  0  0  0  0
 91209  1  0  0  0  0
 92210  1  0  0  0  0
 93211  1  0  0  0  0
 95212  1  0  0  0  0
 96213  1  0  0  0  0
 99214  1  0  0  0  0
 99215  1  0  0  0  0
 99216  1  0  0  0  0
100217  1  0  0  0  0
101218  1  0  0  0  0
105219  1  0  0  0  0
109220  1  0  0  0  0
110221  1  0  0  0  0
112222  1  0  0  0  0
113223  1  0  0  0  0
114224  1  0  0  0  0
115225  1  0  0  0  0
117226  1  0  0  0  0
122227  1  0  0  0  0
123228  1  0  0  0  0
126229  1  0  0  0  0
126230  1  0  0  0  0
127231  1  0  0  0  0
127232  1  0  0  0  0
127233  1  0  0  0  0
131234  1  0  0  0  0
134235  1  0  0  0  0
141236  1  0  0  0  0
144237  1  0  0  0  0
M  END
