172

C          2.26920        1.04310       -5.96480
C          1.44820        1.10990       -7.06910
C          0.07700        0.57620       -7.10250
O         -0.53470        0.05300       -6.18960
C         -0.35780        0.67730       -8.51160
C         -1.58140        0.28040       -9.04170
C         -1.70560        0.50610      -10.39250
C         -0.68400        1.07500      -11.16180
C          0.53130        1.46700      -10.65050
C          0.67390        1.25200       -9.27800
C          1.79550        1.55190       -8.38990
C          2.91260        2.28220       -8.71760
C          3.90170        2.66320       -7.79000
N          4.72880        3.03540       -7.08440
C          3.16970        2.81390       -9.99370
N          3.42630        3.28980      -11.00800
C         -1.48690        0.99120      -12.43700
C         -1.12090       -0.14900      -13.41030
C         -2.34180       -0.27840      -14.29230
C         -3.31150       -0.81510      -13.56270
C         -2.76210       -1.05750      -12.17550
C         -1.30450       -1.38670      -12.52260
C         -2.62850        0.35910      -11.57760
C          1.84450        0.97710       -4.63430
C          0.65390        1.41040       -4.01590
N         -0.33630        2.16040       -4.57860
C         -1.63160        2.11780       -4.01430
C         -2.30800        3.30000       -3.73930
C         -3.56410        3.25520       -3.16440
C         -4.16690        2.04270       -2.85500
C         -5.51070        1.98780       -2.19770
C         -3.48940        0.86630       -3.15970
C         -2.23580        0.89550       -3.73490
C         -0.12660        3.00380       -5.67720
C          1.03820        3.76140       -5.79660
C          1.23670        4.55820       -6.90370
C          0.28990        4.62600       -7.92370
C          0.55030        5.45100       -9.14440
C         -0.88520        3.90150       -7.77740
C         -1.09930        3.10280       -6.66960
C          0.66220        1.06770       -2.64070
S         -0.48010        1.24940       -1.35930
C          0.64660        0.53540       -0.21930
C          1.83440        0.13200       -0.81930
N          2.86140       -0.57310       -0.22870
C          2.62950       -1.49930        0.79680
C          3.55430       -1.65630        1.82740
C          3.31200       -2.54570        2.85350
C          2.14980       -3.30800        2.89060
C          1.89330       -4.24770        4.02540
C          1.24650       -3.16770        1.84380
C          1.47830       -2.28290        0.80870
C          4.17280       -0.30800       -0.65490
C          5.09230       -1.34060       -0.81450
C          6.37420       -1.06470       -1.24630
C          6.77300        0.23540       -1.53580
C          8.15270        0.52370       -2.04090
C          5.84990        1.26080       -1.37020
C          4.56680        0.99990       -0.93140
C          1.82990        0.46380       -2.19800
S          2.98280        0.28510       -3.46830
C          0.26370        0.40100        1.16100
C         -1.03260        0.10870        1.54930
F         -2.00650       -0.01310        0.62850
C         -1.39780       -0.11420        2.88120
F         -2.70490       -0.32160        3.11290
C         -0.47930       -0.10450        3.91660
C          0.83570        0.32830        3.56110
N          1.73840        0.50400        4.53250
C          2.92500        0.98420        4.26190
C          3.86710        1.09950        5.41940
C          4.67130       -0.19370        5.57320
C          3.25560        1.33660        2.92380
N          2.40190        1.12880        1.95210
C          1.19640        0.60440        2.22090
C          4.54980        1.99000        2.54620
C          4.42240        3.51210        2.64850
C         -0.75030       -0.46440        5.28390
C         -1.62250       -1.40590        5.83750
C         -2.53460       -2.36650        5.14650
C         -1.75230       -3.34140        4.26750
N         -1.53200       -1.52830        7.16190
C         -0.65380       -0.72970        7.70620
S          0.19810        0.25620        6.53910
C         -0.37900       -0.64090        9.09260
C         -0.83070       -1.47740       10.06120
C         -0.85050       -1.03990       11.48490
O         -0.23470       -0.11760       11.96880
C         -1.82410       -1.92970       12.14520
C         -2.30130       -1.83380       13.45190
C         -3.23390       -2.78790       13.77960
C         -3.66680       -3.76930       12.87650
C         -3.19950       -3.88370       11.58920
C         -2.24720       -2.92340       11.23570
C         -1.51450       -2.75350        9.98430
C         -1.32070       -3.71790        9.03490
C         -1.96390       -4.97220        9.03700
N         -2.47030       -6.00070        8.97370
C         -0.37060       -3.62830        7.99510
N          0.44630       -3.68350        7.18960
C         -4.62190       -4.37860       13.87220
C         -6.11690       -4.03930       13.69240
C         -6.72410       -4.35650       15.03990
C         -6.31320       -3.42950       15.89590
C         -5.42140       -2.47010       15.14110
C         -6.09920       -2.50700       13.76530
C         -4.13790       -3.28680       14.87980
H          3.34110        0.99690       -6.11660
H         -2.34380       -0.15480       -8.41430
H          1.31260        1.89720      -11.25490
H         -1.67750        1.93640      -12.94210
H         -0.16480       -0.02950      -13.91250
H         -2.38980        0.07360      -15.30610
H         -4.33130       -1.00080      -13.84540
H         -3.30120       -1.76630      -11.55260
H         -0.63990       -1.41740      -11.66130
H         -1.21470       -2.31420      -13.08570
H         -3.58000        0.88370      -11.50970
H         -1.84300        4.24800       -3.96880
H         -4.07800        4.17980       -2.94460
H         -6.17460        1.31380       -2.73630
H         -5.40830        1.61000       -1.18070
H         -5.96790        2.97300       -2.15590
H         -3.95250       -0.08420       -2.94060
H         -1.72080       -0.01540       -3.99630
H          1.78840        3.72140       -5.02100
H          2.14740        5.13370       -6.98430
H          0.93990        6.42970       -8.87140
H          1.29530        4.96460       -9.77520
H         -0.35730        5.58080       -9.72820
H         -1.64120        3.94810       -8.54790
H         -2.01520        2.53950       -6.57170
H          4.46030       -1.06810        1.82110
H          4.03890       -2.65180        3.64550
H          1.16360       -5.00380        3.74710
H          2.81350       -4.74150        4.33050
H          1.50880       -3.70580        4.88970
H          0.35180       -3.77340        1.82820
H          0.76870       -2.20430       -0.00180
H          4.79330       -2.35690       -0.60450
H          7.07580       -1.87670       -1.37170
H          8.49620        1.49730       -1.69880
H          8.85610       -0.23710       -1.71080
H          8.15210        0.53360       -3.13120
H          6.14060        2.27880       -1.58550
H          3.85930        1.80480       -0.79660
H          3.27240        1.25410        6.32060
H          4.54050        1.94610        5.28870
H          5.25680       -0.39550        4.67850
H          5.34700       -0.11390        6.42090
H          3.99620       -1.02860        5.74250
H          5.35710        1.64050        3.18950
H          4.77980        1.72130        1.51410
H          5.35690        3.98490        2.35780
H          4.17980        3.81630        3.66470
H          3.63370        3.86330        1.98790
H         -3.28230       -1.84260        4.55330
H         -3.05370       -2.92210        5.92940
H         -2.43420       -4.05230        3.80780
H         -1.03140       -3.88740        4.87090
H         -1.21620       -2.81340        3.48240
H          0.17320        0.23150        9.42130
H         -1.94230       -1.06470       14.11760
H         -3.54010       -4.63920       10.90040
H         -4.44940       -5.42530       14.11450
H         -6.58580       -4.49510       12.82470
H         -7.32470       -5.22480       15.23790
H         -6.50210       -3.36890       16.95160
H         -5.25760       -1.49570       15.59340
H         -5.52320       -2.03140       12.97360
H         -7.10250       -2.08480       13.78970
H         -3.64230       -3.60580       15.79470
