256

C          1.02170       -6.75960        5.59250
C          0.61580       -6.85540        6.90570
C          0.23310       -5.74590        7.77700
O          0.11100       -4.56630        7.48130
C          0.06720       -6.31610        9.12570
C         -0.30430       -5.63820       10.28420
C         -0.39940       -6.44180       11.39520
C         -0.14520       -7.81820       11.35600
C          0.22140       -8.49920       10.21860
C          0.32790       -7.69980        9.07760
C          0.65690       -8.06050        7.69790
C          0.91730       -9.33400        7.25110
C          1.07520       -9.71110        5.90380
N          1.17310      -10.11670        4.83200
C          1.03530      -10.46330        8.08460
N          1.17280      -11.42340        8.70070
C         -0.43370       -7.99530       12.82630
C          0.78780       -8.14480       13.75730
C          0.24010       -7.81810       15.12770
C         -0.00070       -6.51380       15.16560
C          0.38040       -5.93700       13.82130
C          1.56000       -6.85150       13.46640
C         -0.71720       -6.45940       12.87030
C          0.97500       -5.67900        4.71640
C          1.50150       -5.69620        3.40050
N          2.26810       -6.68440        2.85410
C          2.21960       -6.88980        1.46000
C          0.99470       -6.93260        0.79830
C          0.95360       -7.13600       -0.56550
C          2.12150       -7.31110       -1.30010
C          2.05750       -7.51470       -2.78220
C          3.33680       -7.28310       -0.62770
C          3.39270       -7.07400        0.73650
C          3.15430       -7.48960        3.60000
C          3.93340       -6.94120        4.61430
C          4.78520       -7.74960        5.34030
C          4.89710       -9.10780        5.06530
C          5.79450       -9.99280        5.87390
C          4.14120       -9.63580        4.02520
C          3.27480       -8.84360        3.29880
C          1.11600       -4.53850        2.69800
S          1.45550       -3.94210        1.10880
C          0.56100       -2.47190        1.46090
C         -0.06210       -2.50600        2.69210
N         -1.07530       -1.60050        3.04750
C         -0.82770       -0.57350        3.98580
C         -0.43890       -0.84490        5.29030
C         -0.20130        0.19410        6.17320
C         -0.33850        1.51890        5.78250
C         -0.07810        2.64690        6.73360
C         -0.74340        1.78290        4.47730
C         -0.98880        0.75360        3.59350
C         -2.28910       -1.63340        2.35270
C         -3.37930       -0.89590        2.82390
C         -4.59350       -0.93150        2.17180
C         -4.78570       -1.70870        1.03520
C         -6.11680       -1.74120        0.34770
C         -3.71570       -2.46970        0.59050
C         -2.49300       -2.44250        1.23520
C          0.31410       -3.66170        3.41970
S          0.08350       -4.19240        5.04340
C          0.55160       -1.41620        0.48140
C          1.10070       -0.14730        0.57320
N          1.77840        0.38340        1.65390
C          1.91430        1.77380        1.79240
C          3.14420        2.31170        2.16580
C          3.31240        3.67590        2.28860
C          2.25030        4.53430        2.03380
S          2.36060        6.29220        2.17800
C          4.12830        6.61850        1.91550
C          1.01500        4.00430        1.67800
C          0.84700        2.64160        1.55880
C          2.41200       -0.44870        2.59360
C          3.15510       -1.55900        2.19670
C          3.65920       -2.42850        3.14040
C          3.44490       -2.19570        4.49610
S          4.05180       -3.40170        5.63370
C          3.09130       -3.09760        7.14240
C          2.79930       -1.03430        4.89550
C          2.29330       -0.16620        3.95030
C          0.92920        0.55360       -0.64880
S          1.39220        2.12390       -1.19900
C          0.66220        1.81760       -2.76790
C          0.16190        0.52350       -2.86890
N         -0.41060       -0.02030       -4.01110
C         -1.57630       -0.77990       -3.85490
C         -2.53380       -0.38790       -2.91830
C         -3.67490       -1.13390       -2.73280
C         -3.89170       -2.28610       -3.48580
S         -5.39160       -3.16930       -3.18060
C         -5.53410       -4.27980       -4.60890
C         -2.93970       -2.68440       -4.41460
C         -1.79160       -1.93870       -4.59450
C          0.23570        0.09700       -5.24410
C         -0.50140        0.12380       -6.43130
C          0.13480        0.27690       -7.64080
C          1.52090        0.41360       -7.70240
S          2.21990        0.62340       -9.31100
C          4.01180        0.59210       -9.01770
C          2.25740        0.39080       -6.52650
C          1.62050        0.22930       -5.31140
C          0.30840       -0.17510       -1.64970
S         -0.09350       -1.76580       -1.12110
C          0.42570        2.90360       -3.64330
C          0.92000        4.20130       -3.52260
N          1.96670        4.57810       -2.69270
C          1.82850        5.77580       -1.97170
C          0.60800        6.08260       -1.37530
C          0.45090        7.26610       -0.68520
C          1.50030        8.16950       -0.56200
C          1.32640        9.42940        0.22720
C          2.71310        7.85590       -1.16100
C          2.88130        6.67820       -1.86290
C          3.16830        3.86530       -2.69340
C          3.96600        3.83600       -1.54830
C          5.13920        3.11340       -1.53460
C          5.55350        2.39160       -2.64970
C          6.83670        1.61860       -2.62200
C          4.75150        2.41970       -3.78260
C          3.57640        3.14540       -3.81330
C          0.20410        5.09010       -4.34900
S          0.29600        6.78870       -4.63970
C         -1.06880        6.69180       -5.76910
C         -1.47380        5.35990       -5.98750
N         -2.31460        4.91410       -6.96940
C         -2.96810        3.67460       -6.80240
C         -3.62000        3.37720       -5.60970
C         -4.22540        2.14690       -5.44260
C         -4.20820        1.19700       -6.45610
C         -4.87950       -0.12960       -6.27690
C         -3.57650        1.51630       -7.65340
C         -2.95830        2.73790       -7.83050
C         -2.47420        5.59600       -8.19000
C         -1.39050        6.21350       -8.80880
C         -1.57590        6.93810       -9.96910
C         -2.83490        7.05810      -10.54940
C         -3.04020        7.90900      -11.76260
C         -3.89720        6.38250       -9.96060
C         -3.72550        5.65640       -8.79860
C         -0.77500        4.48630       -5.12500
S         -0.83420        2.78000       -4.85980
C         -1.65440        7.85620       -6.28230
C         -2.95700        7.99880       -6.72820
C         -4.02240        7.15360       -6.40340
N         -4.85810        6.48130       -5.99170
C         -3.05600        9.27140       -7.38340
C         -4.10970        9.75090       -8.11800
C         -5.27900        8.99900       -8.31960
N         -6.23920        8.40880       -8.53750
C         -4.03910       10.99270       -8.77460
N         -3.98620       11.99680       -9.32800
O         -1.90720        9.95190       -7.25750
C         -0.96130        9.18580       -6.49360
C         -0.71560        9.92540       -5.17370
C          0.32460        9.06770       -7.30840
H          1.43790       -7.66050        5.16180
H         -0.50230       -4.57780       10.26670
H          0.40630       -9.56020       10.20460
H         -1.24250       -8.68110       13.07170
H          1.32530       -9.08360       13.65550
H          0.03730       -8.55370       15.88390
H         -0.44480       -5.94240       15.95960
H          0.54760       -4.86390       13.77910
H          2.40410       -6.71540       14.14060
H          1.89790       -6.75970       12.43580
H         -1.71490       -6.12230       13.14570
H          0.07970       -6.81550        1.36060
H         -0.00140       -7.16650       -1.06900
H          1.76080       -6.58770       -3.27300
H          3.02330       -7.81900       -3.17700
H          1.31970       -8.27460       -3.03330
H          4.25560       -7.42180       -1.17870
H          4.34320       -7.04970        1.24860
H          3.86560       -5.88730        4.83540
H          5.37890       -7.31090        6.12910
H          5.19710      -10.63650        6.52030
H          6.46370       -9.40590        6.49800
H          6.38780      -10.63470        5.22560
H          4.21530      -10.68730        3.79310
H          2.67750       -9.27230        2.50940
H         -0.33820       -1.86440        5.62460
H          0.08940       -0.03560        7.18830
H          0.53280        3.41350        6.25920
H          0.42910        2.29440        7.62830
H         -1.01800        3.11040        7.03340
H         -0.85820        2.80700        4.15150
H         -1.32190        0.96080        2.58790
H         -3.27930       -0.30270        3.72000
H         -5.41550       -0.34810        2.56220
H         -6.86030       -2.21420        0.98940
H         -6.06120       -2.30180       -0.58240
H         -6.46370       -0.73130        0.13110
H         -3.83340       -3.10140       -0.27820
H         -1.70360       -3.07480        0.86000
H          3.97560        1.64930        2.35730
H          4.27700        4.06150        2.57860
H          4.46460        6.08930        1.02910
H          4.70480        6.33150        2.79010
H          4.20890        7.68930        1.75880
H          0.19100        4.67520        1.49140
H         -0.11570        2.24670        1.27710
H          3.32350       -1.74310        1.14610
H          4.21380       -3.30270        2.83420
H          2.02950       -3.10770        6.91380
H          3.33030       -3.92180        7.80810
H          3.39430       -2.16050        7.60050
H          2.66680       -0.80350        5.93950
H          1.78500        0.73210        4.26250
H         -2.38030        0.51310       -2.34390
H         -4.41240       -0.82890       -2.00740
H         -6.52900       -4.70960       -4.54760
H         -5.43290       -3.70710       -5.52610
H         -4.79040       -5.06940       -4.55040
H         -3.07240       -3.58250       -4.99620
H         -1.04890       -2.26490       -5.30700
H         -1.57690        0.05180       -6.39110
H         -0.43690        0.30730       -8.55540
H          4.29020       -0.33910       -8.53260
H          4.31050        1.45280       -8.42590
H          4.46900        0.64670      -10.00090
H          3.33050        0.49430       -6.53800
H          2.20800        0.21070       -4.40500
H         -0.21000        5.38090       -1.45340
H         -0.49890        7.49080       -0.22240
H          1.34460        9.19830        1.29280
H          2.12300       10.13810        0.01470
H          0.36960        9.89660        0.00370
H          3.54040        8.54760       -1.08610
H          3.82690        6.45470       -2.33530
H          3.63650        4.36180       -0.66490
H          5.73980        3.09430       -0.63630
H          6.88930        0.91940       -3.45290
H          7.68650        2.29810       -2.69370
H          6.93190        1.06480       -1.68990
H          5.05270        1.86700       -4.66140
H          2.96960        3.15250       -4.70740
H         -3.66140        4.12020       -4.82780
H         -4.72380        1.92190       -4.51150
H         -4.33210       -0.91430       -6.79630
H         -4.95120       -0.38630       -5.22300
H         -5.88850       -0.09380       -6.68900
H         -3.56100        0.79360       -8.45670
H         -2.45940        2.97040       -8.75970
H         -0.40480        6.12120       -8.37510
H         -0.72810        7.41820      -10.43790
H         -3.21990        8.94270      -11.46290
H         -2.16170        7.89430      -12.40400
H         -3.90360        7.57210      -12.33030
H         -4.88070        6.44450      -10.40020
H         -4.56540        5.15690       -8.34150
H          0.05170        9.42250       -4.59290
H         -1.63380        9.96660       -4.59090
H         -0.39500       10.94050       -5.39330
H          0.73400       10.05970       -7.47800
H          0.11310        8.60790       -8.27060
H          1.05040        8.46580       -6.76910
