
  xtb     02172221513D
 energy: -287.267901401441 gnorm: 0.000641024778 xtb: 6.4.1 (unknown)
177194  0     0  0            999 V2000
   -5.2955   -3.4912    3.1423 C   0  0  0  0  0  0  0  0  0  0  0  0
   -5.0848   -4.7596    3.6360 C   0  0  0  0  0  0  0  0  0  0  0  0
   -3.8148   -5.3075    4.1170 C   0  0  0  0  0  0  0  0  0  0  0  0
   -2.7140   -4.7821    4.0975 O   0  0  0  0  0  0  0  0  0  0  0  0
   -4.1235   -6.6380    4.6731 C   0  0  0  0  0  0  0  0  0  0  0  0
   -3.2251   -7.5395    5.2382 C   0  0  0  0  0  0  0  0  0  0  0  0
   -3.8023   -8.7138    5.6589 C   0  0  0  0  0  0  0  0  0  0  0  0
   -5.1736   -8.9683    5.5335 C   0  0  0  0  0  0  0  0  0  0  0  0
   -6.0711   -8.0851    4.9809 C   0  0  0  0  0  0  0  0  0  0  0  0
   -5.5033   -6.8868    4.5395 C   0  0  0  0  0  0  0  0  0  0  0  0
   -6.1178   -5.7393    3.8706 C   0  0  0  0  0  0  0  0  0  0  0  0
   -7.4390   -5.6548    3.4993 C   0  0  0  0  0  0  0  0  0  0  0  0
   -8.0073   -4.6315    2.7176 C   0  0  0  0  0  0  0  0  0  0  0  0
   -8.5529   -3.8674    2.0532 N   0  0  0  0  0  0  0  0  0  0  0  0
   -8.4216   -6.6126    3.8172 C   0  0  0  0  0  0  0  0  0  0  0  0
   -9.2827   -7.3363    4.0521 N   0  0  0  0  0  0  0  0  0  0  0  0
   -5.0566  -10.3421    6.1462 C   0  0  0  0  0  0  0  0  0  0  0  0
   -5.0959  -11.5360    5.1690 C   0  0  0  0  0  0  0  0  0  0  0  0
   -4.4894  -12.6718    5.9607 C   0  0  0  0  0  0  0  0  0  0  0  0
   -3.1899  -12.4318    6.0797 C   0  0  0  0  0  0  0  0  0  0  0  0
   -2.8963  -11.1297    5.3701 C   0  0  0  0  0  0  0  0  0  0  0  0
   -3.9238  -11.2112    4.2338 C   0  0  0  0  0  0  0  0  0  0  0  0
   -3.5265  -10.0586    6.2855 C   0  0  0  0  0  0  0  0  0  0  0  0
   -4.3851   -2.4869    2.8196 C   0  0  0  0  0  0  0  0  0  0  0  0
   -4.7718   -1.2206    2.3073 C   0  0  0  0  0  0  0  0  0  0  0  0
   -6.0567   -0.7432    2.2626 N   0  0  0  0  0  0  0  0  0  0  0  0
   -6.4627    0.0338    1.1637 C   0  0  0  0  0  0  0  0  0  0  0  0
   -7.2814    1.1446    1.3432 C   0  0  0  0  0  0  0  0  0  0  0  0
   -7.7397    1.8512    0.2491 C   0  0  0  0  0  0  0  0  0  0  0  0
   -7.3942    1.4770   -1.0435 C   0  0  0  0  0  0  0  0  0  0  0  0
   -7.9564    2.1935   -2.2331 C   0  0  0  0  0  0  0  0  0  0  0  0
   -6.5450    0.3886   -1.2107 C   0  0  0  0  0  0  0  0  0  0  0  0
   -6.0829   -0.3286   -0.1262 C   0  0  0  0  0  0  0  0  0  0  0  0
   -6.9747   -0.9924    3.2994 C   0  0  0  0  0  0  0  0  0  0  0  0
   -6.5444   -1.0444    4.6232 C   0  0  0  0  0  0  0  0  0  0  0  0
   -7.4437   -1.3238    5.6328 C   0  0  0  0  0  0  0  0  0  0  0  0
   -8.7888   -1.5392    5.3570 C   0  0  0  0  0  0  0  0  0  0  0  0
   -9.7653   -1.8672    6.4442 C   0  0  0  0  0  0  0  0  0  0  0  0
   -9.2142   -1.4484    4.0367 C   0  0  0  0  0  0  0  0  0  0  0  0
   -8.3252   -1.1828    3.0148 C   0  0  0  0  0  0  0  0  0  0  0  0
   -3.6561   -0.4978    1.8529 C   0  0  0  0  0  0  0  0  0  0  0  0
   -3.4408    1.0381    1.0652 S   0  0  0  0  0  0  0  0  0  0  0  0
   -1.7061    0.8243    1.1268 C   0  0  0  0  0  0  0  0  0  0  0  0
   -1.3230   -0.4295    1.6001 C   0  0  0  0  0  0  0  0  0  0  0  0
   -0.0520   -0.9578    1.5282 N   0  0  0  0  0  0  0  0  0  0  0  0
    0.3399   -1.8940    2.5009 C   0  0  0  0  0  0  0  0  0  0  0  0
    0.0194   -1.6809    3.8392 C   0  0  0  0  0  0  0  0  0  0  0  0
    0.3432   -2.6299    4.7858 C   0  0  0  0  0  0  0  0  0  0  0  0
    0.9977   -3.8032    4.4288 C   0  0  0  0  0  0  0  0  0  0  0  0
    1.2954   -4.8424    5.4647 C   0  0  0  0  0  0  0  0  0  0  0  0
    1.3451   -3.9890    3.0974 C   0  0  0  0  0  0  0  0  0  0  0  0
    1.0220   -3.0496    2.1377 C   0  0  0  0  0  0  0  0  0  0  0  0
    0.8094   -0.6356    0.4703 C   0  0  0  0  0  0  0  0  0  0  0  0
    2.1751   -0.4831    0.6988 C   0  0  0  0  0  0  0  0  0  0  0  0
    3.0118   -0.0734   -0.3216 C   0  0  0  0  0  0  0  0  0  0  0  0
    2.5179    0.1971   -1.5911 C   0  0  0  0  0  0  0  0  0  0  0  0
    3.4181    0.6704   -2.6911 C   0  0  0  0  0  0  0  0  0  0  0  0
    1.1602   -0.0008   -1.8239 C   0  0  0  0  0  0  0  0  0  0  0  0
    0.3163   -0.4205   -0.8171 C   0  0  0  0  0  0  0  0  0  0  0  0
   -2.4491   -1.1602    2.0500 C   0  0  0  0  0  0  0  0  0  0  0  0
   -2.6332   -2.6916    2.8229 S   0  0  0  0  0  0  0  0  0  0  0  0
   -0.8315    1.8328    0.6141 C   0  0  0  0  0  0  0  0  0  0  0  0
    0.4452    2.0574    1.1088 C   0  0  0  0  0  0  0  0  0  0  0  0
    0.8037    1.5399    2.2983 F   0  0  0  0  0  0  0  0  0  0  0  0
    1.3887    2.7986    0.4047 C   0  0  0  0  0  0  0  0  0  0  0  0
    2.6173    2.8853    0.9480 F   0  0  0  0  0  0  0  0  0  0  0  0
    1.1281    3.3791   -0.8345 C   0  0  0  0  0  0  0  0  0  0  0  0
   -0.2474    3.3686   -1.2381 C   0  0  0  0  0  0  0  0  0  0  0  0
   -0.6593    4.0751   -2.3010 N   0  0  0  0  0  0  0  0  0  0  0  0
   -1.9251    4.0701   -2.6498 C   0  0  0  0  0  0  0  0  0  0  0  0
   -2.2711    4.8804   -3.8640 C   0  0  0  0  0  0  0  0  0  0  0  0
   -2.2312    4.0034   -5.1182 C   0  0  0  0  0  0  0  0  0  0  0  0
   -2.8760    3.3092   -1.9230 C   0  0  0  0  0  0  0  0  0  0  0  0
   -2.4894    2.6031   -0.8883 N   0  0  0  0  0  0  0  0  0  0  0  0
   -1.2064    2.6162   -0.5117 C   0  0  0  0  0  0  0  0  0  0  0  0
   -4.3474    3.3099   -2.1985 C   0  0  0  0  0  0  0  0  0  0  0  0
   -5.0204    4.3951   -1.3545 C   0  0  0  0  0  0  0  0  0  0  0  0
    2.1688    3.9009   -1.6683 C   0  0  0  0  0  0  0  0  0  0  0  0
    3.8317    3.9609   -1.1309 S   0  0  0  0  0  0  0  0  0  0  0  0
    4.3340    4.5219   -2.6740 C   0  0  0  0  0  0  0  0  0  0  0  0
    5.6203    4.8376   -3.1607 C   0  0  0  0  0  0  0  0  0  0  0  0
    5.6771    5.2569   -4.5015 C   0  0  0  0  0  0  0  0  0  0  0  0
    3.9344    5.2487   -5.2369 Si  0  0  0  0  0  4  0  0  0  0  0  0
    3.7288    3.9371   -6.6126 C   0  0  0  0  0  0  0  0  0  0  0  0
    4.8986    3.9071   -7.5932 C   0  0  0  0  0  0  0  0  0  0  0  0
    3.2932    6.9859   -5.6942 C   0  0  0  0  0  0  0  0  0  0  0  0
    3.8951    7.5265   -6.9868 C   0  0  0  0  0  0  0  0  0  0  0  0
    3.2713    4.6608   -3.5675 C   0  0  0  0  0  0  0  0  0  0  0  0
    2.0603    4.3113   -2.9891 C   0  0  0  0  0  0  0  0  0  0  0  0
    6.9700    5.5395   -4.8785 C   0  0  0  0  0  0  0  0  0  0  0  0
    7.9183    5.3488   -3.8619 C   0  0  0  0  0  0  0  0  0  0  0  0
    7.1489    4.7917   -2.3873 S   0  0  0  0  0  0  0  0  0  0  0  0
    9.2802    5.5960   -4.0656 C   0  0  0  0  0  0  0  0  0  0  0  0
   10.3497    5.4786   -3.2114 C   0  0  0  0  0  0  0  0  0  0  0  0
   10.2878    5.0314   -1.8139 C   0  0  0  0  0  0  0  0  0  0  0  0
    9.3008    4.6851   -1.1880 O   0  0  0  0  0  0  0  0  0  0  0  0
   11.6698    5.0813   -1.3096 C   0  0  0  0  0  0  0  0  0  0  0  0
   12.1540    4.7655   -0.0557 C   0  0  0  0  0  0  0  0  0  0  0  0
   13.5142    4.8983    0.1765 C   0  0  0  0  0  0  0  0  0  0  0  0
   14.3784    5.3388   -0.8228 C   0  0  0  0  0  0  0  0  0  0  0  0
   15.8391    5.4980   -0.5419 C   0  0  0  0  0  0  0  0  0  0  0  0
   13.8794    5.6557   -2.0864 C   0  0  0  0  0  0  0  0  0  0  0  0
   12.5242    5.5268   -2.3330 C   0  0  0  0  0  0  0  0  0  0  0  0
   11.7279    5.7774   -3.5356 C   0  0  0  0  0  0  0  0  0  0  0  0
   12.2307    6.2134   -4.7363 C   0  0  0  0  0  0  0  0  0  0  0  0
   11.4845    6.4597   -5.9065 C   0  0  0  0  0  0  0  0  0  0  0  0
   10.9577    6.6845   -6.9032 N   0  0  0  0  0  0  0  0  0  0  0  0
   13.5945    6.4796   -4.9751 C   0  0  0  0  0  0  0  0  0  0  0  0
   14.6862    6.7138   -5.2446 N   0  0  0  0  0  0  0  0  0  0  0  0
   -6.3282   -3.2264    2.9552 H   0  0  0  0  0  0  0  0  0  0  0  0
   -2.1756   -7.3014    5.3141 H   0  0  0  0  0  0  0  0  0  0  0  0
   -7.1236   -8.2966    4.8938 H   0  0  0  0  0  0  0  0  0  0  0  0
   -5.6395  -10.5120    7.0495 H   0  0  0  0  0  0  0  0  0  0  0  0
   -6.0650  -11.7191    4.7131 H   0  0  0  0  0  0  0  0  0  0  0  0
   -5.0585  -13.4772    6.3868 H   0  0  0  0  0  0  0  0  0  0  0  0
   -2.4566  -12.9966    6.6251 H   0  0  0  0  0  0  0  0  0  0  0  0
   -1.8609  -10.9441    5.0969 H   0  0  0  0  0  0  0  0  0  0  0  0
   -4.0441  -10.2838    3.6771 H   0  0  0  0  0  0  0  0  0  0  0  0
   -3.7103  -12.0256    3.5433 H   0  0  0  0  0  0  0  0  0  0  0  0
   -3.0893  -10.0396    7.2823 H   0  0  0  0  0  0  0  0  0  0  0  0
   -7.5644    1.4420    2.3418 H   0  0  0  0  0  0  0  0  0  0  0  0
   -8.3839    2.7047    0.4034 H   0  0  0  0  0  0  0  0  0  0  0  0
   -8.3336    3.1751   -1.9568 H   0  0  0  0  0  0  0  0  0  0  0  0
   -8.7858    1.6200   -2.6486 H   0  0  0  0  0  0  0  0  0  0  0  0
   -7.2070    2.3053   -3.0136 H   0  0  0  0  0  0  0  0  0  0  0  0
   -6.2623    0.0820   -2.2077 H   0  0  0  0  0  0  0  0  0  0  0  0
   -5.4489   -1.1905   -0.2727 H   0  0  0  0  0  0  0  0  0  0  0  0
   -5.5028   -0.8761    4.8543 H   0  0  0  0  0  0  0  0  0  0  0  0
   -7.0928   -1.3704    6.6537 H   0  0  0  0  0  0  0  0  0  0  0  0
  -10.2032   -2.8498    6.2712 H   0  0  0  0  0  0  0  0  0  0  0  0
   -9.2811   -1.8696    7.4174 H   0  0  0  0  0  0  0  0  0  0  0  0
  -10.5774   -1.1416    6.4594 H   0  0  0  0  0  0  0  0  0  0  0  0
  -10.2551   -1.6106    3.8007 H   0  0  0  0  0  0  0  0  0  0  0  0
   -8.6689   -1.1426    1.9936 H   0  0  0  0  0  0  0  0  0  0  0  0
   -0.4804   -0.7674    4.1253 H   0  0  0  0  0  0  0  0  0  0  0  0
    0.0802   -2.4618    5.8198 H   0  0  0  0  0  0  0  0  0  0  0  0
    1.7981   -4.3994    6.3232 H   0  0  0  0  0  0  0  0  0  0  0  0
    0.3628   -5.2836    5.8150 H   0  0  0  0  0  0  0  0  0  0  0  0
    1.9220   -5.6327    5.0592 H   0  0  0  0  0  0  0  0  0  0  0  0
    1.8617   -4.8904    2.8004 H   0  0  0  0  0  0  0  0  0  0  0  0
    1.2806   -3.2132    1.1016 H   0  0  0  0  0  0  0  0  0  0  0  0
    2.5670   -0.6537    1.6900 H   0  0  0  0  0  0  0  0  0  0  0  0
    4.0630    0.0658   -0.1174 H   0  0  0  0  0  0  0  0  0  0  0  0
    4.3472    1.0653   -2.2878 H   0  0  0  0  0  0  0  0  0  0  0  0
    3.6603   -0.1562   -3.3600 H   0  0  0  0  0  0  0  0  0  0  0  0
    2.9311    1.4463   -3.2802 H   0  0  0  0  0  0  0  0  0  0  0  0
    0.7587    0.1795   -2.8111 H   0  0  0  0  0  0  0  0  0  0  0  0
   -0.7343   -0.5685   -1.0201 H   0  0  0  0  0  0  0  0  0  0  0  0
   -1.5315    5.6763   -3.9607 H   0  0  0  0  0  0  0  0  0  0  0  0
   -3.2582    5.3294   -3.7551 H   0  0  0  0  0  0  0  0  0  0  0  0
   -2.9463    3.1869   -5.0452 H   0  0  0  0  0  0  0  0  0  0  0  0
   -2.4701    4.5960   -5.9977 H   0  0  0  0  0  0  0  0  0  0  0  0
   -1.2387    3.5775   -5.2450 H   0  0  0  0  0  0  0  0  0  0  0  0
   -4.7469    2.3404   -1.8993 H   0  0  0  0  0  0  0  0  0  0  0  0
   -4.5485    3.4767   -3.2563 H   0  0  0  0  0  0  0  0  0  0  0  0
   -4.8607    4.1865   -0.2999 H   0  0  0  0  0  0  0  0  0  0  0  0
   -4.6090    5.3767   -1.5819 H   0  0  0  0  0  0  0  0  0  0  0  0
   -6.0890    4.4111   -1.5471 H   0  0  0  0  0  0  0  0  0  0  0  0
    2.8074    4.1330   -7.1619 H   0  0  0  0  0  0  0  0  0  0  0  0
    3.6206    2.9475   -6.1660 H   0  0  0  0  0  0  0  0  0  0  0  0
    4.7335    3.1548   -8.3623 H   0  0  0  0  0  0  0  0  0  0  0  0
    5.8240    3.6681   -7.0757 H   0  0  0  0  0  0  0  0  0  0  0  0
    5.0222    4.8698   -8.0814 H   0  0  0  0  0  0  0  0  0  0  0  0
    3.5107    7.6797   -4.8809 H   0  0  0  0  0  0  0  0  0  0  0  0
    2.2075    6.9542   -5.7933 H   0  0  0  0  0  0  0  0  0  0  0  0
    3.5235    8.5282   -7.1945 H   0  0  0  0  0  0  0  0  0  0  0  0
    4.9786    7.5745   -6.9159 H   0  0  0  0  0  0  0  0  0  0  0  0
    3.6339    6.8889   -7.8276 H   0  0  0  0  0  0  0  0  0  0  0  0
    1.1129    4.3404   -3.4917 H   0  0  0  0  0  0  0  0  0  0  0  0
    7.2599    5.8787   -5.8581 H   0  0  0  0  0  0  0  0  0  0  0  0
    9.4986    5.9396   -5.0697 H   0  0  0  0  0  0  0  0  0  0  0  0
   11.4802    4.4240    0.7150 H   0  0  0  0  0  0  0  0  0  0  0  0
   13.9160    4.6563    1.1496 H   0  0  0  0  0  0  0  0  0  0  0  0
   16.4243    5.3786   -1.4502 H   0  0  0  0  0  0  0  0  0  0  0  0
   16.0307    6.4969   -0.1483 H   0  0  0  0  0  0  0  0  0  0  0  0
   16.1752    4.7757    0.1983 H   0  0  0  0  0  0  0  0  0  0  0  0
   14.5600    5.9958   -2.8502 H   0  0  0  0  0  0  0  0  0  0  0  0
  1  2  2  0  0  0  0
  2  3  1  0  0  0  0
  3  4  2  0  0  0  0
  3  5  1  0  0  0  0
  5  6  2  0  0  0  0
  6  7  1  0  0  0  0
  7  8  2  0  0  0  0
  8  9  1  0  0  0  0
  9 10  2  0  0  0  0
 10 11  1  0  0  0  0
 11 12  2  0  0  0  0
 12 13  1  0  0  0  0
 13 14  3  0  0  0  0
 12 15  1  0  0  0  0
 15 16  3  0  0  0  0
  8 17  1  0  0  0  0
 17 18  1  0  0  0  0
 18 19  1  0  0  0  0
 19 20  2  0  0  0  0
 20 21  1  0  0  0  0
 21 22  1  0  0  0  0
 21 23  1  0  0  0  0
  1 24  1  0  0  0  0
 24 25  2  0  0  0  0
 25 26  1  0  0  0  0
 26 27  1  0  0  0  0
 27 28  2  0  0  0  0
 28 29  1  0  0  0  0
 29 30  2  0  0  0  0
 30 31  1  0  0  0  0
 30 32  1  0  0  0  0
 32 33  2  0  0  0  0
 26 34  1  0  0  0  0
 34 35  2  0  0  0  0
 35 36  1  0  0  0  0
 36 37  2  0  0  0  0
 37 38  1  0  0  0  0
 37 39  1  0  0  0  0
 39 40  2  0  0  0  0
 25 41  1  0  0  0  0
 41 42  1  0  0  0  0
 42 43  1  0  0  0  0
 43 44  2  0  0  0  0
 44 45  1  0  0  0  0
 45 46  1  0  0  0  0
 46 47  2  0  0  0  0
 47 48  1  0  0  0  0
 48 49  2  0  0  0  0
 49 50  1  0  0  0  0
 49 51  1  0  0  0  0
 51 52  2  0  0  0  0
 45 53  1  0  0  0  0
 53 54  2  0  0  0  0
 54 55  1  0  0  0  0
 55 56  2  0  0  0  0
 56 57  1  0  0  0  0
 56 58  1  0  0  0  0
 58 59  2  0  0  0  0
 44 60  1  0  0  0  0
 60 61  1  0  0  0  0
 43 62  1  0  0  0  0
 62 63  2  0  0  0  0
 63 64  1  0  0  0  0
 63 65  1  0  0  0  0
 65 66  1  0  0  0  0
 65 67  2  0  0  0  0
 67 68  1  0  0  0  0
 68 69  2  0  0  0  0
 69 70  1  0  0  0  0
 70 71  1  0  0  0  0
 71 72  1  0  0  0  0
 70 73  2  0  0  0  0
 73 74  1  0  0  0  0
 74 75  2  0  0  0  0
 73 76  1  0  0  0  0
 76 77  1  0  0  0  0
 67 78  1  0  0  0  0
 78 79  1  0  0  0  0
 79 80  1  0  0  0  0
 80 81  1  0  0  0  0
 81 82  2  0  0  0  0
 82 83  1  0  0  0  0
 83 84  1  0  0  0  0
 84 85  1  0  0  0  0
 83 86  1  0  0  0  0
 86 87  1  0  0  0  0
 83 88  1  0  0  0  0
 88 89  1  0  0  0  0
 82 90  1  0  0  0  0
 90 91  2  0  0  0  0
 91 92  1  0  0  0  0
 91 93  1  0  0  0  0
 93 94  2  0  0  0  0
 94 95  1  0  0  0  0
 95 96  2  0  0  0  0
 95 97  1  0  0  0  0
 97 98  2  0  0  0  0
 98 99  1  0  0  0  0
 99100  2  0  0  0  0
100101  1  0  0  0  0
100102  1  0  0  0  0
102103  2  0  0  0  0
103104  1  0  0  0  0
104105  2  0  0  0  0
105106  1  0  0  0  0
106107  3  0  0  0  0
105108  1  0  0  0  0
108109  3  0  0  0  0
 11  2  1  0  0  0  0
 23 17  1  0  0  0  0
 61 24  1  0  0  0  0
 75 62  1  0  0  0  0
 89 78  2  0  0  0  0
104 94  1  0  0  0  0
 10  5  1  0  0  0  0
 22 18  1  0  0  0  0
 33 27  1  0  0  0  0
 40 34  1  0  0  0  0
 60 41  2  0  0  0  0
 75 68  1  0  0  0  0
 88 80  2  0  0  0  0
103 97  1  0  0  0  0
 23  7  1  0  0  0  0
 52 46  1  0  0  0  0
 59 53  1  0  0  0  0
 92 81  1  0  0  0  0
  1110  1  0  0  0  0
  6111  1  0  0  0  0
  9112  1  0  0  0  0
 17113  1  0  0  0  0
 18114  1  0  0  0  0
 19115  1  0  0  0  0
 20116  1  0  0  0  0
 21117  1  0  0  0  0
 22118  1  0  0  0  0
 22119  1  0  0  0  0
 23120  1  0  0  0  0
 28121  1  0  0  0  0
 29122  1  0  0  0  0
 31123  1  0  0  0  0
 31124  1  0  0  0  0
 31125  1  0  0  0  0
 32126  1  0  0  0  0
 33127  1  0  0  0  0
 35128  1  0  0  0  0
 36129  1  0  0  0  0
 38130  1  0  0  0  0
 38131  1  0  0  0  0
 38132  1  0  0  0  0
 39133  1  0  0  0  0
 40134  1  0  0  0  0
 47135  1  0  0  0  0
 48136  1  0  0  0  0
 50137  1  0  0  0  0
 50138  1  0  0  0  0
 50139  1  0  0  0  0
 51140  1  0  0  0  0
 52141  1  0  0  0  0
 54142  1  0  0  0  0
 55143  1  0  0  0  0
 57144  1  0  0  0  0
 57145  1  0  0  0  0
 57146  1  0  0  0  0
 58147  1  0  0  0  0
 59148  1  0  0  0  0
 71149  1  0  0  0  0
 71150  1  0  0  0  0
 72151  1  0  0  0  0
 72152  1  0  0  0  0
 72153  1  0  0  0  0
 76154  1  0  0  0  0
 76155  1  0  0  0  0
 77156  1  0  0  0  0
 77157  1  0  0  0  0
 77158  1  0  0  0  0
 84159  1  0  0  0  0
 84160  1  0  0  0  0
 85161  1  0  0  0  0
 85162  1  0  0  0  0
 85163  1  0  0  0  0
 86164  1  0  0  0  0
 86165  1  0  0  0  0
 87166  1  0  0  0  0
 87167  1  0  0  0  0
 87168  1  0  0  0  0
 89169  1  0  0  0  0
 90170  1  0  0  0  0
 93171  1  0  0  0  0
 98172  1  0  0  0  0
 99173  1  0  0  0  0
101174  1  0  0  0  0
101175  1  0  0  0  0
101176  1  0  0  0  0
102177  1  0  0  0  0
M  END
