
  xtb     02152200383D
 energy: -292.051656163340 gnorm: 0.000755878064 xtb: 6.4.1 (unknown)
176196  0     0  0            999 V2000
    5.2466    5.6312   -0.7388 C   0  0  0  0  0  0  0  0  0  0  0  0
    6.2074    5.5374    0.2438 C   0  0  0  0  0  0  0  0  0  0  0  0
    6.6678    4.3091    0.8935 C   0  0  0  0  0  0  0  0  0  0  0  0
    6.2589    3.1716    0.7246 O   0  0  0  0  0  0  0  0  0  0  0  0
    7.7708    4.7028    1.7887 C   0  0  0  0  0  0  0  0  0  0  0  0
    8.5051    3.8712    2.6293 C   0  0  0  0  0  0  0  0  0  0  0  0
    9.4696    4.5247    3.3584 C   0  0  0  0  0  0  0  0  0  0  0  0
    9.6849    5.9047    3.2590 C   0  0  0  0  0  0  0  0  0  0  0  0
    8.9625    6.7371    2.4364 C   0  0  0  0  0  0  0  0  0  0  0  0
    7.9791    6.0919    1.6828 C   0  0  0  0  0  0  0  0  0  0  0  0
    7.0051    6.6352    0.7345 C   0  0  0  0  0  0  0  0  0  0  0  0
    6.8735    7.9654    0.4121 C   0  0  0  0  0  0  0  0  0  0  0  0
    5.8523    8.5227   -0.3807 C   0  0  0  0  0  0  0  0  0  0  0  0
    5.0380    9.0744   -0.9773 N   0  0  0  0  0  0  0  0  0  0  0  0
    7.7373    8.9841    0.8597 C   0  0  0  0  0  0  0  0  0  0  0  0
    8.4078    9.8666    1.1632 N   0  0  0  0  0  0  0  0  0  0  0  0
   10.8074    5.8830    4.2663 C   0  0  0  0  0  0  0  0  0  0  0  0
   12.2585    5.9647    3.7314 C   0  0  0  0  0  0  0  0  0  0  0  0
   12.2327    5.3993    2.3333 C   0  0  0  0  0  0  0  0  0  0  0  0
   12.0287    4.0923    2.4288 C   0  0  0  0  0  0  0  0  0  0  0  0
   11.9124    3.7505    3.8936 C   0  0  0  0  0  0  0  0  0  0  0  0
   12.8824    4.7826    4.4904 C   0  0  0  0  0  0  0  0  0  0  0  0
   10.5666    4.3445    4.3781 C   0  0  0  0  0  0  0  0  0  0  0  0
    4.3735    4.6675   -1.2384 C   0  0  0  0  0  0  0  0  0  0  0  0
    3.4128    4.9386   -2.2473 C   0  0  0  0  0  0  0  0  0  0  0  0
    3.3595    6.0685   -3.0140 N   0  0  0  0  0  0  0  0  0  0  0  0
    4.5093    6.7441   -3.4613 C   0  0  0  0  0  0  0  0  0  0  0  0
    4.4857    8.1287   -3.6099 C   0  0  0  0  0  0  0  0  0  0  0  0
    5.6097    8.7935   -4.0568 C   0  0  0  0  0  0  0  0  0  0  0  0
    6.7804    8.1068   -4.3567 C   0  0  0  0  0  0  0  0  0  0  0  0
    8.0007    8.8519   -4.8023 C   0  0  0  0  0  0  0  0  0  0  0  0
    6.7876    6.7234   -4.2213 C   0  0  0  0  0  0  0  0  0  0  0  0
    5.6672    6.0428   -3.7886 C   0  0  0  0  0  0  0  0  0  0  0  0
    2.0994    6.5111   -3.4691 C   0  0  0  0  0  0  0  0  0  0  0  0
    1.9102    6.8677   -4.7990 C   0  0  0  0  0  0  0  0  0  0  0  0
    0.6667    7.2890   -5.2289 C   0  0  0  0  0  0  0  0  0  0  0  0
   -0.4088    7.3615   -4.3531 C   0  0  0  0  0  0  0  0  0  0  0  0
   -1.7637    7.7970   -4.8166 C   0  0  0  0  0  0  0  0  0  0  0  0
   -0.2051    7.0128   -3.0219 C   0  0  0  0  0  0  0  0  0  0  0  0
    1.0323    6.5955   -2.5784 C   0  0  0  0  0  0  0  0  0  0  0  0
    2.4950    3.8768   -2.3600 C   0  0  0  0  0  0  0  0  0  0  0  0
    1.0672    3.6094   -3.3044 S   0  0  0  0  0  0  0  0  0  0  0  0
    0.8788    2.0215   -2.5910 C   0  0  0  0  0  0  0  0  0  0  0  0
    1.8505    1.7317   -1.6435 C   0  0  0  0  0  0  0  0  0  0  0  0
    1.8937    0.6156   -0.8313 N   0  0  0  0  0  0  0  0  0  0  0  0
    0.7329   -0.0340   -0.3957 C   0  0  0  0  0  0  0  0  0  0  0  0
   -0.4200    0.6820   -0.0791 C   0  0  0  0  0  0  0  0  0  0  0  0
   -1.5764    0.0193    0.2842 C   0  0  0  0  0  0  0  0  0  0  0  0
   -1.6174   -1.3668    0.3621 C   0  0  0  0  0  0  0  0  0  0  0  0
   -2.8680   -2.0936    0.7498 C   0  0  0  0  0  0  0  0  0  0  0  0
   -0.4510   -2.0727    0.0893 C   0  0  0  0  0  0  0  0  0  0  0  0
    0.7079   -1.4232   -0.2810 C   0  0  0  0  0  0  0  0  0  0  0  0
    3.1545    0.1565   -0.4137 C   0  0  0  0  0  0  0  0  0  0  0  0
    3.3595   -0.2645    0.8959 C   0  0  0  0  0  0  0  0  0  0  0  0
    4.6181   -0.6588    1.3057 C   0  0  0  0  0  0  0  0  0  0  0  0
    5.6976   -0.6397    0.4322 C   0  0  0  0  0  0  0  0  0  0  0  0
    7.0755   -1.0016    0.8918 C   0  0  0  0  0  0  0  0  0  0  0  0
    5.4778   -0.2453   -0.8821 C   0  0  0  0  0  0  0  0  0  0  0  0
    4.2236    0.1426   -1.3076 C   0  0  0  0  0  0  0  0  0  0  0  0
    2.7763    2.8004   -1.5293 C   0  0  0  0  0  0  0  0  0  0  0  0
    4.1908    3.0441   -0.5693 S   0  0  0  0  0  0  0  0  0  0  0  0
   -0.2644    1.1975   -2.8982 C   0  0  0  0  0  0  0  0  0  0  0  0
   -1.5548    1.6894   -2.9065 C   0  0  0  0  0  0  0  0  0  0  0  0
   -1.7790    3.0103   -2.7933 F   0  0  0  0  0  0  0  0  0  0  0  0
   -2.6685    0.8449   -2.9055 C   0  0  0  0  0  0  0  0  0  0  0  0
   -3.8738    1.4368   -2.8286 F   0  0  0  0  0  0  0  0  0  0  0  0
   -2.5653   -0.5371   -2.9084 C   0  0  0  0  0  0  0  0  0  0  0  0
   -1.2484   -1.0653   -3.0779 C   0  0  0  0  0  0  0  0  0  0  0  0
   -1.0580   -2.3879   -3.1926 N   0  0  0  0  0  0  0  0  0  0  0  0
    0.1451   -2.8643   -3.3973 C   0  0  0  0  0  0  0  0  0  0  0  0
    0.2274   -4.3519   -3.5699 C   0  0  0  0  0  0  0  0  0  0  0  0
   -0.1130   -4.7298   -5.0143 C   0  0  0  0  0  0  0  0  0  0  0  0
    1.2575   -1.9891   -3.5260 C   0  0  0  0  0  0  0  0  0  0  0  0
    1.1035   -0.7001   -3.3468 N   0  0  0  0  0  0  0  0  0  0  0  0
   -0.1199   -0.2062   -3.0973 C   0  0  0  0  0  0  0  0  0  0  0  0
    2.6361   -2.4612   -3.8793 C   0  0  0  0  0  0  0  0  0  0  0  0
    3.4008   -2.9802   -2.6591 C   0  0  0  0  0  0  0  0  0  0  0  0
   -3.6990   -1.3908   -2.6512 C   0  0  0  0  0  0  0  0  0  0  0  0
   -5.0991   -0.7500   -1.8022 S   0  0  0  0  0  0  0  0  0  0  0  0
   -5.8044   -2.3339   -1.6937 C   0  0  0  0  0  0  0  0  0  0  0  0
   -6.9712   -2.6636   -1.0457 C   0  0  0  0  0  0  0  0  0  0  0  0
   -7.3511   -4.0083   -1.0266 C   0  0  0  0  0  0  0  0  0  0  0  0
   -8.4600   -4.5864   -0.3740 C   0  0  0  0  0  0  0  0  0  0  0  0
   -8.5332   -5.9487   -0.5160 C   0  0  0  0  0  0  0  0  0  0  0  0
   -7.2242   -6.5679   -1.5298 S   0  0  0  0  0  0  0  0  0  0  0  0
   -6.5517   -4.9757   -1.6998 C   0  0  0  0  0  0  0  0  0  0  0  0
   -5.3895   -4.6414   -2.3587 C   0  0  0  0  0  0  0  0  0  0  0  0
   -4.9932   -3.3039   -2.3465 C   0  0  0  0  0  0  0  0  0  0  0  0
   -3.8127   -2.7329   -2.8776 C   0  0  0  0  0  0  0  0  0  0  0  0
   -9.4421   -6.9128   -0.0149 C   0  0  0  0  0  0  0  0  0  0  0  0
  -10.3694   -6.8267    0.9805 C   0  0  0  0  0  0  0  0  0  0  0  0
  -10.6001   -5.7184    1.9417 C   0  0  0  0  0  0  0  0  0  0  0  0
  -10.2265   -4.5661    1.8777 O   0  0  0  0  0  0  0  0  0  0  0  0
  -11.3875   -6.3039    3.0419 C   0  0  0  0  0  0  0  0  0  0  0  0
  -11.7525   -5.6712    4.2285 C   0  0  0  0  0  0  0  0  0  0  0  0
  -12.4573   -6.4712    5.0943 C   0  0  0  0  0  0  0  0  0  0  0  0
  -12.7793   -7.8042    4.8022 C   0  0  0  0  0  0  0  0  0  0  0  0
  -12.4394   -8.4354    3.6298 C   0  0  0  0  0  0  0  0  0  0  0  0
  -11.7203   -7.6378    2.7344 C   0  0  0  0  0  0  0  0  0  0  0  0
  -11.1894   -7.9513    1.4128 C   0  0  0  0  0  0  0  0  0  0  0  0
  -11.4841   -9.0700    0.6812 C   0  0  0  0  0  0  0  0  0  0  0  0
  -11.0685   -9.3111   -0.6468 C   0  0  0  0  0  0  0  0  0  0  0  0
  -10.7978   -9.5733   -1.7315 N   0  0  0  0  0  0  0  0  0  0  0  0
  -12.3026  -10.1252    1.1376 C   0  0  0  0  0  0  0  0  0  0  0  0
  -12.9522  -11.0198    1.4469 N   0  0  0  0  0  0  0  0  0  0  0  0
  -13.4669   -8.0116    6.1280 C   0  0  0  0  0  0  0  0  0  0  0  0
  -12.6985   -8.7931    7.2229 C   0  0  0  0  0  0  0  0  0  0  0  0
  -11.2295   -8.5972    6.9412 C   0  0  0  0  0  0  0  0  0  0  0  0
  -10.9291   -7.3350    7.2166 C   0  0  0  0  0  0  0  0  0  0  0  0
  -12.1899   -6.6546    7.6894 C   0  0  0  0  0  0  0  0  0  0  0  0
  -12.8784   -7.8276    8.4053 C   0  0  0  0  0  0  0  0  0  0  0  0
  -13.1122   -6.5260    6.4515 C   0  0  0  0  0  0  0  0  0  0  0  0
    5.1235    6.6099   -1.1846 H   0  0  0  0  0  0  0  0  0  0  0  0
    8.2985    2.8134    2.6804 H   0  0  0  0  0  0  0  0  0  0  0  0
    9.1375    7.7983    2.3784 H   0  0  0  0  0  0  0  0  0  0  0  0
   10.6601    6.4884    5.1585 H   0  0  0  0  0  0  0  0  0  0  0  0
   12.7276    6.9382    3.8467 H   0  0  0  0  0  0  0  0  0  0  0  0
   12.3034    5.9981    1.4442 H   0  0  0  0  0  0  0  0  0  0  0  0
   11.8950    3.3806    1.6351 H   0  0  0  0  0  0  0  0  0  0  0  0
   12.0671    2.7073    4.1574 H   0  0  0  0  0  0  0  0  0  0  0  0
   12.8064    4.8738    5.5731 H   0  0  0  0  0  0  0  0  0  0  0  0
   13.9183    4.5999    4.2083 H   0  0  0  0  0  0  0  0  0  0  0  0
   10.2608    3.9461    5.3439 H   0  0  0  0  0  0  0  0  0  0  0  0
    3.5916    8.6776   -3.3611 H   0  0  0  0  0  0  0  0  0  0  0  0
    5.5828    9.8680   -4.1556 H   0  0  0  0  0  0  0  0  0  0  0  0
    8.7784    8.1681   -5.1330 H   0  0  0  0  0  0  0  0  0  0  0  0
    8.3932    9.4499   -3.9798 H   0  0  0  0  0  0  0  0  0  0  0  0
    7.7585    9.5307   -5.6183 H   0  0  0  0  0  0  0  0  0  0  0  0
    7.6811    6.1669   -4.4654 H   0  0  0  0  0  0  0  0  0  0  0  0
    5.6867    4.9667   -3.6963 H   0  0  0  0  0  0  0  0  0  0  0  0
    2.7373    6.8060   -5.4907 H   0  0  0  0  0  0  0  0  0  0  0  0
    0.5300    7.5571   -6.2665 H   0  0  0  0  0  0  0  0  0  0  0  0
   -2.1191    8.6361   -4.2205 H   0  0  0  0  0  0  0  0  0  0  0  0
   -1.7432    8.0943   -5.8618 H   0  0  0  0  0  0  0  0  0  0  0  0
   -2.4769    6.9819   -4.7003 H   0  0  0  0  0  0  0  0  0  0  0  0
   -1.0283    7.0710   -2.3256 H   0  0  0  0  0  0  0  0  0  0  0  0
    1.1842    6.3369   -1.5407 H   0  0  0  0  0  0  0  0  0  0  0  0
   -0.4049    1.7613   -0.1170 H   0  0  0  0  0  0  0  0  0  0  0  0
   -2.4625    0.5927    0.5161 H   0  0  0  0  0  0  0  0  0  0  0  0
   -3.7066   -1.4080    0.8352 H   0  0  0  0  0  0  0  0  0  0  0  0
   -3.1104   -2.8556    0.0099 H   0  0  0  0  0  0  0  0  0  0  0  0
   -2.7324   -2.5939    1.7084 H   0  0  0  0  0  0  0  0  0  0  0  0
   -0.4564   -3.1512    0.1564 H   0  0  0  0  0  0  0  0  0  0  0  0
    1.6009   -1.9891   -0.4992 H   0  0  0  0  0  0  0  0  0  0  0  0
    2.5328   -0.2641    1.5911 H   0  0  0  0  0  0  0  0  0  0  0  0
    4.7657   -0.9685    2.3303 H   0  0  0  0  0  0  0  0  0  0  0  0
    7.6699   -0.0942    0.9972 H   0  0  0  0  0  0  0  0  0  0  0  0
    7.5721   -1.6441    0.1668 H   0  0  0  0  0  0  0  0  0  0  0  0
    7.0480   -1.5081    1.8532 H   0  0  0  0  0  0  0  0  0  0  0  0
    6.3020   -0.2385   -1.5803 H   0  0  0  0  0  0  0  0  0  0  0  0
    4.0583    0.4416   -2.3323 H   0  0  0  0  0  0  0  0  0  0  0  0
    1.2193   -4.7215   -3.3168 H   0  0  0  0  0  0  0  0  0  0  0  0
   -0.5023   -4.8121   -2.9019 H   0  0  0  0  0  0  0  0  0  0  0  0
   -1.1126   -4.3843   -5.2654 H   0  0  0  0  0  0  0  0  0  0  0  0
   -0.0743   -5.8091   -5.1384 H   0  0  0  0  0  0  0  0  0  0  0  0
    0.5895   -4.2756   -5.7100 H   0  0  0  0  0  0  0  0  0  0  0  0
    3.1791   -1.6140   -4.2995 H   0  0  0  0  0  0  0  0  0  0  0  0
    2.5731   -3.2468   -4.6340 H   0  0  0  0  0  0  0  0  0  0  0  0
    4.3781   -3.3444   -2.9664 H   0  0  0  0  0  0  0  0  0  0  0  0
    3.5474   -2.1798   -1.9385 H   0  0  0  0  0  0  0  0  0  0  0  0
    2.8682   -3.7940   -2.1717 H   0  0  0  0  0  0  0  0  0  0  0  0
   -7.5711   -1.9199   -0.5463 H   0  0  0  0  0  0  0  0  0  0  0  0
   -9.1727   -4.0176    0.1932 H   0  0  0  0  0  0  0  0  0  0  0  0
   -4.7905   -5.3876   -2.8558 H   0  0  0  0  0  0  0  0  0  0  0  0
   -3.0545   -3.2967   -3.3859 H   0  0  0  0  0  0  0  0  0  0  0  0
   -9.3187   -7.8880   -0.4733 H   0  0  0  0  0  0  0  0  0  0  0  0
  -11.4815   -4.6437    4.4143 H   0  0  0  0  0  0  0  0  0  0  0  0
  -12.6927   -9.4611    3.4198 H   0  0  0  0  0  0  0  0  0  0  0  0
  -14.5182   -8.2880    6.0822 H   0  0  0  0  0  0  0  0  0  0  0  0
  -13.0281   -9.8195    7.3593 H   0  0  0  0  0  0  0  0  0  0  0  0
  -10.5920   -9.3576    6.5295 H   0  0  0  0  0  0  0  0  0  0  0  0
   -9.9906   -6.8302    7.0803 H   0  0  0  0  0  0  0  0  0  0  0  0
  -12.0567   -5.7337    8.2510 H   0  0  0  0  0  0  0  0  0  0  0  0
  -13.9211   -7.6335    8.6523 H   0  0  0  0  0  0  0  0  0  0  0  0
  -12.3426   -8.1493    9.2970 H   0  0  0  0  0  0  0  0  0  0  0  0
  -13.9326   -5.8301    6.6154 H   0  0  0  0  0  0  0  0  0  0  0  0
  1  2  2  0  0  0  0
  2  3  1  0  0  0  0
  3  4  2  0  0  0  0
  3  5  1  0  0  0  0
  5  6  2  0  0  0  0
  6  7  1  0  0  0  0
  7  8  2  0  0  0  0
  8  9  1  0  0  0  0
  9 10  2  0  0  0  0
 10 11  1  0  0  0  0
 11 12  2  0  0  0  0
 12 13  1  0  0  0  0
 13 14  3  0  0  0  0
 12 15  1  0  0  0  0
 15 16  3  0  0  0  0
  8 17  1  0  0  0  0
 17 18  1  0  0  0  0
 18 19  1  0  0  0  0
 19 20  2  0  0  0  0
 20 21  1  0  0  0  0
 21 22  1  0  0  0  0
 21 23  1  0  0  0  0
  1 24  1  0  0  0  0
 24 25  2  0  0  0  0
 25 26  1  0  0  0  0
 26 27  1  0  0  0  0
 27 28  2  0  0  0  0
 28 29  1  0  0  0  0
 29 30  2  0  0  0  0
 30 31  1  0  0  0  0
 30 32  1  0  0  0  0
 32 33  2  0  0  0  0
 26 34  1  0  0  0  0
 34 35  2  0  0  0  0
 35 36  1  0  0  0  0
 36 37  2  0  0  0  0
 37 38  1  0  0  0  0
 37 39  1  0  0  0  0
 39 40  2  0  0  0  0
 25 41  1  0  0  0  0
 41 42  1  0  0  0  0
 42 43  1  0  0  0  0
 43 44  2  0  0  0  0
 44 45  1  0  0  0  0
 45 46  1  0  0  0  0
 46 47  2  0  0  0  0
 47 48  1  0  0  0  0
 48 49  2  0  0  0  0
 49 50  1  0  0  0  0
 49 51  1  0  0  0  0
 51 52  2  0  0  0  0
 45 53  1  0  0  0  0
 53 54  2  0  0  0  0
 54 55  1  0  0  0  0
 55 56  2  0  0  0  0
 56 57  1  0  0  0  0
 56 58  1  0  0  0  0
 58 59  2  0  0  0  0
 44 60  1  0  0  0  0
 60 61  1  0  0  0  0
 43 62  1  0  0  0  0
 62 63  2  0  0  0  0
 63 64  1  0  0  0  0
 63 65  1  0  0  0  0
 65 66  1  0  0  0  0
 65 67  2  0  0  0  0
 67 68  1  0  0  0  0
 68 69  2  0  0  0  0
 69 70  1  0  0  0  0
 70 71  1  0  0  0  0
 71 72  1  0  0  0  0
 70 73  2  0  0  0  0
 73 74  1  0  0  0  0
 74 75  2  0  0  0  0
 73 76  1  0  0  0  0
 76 77  1  0  0  0  0
 67 78  1  0  0  0  0
 78 79  1  0  0  0  0
 79 80  1  0  0  0  0
 80 81  2  0  0  0  0
 81 82  1  0  0  0  0
 82 83  1  0  0  0  0
 83 84  2  0  0  0  0
 84 85  1  0  0  0  0
 85 86  1  0  0  0  0
 86 87  1  0  0  0  0
 87 88  2  0  0  0  0
 88 89  1  0  0  0  0
 84 90  1  0  0  0  0
 90 91  2  0  0  0  0
 91 92  1  0  0  0  0
 92 93  2  0  0  0  0
 92 94  1  0  0  0  0
 94 95  2  0  0  0  0
 95 96  1  0  0  0  0
 96 97  2  0  0  0  0
 97 98  1  0  0  0  0
 98 99  2  0  0  0  0
 99100  1  0  0  0  0
100101  2  0  0  0  0
101102  1  0  0  0  0
102103  3  0  0  0  0
101104  1  0  0  0  0
104105  3  0  0  0  0
 97106  1  0  0  0  0
106107  1  0  0  0  0
107108  1  0  0  0  0
108109  2  0  0  0  0
109110  1  0  0  0  0
110111  1  0  0  0  0
110112  1  0  0  0  0
 11  2  1  0  0  0  0
 23 17  1  0  0  0  0
 61 24  1  0  0  0  0
 75 62  1  0  0  0  0
 89 78  2  0  0  0  0
100 91  1  0  0  0  0
112106  1  0  0  0  0
 10  5  1  0  0  0  0
 22 18  1  0  0  0  0
 33 27  1  0  0  0  0
 40 34  1  0  0  0  0
 60 41  2  0  0  0  0
 75 68  1  0  0  0  0
 88 80  1  0  0  0  0
 99 94  1  0  0  0  0
111107  1  0  0  0  0
 23  7  1  0  0  0  0
 52 46  1  0  0  0  0
 59 53  1  0  0  0  0
 86 82  2  0  0  0  0
112 96  1  0  0  0  0
  1113  1  0  0  0  0
  6114  1  0  0  0  0
  9115  1  0  0  0  0
 17116  1  0  0  0  0
 18117  1  0  0  0  0
 19118  1  0  0  0  0
 20119  1  0  0  0  0
 21120  1  0  0  0  0
 22121  1  0  0  0  0
 22122  1  0  0  0  0
 23123  1  0  0  0  0
 28124  1  0  0  0  0
 29125  1  0  0  0  0
 31126  1  0  0  0  0
 31127  1  0  0  0  0
 31128  1  0  0  0  0
 32129  1  0  0  0  0
 33130  1  0  0  0  0
 35131  1  0  0  0  0
 36132  1  0  0  0  0
 38133  1  0  0  0  0
 38134  1  0  0  0  0
 38135  1  0  0  0  0
 39136  1  0  0  0  0
 40137  1  0  0  0  0
 47138  1  0  0  0  0
 48139  1  0  0  0  0
 50140  1  0  0  0  0
 50141  1  0  0  0  0
 50142  1  0  0  0  0
 51143  1  0  0  0  0
 52144  1  0  0  0  0
 54145  1  0  0  0  0
 55146  1  0  0  0  0
 57147  1  0  0  0  0
 57148  1  0  0  0  0
 57149  1  0  0  0  0
 58150  1  0  0  0  0
 59151  1  0  0  0  0
 71152  1  0  0  0  0
 71153  1  0  0  0  0
 72154  1  0  0  0  0
 72155  1  0  0  0  0
 72156  1  0  0  0  0
 76157  1  0  0  0  0
 76158  1  0  0  0  0
 77159  1  0  0  0  0
 77160  1  0  0  0  0
 77161  1  0  0  0  0
 81162  1  0  0  0  0
 83163  1  0  0  0  0
 87164  1  0  0  0  0
 89165  1  0  0  0  0
 90166  1  0  0  0  0
 95167  1  0  0  0  0
 98168  1  0  0  0  0
106169  1  0  0  0  0
107170  1  0  0  0  0
108171  1  0  0  0  0
109172  1  0  0  0  0
110173  1  0  0  0  0
111174  1  0  0  0  0
111175  1  0  0  0  0
112176  1  0  0  0  0
M  END
