
  xtb     02132215053D
 energy: -362.760420207257 gnorm: 0.000246531928 xtb: 6.4.1 (unknown)
232254  0     0  0            999 V2000
   -3.4874    7.7765    2.1221 C   0  0  0  0  0  0  0  0  0  0  0  0
   -4.6462    7.5720    2.8310 C   0  0  0  0  0  0  0  0  0  0  0  0
   -5.6246    6.5018    2.6098 C   0  0  0  0  0  0  0  0  0  0  0  0
   -5.7292    5.7785    1.6354 O   0  0  0  0  0  0  0  0  0  0  0  0
   -6.4702    6.4655    3.8172 C   0  0  0  0  0  0  0  0  0  0  0  0
   -7.5044    5.5749    4.0906 C   0  0  0  0  0  0  0  0  0  0  0  0
   -8.0949    5.7645    5.3172 C   0  0  0  0  0  0  0  0  0  0  0  0
   -7.6921    6.7717    6.2033 C   0  0  0  0  0  0  0  0  0  0  0  0
   -6.6815    7.6663    5.9389 C   0  0  0  0  0  0  0  0  0  0  0  0
   -6.0607    7.4847    4.7005 C   0  0  0  0  0  0  0  0  0  0  0  0
   -4.9672    8.2283    4.0764 C   0  0  0  0  0  0  0  0  0  0  0  0
   -4.3561    9.3421    4.6007 C   0  0  0  0  0  0  0  0  0  0  0  0
   -3.4368   10.1584    3.9148 C   0  0  0  0  0  0  0  0  0  0  0  0
   -2.7153   10.9002    3.4136 N   0  0  0  0  0  0  0  0  0  0  0  0
   -4.5735    9.8358    5.9006 C   0  0  0  0  0  0  0  0  0  0  0  0
   -4.6571   10.2684    6.9620 N   0  0  0  0  0  0  0  0  0  0  0  0
   -8.7010    6.3656    7.2486 C   0  0  0  0  0  0  0  0  0  0  0  0
   -8.1889    5.5600    8.4686 C   0  0  0  0  0  0  0  0  0  0  0  0
   -6.9540    4.8247    8.0105 C   0  0  0  0  0  0  0  0  0  0  0  0
   -7.3376    3.8723    7.1709 C   0  0  0  0  0  0  0  0  0  0  0  0
   -8.8392    3.9470    7.0459 C   0  0  0  0  0  0  0  0  0  0  0  0
   -9.2064    4.4079    8.4653 C   0  0  0  0  0  0  0  0  0  0  0  0
   -9.1514    5.2446    6.2597 C   0  0  0  0  0  0  0  0  0  0  0  0
   -2.9424    7.0600    1.0535 C   0  0  0  0  0  0  0  0  0  0  0  0
   -1.5867    7.1720    0.6547 C   0  0  0  0  0  0  0  0  0  0  0  0
   -0.6139    7.8792    1.3158 N   0  0  0  0  0  0  0  0  0  0  0  0
   -0.6140    8.0337    2.7171 C   0  0  0  0  0  0  0  0  0  0  0  0
   -0.2184    9.2423    3.2833 C   0  0  0  0  0  0  0  0  0  0  0  0
   -0.2632    9.4109    4.6533 C   0  0  0  0  0  0  0  0  0  0  0  0
   -0.7112    8.3947    5.4889 C   0  0  0  0  0  0  0  0  0  0  0  0
   -0.8303    8.6185    6.9643 C   0  0  0  0  0  0  0  0  0  0  0  0
   -1.0653    7.1777    4.9158 C   0  0  0  0  0  0  0  0  0  0  0  0
   -1.0057    6.9876    3.5500 C   0  0  0  0  0  0  0  0  0  0  0  0
    0.4917    8.3544    0.5888 C   0  0  0  0  0  0  0  0  0  0  0  0
    0.3128    8.9258   -0.6693 C   0  0  0  0  0  0  0  0  0  0  0  0
    1.4014    9.3747   -1.3872 C   0  0  0  0  0  0  0  0  0  0  0  0
    2.6898    9.2813   -0.8716 C   0  0  0  0  0  0  0  0  0  0  0  0
    3.8602    9.7744   -1.6656 C   0  0  0  0  0  0  0  0  0  0  0  0
    2.8553    8.7330    0.3935 C   0  0  0  0  0  0  0  0  0  0  0  0
    1.7752    8.2690    1.1185 C   0  0  0  0  0  0  0  0  0  0  0  0
   -1.3311    6.3931   -0.4868 C   0  0  0  0  0  0  0  0  0  0  0  0
    0.1122    5.9262   -1.3361 S   0  0  0  0  0  0  0  0  0  0  0  0
   -0.8068    4.8050   -2.3219 C   0  0  0  0  0  0  0  0  0  0  0  0
   -2.1613    4.7981   -1.9941 C   0  0  0  0  0  0  0  0  0  0  0  0
   -3.1667    3.9888   -2.5570 N   0  0  0  0  0  0  0  0  0  0  0  0
   -3.2592    2.6477   -2.1864 C   0  0  0  0  0  0  0  0  0  0  0  0
   -2.1785    1.9658   -1.6215 C   0  0  0  0  0  0  0  0  0  0  0  0
   -2.2603    0.6147   -1.3440 C   0  0  0  0  0  0  0  0  0  0  0  0
   -3.4224   -0.1044   -1.5825 C   0  0  0  0  0  0  0  0  0  0  0  0
   -3.4925   -1.5747   -1.3033 C   0  0  0  0  0  0  0  0  0  0  0  0
   -4.5294    0.5993   -2.0415 C   0  0  0  0  0  0  0  0  0  0  0  0
   -4.4592    1.9463   -2.3287 C   0  0  0  0  0  0  0  0  0  0  0  0
   -4.0379    4.5950   -3.4838 C   0  0  0  0  0  0  0  0  0  0  0  0
   -4.3223    5.9568   -3.4217 C   0  0  0  0  0  0  0  0  0  0  0  0
   -5.1502    6.5507   -4.3562 C   0  0  0  0  0  0  0  0  0  0  0  0
   -5.7146    5.8196   -5.3897 C   0  0  0  0  0  0  0  0  0  0  0  0
   -6.6306    6.4554   -6.3908 C   0  0  0  0  0  0  0  0  0  0  0  0
   -5.4016    4.4677   -5.4697 C   0  0  0  0  0  0  0  0  0  0  0  0
   -4.5758    3.8642   -4.5451 C   0  0  0  0  0  0  0  0  0  0  0  0
   -2.4404    5.6893   -0.9390 C   0  0  0  0  0  0  0  0  0  0  0  0
   -3.8411    5.9211    0.0504 S   0  0  0  0  0  0  0  0  0  0  0  0
   -0.0814    3.8518   -3.1164 C   0  0  0  0  0  0  0  0  0  0  0  0
   -0.6352    2.9636   -4.0331 C   0  0  0  0  0  0  0  0  0  0  0  0
   -1.7958    3.2237   -4.6439 F   0  0  0  0  0  0  0  0  0  0  0  0
   -0.0297    1.7388   -4.3218 C   0  0  0  0  0  0  0  0  0  0  0  0
   -0.7185    0.8799   -5.0930 F   0  0  0  0  0  0  0  0  0  0  0  0
    1.1983    1.3665   -3.7991 C   0  0  0  0  0  0  0  0  0  0  0  0
    1.9378    2.3954   -3.1461 C   0  0  0  0  0  0  0  0  0  0  0  0
    3.2148    2.2024   -2.7908 N   0  0  0  0  0  0  0  0  0  0  0  0
    3.8626    3.1417   -2.1444 C   0  0  0  0  0  0  0  0  0  0  0  0
    5.3036    2.8615   -1.8446 C   0  0  0  0  0  0  0  0  0  0  0  0
    6.1988    3.4473   -2.9394 C   0  0  0  0  0  0  0  0  0  0  0  0
    3.2191    4.3624   -1.8016 C   0  0  0  0  0  0  0  0  0  0  0  0
    1.9678    4.5542   -2.1432 N   0  0  0  0  0  0  0  0  0  0  0  0
    1.2939    3.6136   -2.8115 C   0  0  0  0  0  0  0  0  0  0  0  0
    3.8574    5.4538   -1.0010 C   0  0  0  0  0  0  0  0  0  0  0  0
    3.6086    5.2043    0.4890 C   0  0  0  0  0  0  0  0  0  0  0  0
    1.6138   -0.0113   -3.7483 C   0  0  0  0  0  0  0  0  0  0  0  0
    0.8115   -1.1172   -3.6211 C   0  0  0  0  0  0  0  0  0  0  0  0
    1.6685   -2.2037   -3.3216 C   0  0  0  0  0  0  0  0  0  0  0  0
    1.4238   -3.5430   -2.9609 C   0  0  0  0  0  0  0  0  0  0  0  0
    0.1096   -4.1178   -2.8513 C   0  0  0  0  0  0  0  0  0  0  0  0
   -1.0370   -3.8019   -3.5400 C   0  0  0  0  0  0  0  0  0  0  0  0
   -2.1504   -4.5311   -3.1027 C   0  0  0  0  0  0  0  0  0  0  0  0
   -1.8819   -5.3996   -2.0775 C   0  0  0  0  0  0  0  0  0  0  0  0
   -3.0934   -6.4752   -1.1126 Si  0  0  0  0  0  4  0  0  0  0  0  0
   -2.0972   -7.6256    0.0431 C   0  0  0  0  0  0  0  0  0  0  0  0
   -1.2898   -8.6782   -0.7086 C   0  0  0  0  0  0  0  0  0  0  0  0
   -4.1529   -7.4616   -2.3639 C   0  0  0  0  0  0  0  0  0  0  0  0
   -5.1427   -8.4121   -1.6991 C   0  0  0  0  0  0  0  0  0  0  0  0
   -4.2015   -5.3093   -0.0710 C   0  0  0  0  0  0  0  0  0  0  0  0
   -3.4313   -4.5757    1.0225 C   0  0  0  0  0  0  0  0  0  0  0  0
   -0.2057   -5.3456   -1.6662 S   0  0  0  0  0  0  0  0  0  0  0  0
    2.5758   -4.2500   -2.6275 C   0  0  0  0  0  0  0  0  0  0  0  0
    3.8933   -3.7104   -2.6370 C   0  0  0  0  0  0  0  0  0  0  0  0
    4.1364   -2.3585   -2.9808 C   0  0  0  0  0  0  0  0  0  0  0  0
    5.4249   -1.7251   -2.9511 C   0  0  0  0  0  0  0  0  0  0  0  0
    5.7736   -0.5077   -3.4912 C   0  0  0  0  0  0  0  0  0  0  0  0
    7.1118   -0.1661   -3.2592 C   0  0  0  0  0  0  0  0  0  0  0  0
    7.8146   -1.0915   -2.5339 C   0  0  0  0  0  0  0  0  0  0  0  0
    9.6025   -0.9901   -1.9321 Si  0  0  0  0  0  4  0  0  0  0  0  0
   10.6038   -0.0464   -3.2610 C   0  0  0  0  0  0  0  0  0  0  0  0
   10.6380   -0.7623   -4.6071 C   0  0  0  0  0  0  0  0  0  0  0  0
   10.3057   -2.7505   -1.6951 C   0  0  0  0  0  0  0  0  0  0  0  0
    9.7996   -3.4586   -0.4422 C   0  0  0  0  0  0  0  0  0  0  0  0
    9.5921   -0.0136   -0.2831 C   0  0  0  0  0  0  0  0  0  0  0  0
    9.0036    1.3876   -0.4148 C   0  0  0  0  0  0  0  0  0  0  0  0
    6.7933   -2.4299   -2.1388 S   0  0  0  0  0  0  0  0  0  0  0  0
    2.9782   -1.6532   -3.3113 C   0  0  0  0  0  0  0  0  0  0  0  0
    2.9185   -0.3295   -3.5803 O   0  0  0  0  0  0  0  0  0  0  0  0
    4.7171   -4.7776   -2.2262 C   0  0  0  0  0  0  0  0  0  0  0  0
    3.8900   -5.8664   -2.0061 C   0  0  0  0  0  0  0  0  0  0  0  0
    2.5990   -5.5392   -2.2456 O   0  0  0  0  0  0  0  0  0  0  0  0
    4.3014   -7.1343   -1.5318 C   0  0  0  0  0  0  0  0  0  0  0  0
    3.5929   -8.2945   -1.4264 C   0  0  0  0  0  0  0  0  0  0  0  0
    2.2670   -8.5927   -2.0319 C   0  0  0  0  0  0  0  0  0  0  0  0
    1.5506   -7.8623   -2.6786 O   0  0  0  0  0  0  0  0  0  0  0  0
    2.0113  -10.0185   -1.7414 C   0  0  0  0  0  0  0  0  0  0  0  0
    0.9027  -10.7605   -2.1430 C   0  0  0  0  0  0  0  0  0  0  0  0
    0.9100  -12.0620   -1.7042 C   0  0  0  0  0  0  0  0  0  0  0  0
    1.9537  -12.5942   -0.9346 C   0  0  0  0  0  0  0  0  0  0  0  0
    3.0656  -11.8820   -0.5557 C   0  0  0  0  0  0  0  0  0  0  0  0
    3.0736  -10.5503   -0.9850 C   0  0  0  0  0  0  0  0  0  0  0  0
    4.0724   -9.5057   -0.7819 C   0  0  0  0  0  0  0  0  0  0  0  0
    5.2345   -9.6508   -0.0678 C   0  0  0  0  0  0  0  0  0  0  0  0
    5.6455  -10.8462    0.5593 C   0  0  0  0  0  0  0  0  0  0  0  0
    6.0533  -11.7766    1.0949 N   0  0  0  0  0  0  0  0  0  0  0  0
    6.1990   -8.6483    0.1675 C   0  0  0  0  0  0  0  0  0  0  0  0
    7.0364   -7.9031    0.4205 N   0  0  0  0  0  0  0  0  0  0  0  0
    1.3005  -13.9500   -0.8411 C   0  0  0  0  0  0  0  0  0  0  0  0
    0.5898  -14.3192    0.4844 C   0  0  0  0  0  0  0  0  0  0  0  0
    0.1545  -13.0213    1.1183 C   0  0  0  0  0  0  0  0  0  0  0  0
   -0.8342  -12.5245    0.3871 C   0  0  0  0  0  0  0  0  0  0  0  0
   -1.0824  -13.4755   -0.7572 C   0  0  0  0  0  0  0  0  0  0  0  0
   -0.7555  -14.8124   -0.0725 C   0  0  0  0  0  0  0  0  0  0  0  0
    0.1396  -13.3591   -1.7018 C   0  0  0  0  0  0  0  0  0  0  0  0
   -2.8496    8.5707    2.4873 H   0  0  0  0  0  0  0  0  0  0  0  0
   -7.7840    4.8146    3.3780 H   0  0  0  0  0  0  0  0  0  0  0  0
   -6.3861    8.4395    6.6286 H   0  0  0  0  0  0  0  0  0  0  0  0
   -9.4310    7.1223    7.5289 H   0  0  0  0  0  0  0  0  0  0  0  0
   -8.0906    6.1393    9.3828 H   0  0  0  0  0  0  0  0  0  0  0  0
   -5.9543    5.1017    8.2900 H   0  0  0  0  0  0  0  0  0  0  0  0
   -6.7227    3.1945    6.6082 H   0  0  0  0  0  0  0  0  0  0  0  0
   -9.3339    3.0574    6.6645 H   0  0  0  0  0  0  0  0  0  0  0  0
  -10.2391    4.7407    8.5600 H   0  0  0  0  0  0  0  0  0  0  0  0
   -8.9919    3.6542    9.2217 H   0  0  0  0  0  0  0  0  0  0  0  0
  -10.1756    5.2709    5.8925 H   0  0  0  0  0  0  0  0  0  0  0  0
    0.0983   10.0523    2.6450 H   0  0  0  0  0  0  0  0  0  0  0  0
    0.0270   10.3599    5.0778 H   0  0  0  0  0  0  0  0  0  0  0  0
    0.0142    9.1937    7.3375 H   0  0  0  0  0  0  0  0  0  0  0  0
   -0.8812    7.6740    7.5005 H   0  0  0  0  0  0  0  0  0  0  0  0
   -1.7381    9.1831    7.1821 H   0  0  0  0  0  0  0  0  0  0  0  0
   -1.3900    6.3640    5.5485 H   0  0  0  0  0  0  0  0  0  0  0  0
   -1.2824    6.0355    3.1207 H   0  0  0  0  0  0  0  0  0  0  0  0
   -0.6830    9.0214   -1.0752 H   0  0  0  0  0  0  0  0  0  0  0  0
    1.2504    9.8124   -2.3630 H   0  0  0  0  0  0  0  0  0  0  0  0
    4.7981    9.5127   -1.1823 H   0  0  0  0  0  0  0  0  0  0  0  0
    3.8167   10.8584   -1.7681 H   0  0  0  0  0  0  0  0  0  0  0  0
    3.8493    9.3468   -2.6670 H   0  0  0  0  0  0  0  0  0  0  0  0
    3.8467    8.6617    0.8174 H   0  0  0  0  0  0  0  0  0  0  0  0
    1.9214    7.8335    2.0958 H   0  0  0  0  0  0  0  0  0  0  0  0
   -1.2624    2.4837   -1.3836 H   0  0  0  0  0  0  0  0  0  0  0  0
   -1.3936    0.1106   -0.9384 H   0  0  0  0  0  0  0  0  0  0  0  0
   -3.6783   -1.7481   -0.2431 H   0  0  0  0  0  0  0  0  0  0  0  0
   -4.2988   -2.0368   -1.8677 H   0  0  0  0  0  0  0  0  0  0  0  0
   -2.5573   -2.0669   -1.5639 H   0  0  0  0  0  0  0  0  0  0  0  0
   -5.4692    0.0832   -2.1773 H   0  0  0  0  0  0  0  0  0  0  0  0
   -5.3458    2.4671   -2.6540 H   0  0  0  0  0  0  0  0  0  0  0  0
   -3.9012    6.5725   -2.6440 H   0  0  0  0  0  0  0  0  0  0  0  0
   -5.3566    7.6085   -4.2738 H   0  0  0  0  0  0  0  0  0  0  0  0
   -6.5487    7.5392   -6.3593 H   0  0  0  0  0  0  0  0  0  0  0  0
   -6.3973    6.1135   -7.3976 H   0  0  0  0  0  0  0  0  0  0  0  0
   -7.6655    6.1852   -6.1782 H   0  0  0  0  0  0  0  0  0  0  0  0
   -5.8017    3.8765   -6.2812 H   0  0  0  0  0  0  0  0  0  0  0  0
   -4.3220    2.8236   -4.6654 H   0  0  0  0  0  0  0  0  0  0  0  0
    5.4356    1.7790   -1.8209 H   0  0  0  0  0  0  0  0  0  0  0  0
    5.5817    3.2770   -0.8759 H   0  0  0  0  0  0  0  0  0  0  0  0
    6.0612    4.5232   -3.0256 H   0  0  0  0  0  0  0  0  0  0  0  0
    7.2429    3.2493   -2.7099 H   0  0  0  0  0  0  0  0  0  0  0  0
    5.9570    2.9941   -3.8973 H   0  0  0  0  0  0  0  0  0  0  0  0
    3.3913    6.3999   -1.2783 H   0  0  0  0  0  0  0  0  0  0  0  0
    4.9276    5.5066   -1.1968 H   0  0  0  0  0  0  0  0  0  0  0  0
    4.0814    5.9826    1.0810 H   0  0  0  0  0  0  0  0  0  0  0  0
    4.0090    4.2402    0.7960 H   0  0  0  0  0  0  0  0  0  0  0  0
    2.5403    5.2177    0.6883 H   0  0  0  0  0  0  0  0  0  0  0  0
   -0.2565   -1.1267   -3.6732 H   0  0  0  0  0  0  0  0  0  0  0  0
   -1.0654   -3.0996   -4.3532 H   0  0  0  0  0  0  0  0  0  0  0  0
   -3.1331   -4.4201   -3.5254 H   0  0  0  0  0  0  0  0  0  0  0  0
   -1.4100   -7.0207    0.6363 H   0  0  0  0  0  0  0  0  0  0  0  0
   -2.7647   -8.1210    0.7505 H   0  0  0  0  0  0  0  0  0  0  0  0
   -1.9480   -9.3513   -1.2534 H   0  0  0  0  0  0  0  0  0  0  0  0
   -0.6194   -8.2031   -1.4195 H   0  0  0  0  0  0  0  0  0  0  0  0
   -0.6869   -9.2709   -0.0209 H   0  0  0  0  0  0  0  0  0  0  0  0
   -4.7035   -6.7701   -3.0025 H   0  0  0  0  0  0  0  0  0  0  0  0
   -3.4991   -8.0321   -3.0243 H   0  0  0  0  0  0  0  0  0  0  0  0
   -4.6230   -9.1342   -1.0743 H   0  0  0  0  0  0  0  0  0  0  0  0
   -5.7169   -8.9592   -2.4451 H   0  0  0  0  0  0  0  0  0  0  0  0
   -5.8398   -7.8620   -1.0722 H   0  0  0  0  0  0  0  0  0  0  0  0
   -5.0139   -5.8730    0.3880 H   0  0  0  0  0  0  0  0  0  0  0  0
   -4.6674   -4.5742   -0.7280 H   0  0  0  0  0  0  0  0  0  0  0  0
   -2.6021   -4.0172    0.5952 H   0  0  0  0  0  0  0  0  0  0  0  0
   -3.0285   -5.2804    1.7452 H   0  0  0  0  0  0  0  0  0  0  0  0
   -4.0787   -3.8790    1.5527 H   0  0  0  0  0  0  0  0  0  0  0  0
    5.0854    0.1114   -4.0348 H   0  0  0  0  0  0  0  0  0  0  0  0
    7.5607    0.7420   -3.6198 H   0  0  0  0  0  0  0  0  0  0  0  0
   10.1835    0.9494   -3.4028 H   0  0  0  0  0  0  0  0  0  0  0  0
   11.6260    0.1004   -2.9109 H   0  0  0  0  0  0  0  0  0  0  0  0
   11.1994   -0.1851   -5.3399 H   0  0  0  0  0  0  0  0  0  0  0  0
   11.1087   -1.7370   -4.5096 H   0  0  0  0  0  0  0  0  0  0  0  0
    9.6297   -0.9085   -4.9870 H   0  0  0  0  0  0  0  0  0  0  0  0
   11.3951   -2.7057   -1.6573 H   0  0  0  0  0  0  0  0  0  0  0  0
   10.0526   -3.3573   -2.5656 H   0  0  0  0  0  0  0  0  0  0  0  0
   10.2030   -4.4672   -0.3804 H   0  0  0  0  0  0  0  0  0  0  0  0
   10.0987   -2.9177    0.4519 H   0  0  0  0  0  0  0  0  0  0  0  0
    8.7149   -3.5290   -0.4517 H   0  0  0  0  0  0  0  0  0  0  0  0
   10.6068    0.0626    0.1088 H   0  0  0  0  0  0  0  0  0  0  0  0
    9.0137   -0.5662    0.4580 H   0  0  0  0  0  0  0  0  0  0  0  0
    9.5927    1.9875   -1.1042 H   0  0  0  0  0  0  0  0  0  0  0  0
    7.9839    1.3375   -0.7894 H   0  0  0  0  0  0  0  0  0  0  0  0
    8.9897    1.8938    0.5489 H   0  0  0  0  0  0  0  0  0  0  0  0
    5.7810   -4.7829   -2.1097 H   0  0  0  0  0  0  0  0  0  0  0  0
    5.3331   -7.1371   -1.2062 H   0  0  0  0  0  0  0  0  0  0  0  0
    0.1261  -10.3141   -2.7428 H   0  0  0  0  0  0  0  0  0  0  0  0
    3.8666  -12.3123    0.0213 H   0  0  0  0  0  0  0  0  0  0  0  0
    1.8683  -14.7826   -1.2517 H   0  0  0  0  0  0  0  0  0  0  0  0
    1.1485  -14.9998    1.1212 H   0  0  0  0  0  0  0  0  0  0  0  0
    0.6324  -12.5842    1.9755 H   0  0  0  0  0  0  0  0  0  0  0  0
   -1.3506  -11.5912    0.5116 H   0  0  0  0  0  0  0  0  0  0  0  0
   -2.0460  -13.3893   -1.2527 H   0  0  0  0  0  0  0  0  0  0  0  0
   -0.6583  -15.6447   -0.7683 H   0  0  0  0  0  0  0  0  0  0  0  0
   -1.4670  -15.0691    0.7109 H   0  0  0  0  0  0  0  0  0  0  0  0
   -0.0472  -13.8036   -2.6776 H   0  0  0  0  0  0  0  0  0  0  0  0
  1  2  2  0  0  0  0
  2  3  1  0  0  0  0
  3  4  2  0  0  0  0
  3  5  1  0  0  0  0
  5  6  2  0  0  0  0
  6  7  1  0  0  0  0
  7  8  2  0  0  0  0
  8  9  1  0  0  0  0
  9 10  2  0  0  0  0
 10 11  1  0  0  0  0
 11 12  2  0  0  0  0
 12 13  1  0  0  0  0
 13 14  3  0  0  0  0
 12 15  1  0  0  0  0
 15 16  3  0  0  0  0
  8 17  1  0  0  0  0
 17 18  1  0  0  0  0
 18 19  1  0  0  0  0
 19 20  2  0  0  0  0
 20 21  1  0  0  0  0
 21 22  1  0  0  0  0
 21 23  1  0  0  0  0
  1 24  1  0  0  0  0
 24 25  2  0  0  0  0
 25 26  1  0  0  0  0
 26 27  1  0  0  0  0
 27 28  2  0  0  0  0
 28 29  1  0  0  0  0
 29 30  2  0  0  0  0
 30 31  1  0  0  0  0
 30 32  1  0  0  0  0
 32 33  2  0  0  0  0
 26 34  1  0  0  0  0
 34 35  2  0  0  0  0
 35 36  1  0  0  0  0
 36 37  2  0  0  0  0
 37 38  1  0  0  0  0
 37 39  1  0  0  0  0
 39 40  2  0  0  0  0
 25 41  1  0  0  0  0
 41 42  1  0  0  0  0
 42 43  1  0  0  0  0
 43 44  2  0  0  0  0
 44 45  1  0  0  0  0
 45 46  1  0  0  0  0
 46 47  2  0  0  0  0
 47 48  1  0  0  0  0
 48 49  2  0  0  0  0
 49 50  1  0  0  0  0
 49 51  1  0  0  0  0
 51 52  2  0  0  0  0
 45 53  1  0  0  0  0
 53 54  2  0  0  0  0
 54 55  1  0  0  0  0
 55 56  2  0  0  0  0
 56 57  1  0  0  0  0
 56 58  1  0  0  0  0
 58 59  2  0  0  0  0
 44 60  1  0  0  0  0
 60 61  1  0  0  0  0
 43 62  1  0  0  0  0
 62 63  2  0  0  0  0
 63 64  1  0  0  0  0
 63 65  1  0  0  0  0
 65 66  1  0  0  0  0
 65 67  2  0  0  0  0
 67 68  1  0  0  0  0
 68 69  2  0  0  0  0
 69 70  1  0  0  0  0
 70 71  1  0  0  0  0
 71 72  1  0  0  0  0
 70 73  2  0  0  0  0
 73 74  1  0  0  0  0
 74 75  2  0  0  0  0
 73 76  1  0  0  0  0
 76 77  1  0  0  0  0
 67 78  1  0  0  0  0
 78 79  2  0  0  0  0
 79 80  1  0  0  0  0
 80 81  2  0  0  0  0
 81 82  1  0  0  0  0
 82 83  2  0  0  0  0
 83 84  1  0  0  0  0
 84 85  2  0  0  0  0
 85 86  1  0  0  0  0
 86 87  1  0  0  0  0
 87 88  1  0  0  0  0
 86 89  1  0  0  0  0
 89 90  1  0  0  0  0
 86 91  1  0  0  0  0
 91 92  1  0  0  0  0
 85 93  1  0  0  0  0
 81 94  1  0  0  0  0
 94 95  2  0  0  0  0
 95 96  1  0  0  0  0
 96 97  1  0  0  0  0
 97 98  2  0  0  0  0
 98 99  1  0  0  0  0
 99100  2  0  0  0  0
100101  1  0  0  0  0
101102  1  0  0  0  0
102103  1  0  0  0  0
101104  1  0  0  0  0
104105  1  0  0  0  0
101106  1  0  0  0  0
106107  1  0  0  0  0
100108  1  0  0  0  0
 96109  2  0  0  0  0
109110  1  0  0  0  0
 95111  1  0  0  0  0
111112  2  0  0  0  0
112113  1  0  0  0  0
112114  1  0  0  0  0
114115  2  0  0  0  0
115116  1  0  0  0  0
116117  2  0  0  0  0
116118  1  0  0  0  0
118119  2  0  0  0  0
119120  1  0  0  0  0
120121  2  0  0  0  0
121122  1  0  0  0  0
122123  2  0  0  0  0
123124  1  0  0  0  0
124125  2  0  0  0  0
125126  1  0  0  0  0
126127  3  0  0  0  0
125128  1  0  0  0  0
128129  3  0  0  0  0
121130  1  0  0  0  0
130131  1  0  0  0  0
131132  1  0  0  0  0
132133  2  0  0  0  0
133134  1  0  0  0  0
134135  1  0  0  0  0
134136  1  0  0  0  0
 11  2  1  0  0  0  0
 23 17  1  0  0  0  0
 61 24  1  0  0  0  0
 75 62  1  0  0  0  0
110 78  1  0  0  0  0
124115  1  0  0  0  0
136130  1  0  0  0  0
 10  5  1  0  0  0  0
 22 18  1  0  0  0  0
 33 27  1  0  0  0  0
 40 34  1  0  0  0  0
 60 41  2  0  0  0  0
 75 68  1  0  0  0  0
109 80  1  0  0  0  0
123118  1  0  0  0  0
135131  1  0  0  0  0
 23  7  1  0  0  0  0
 52 46  1  0  0  0  0
 59 53  1  0  0  0  0
 93 82  1  0  0  0  0
113 94  1  0  0  0  0
136120  1  0  0  0  0
108 97  1  0  0  0  0
  1137  1  0  0  0  0
  6138  1  0  0  0  0
  9139  1  0  0  0  0
 17140  1  0  0  0  0
 18141  1  0  0  0  0
 19142  1  0  0  0  0
 20143  1  0  0  0  0
 21144  1  0  0  0  0
 22145  1  0  0  0  0
 22146  1  0  0  0  0
 23147  1  0  0  0  0
 28148  1  0  0  0  0
 29149  1  0  0  0  0
 31150  1  0  0  0  0
 31151  1  0  0  0  0
 31152  1  0  0  0  0
 32153  1  0  0  0  0
 33154  1  0  0  0  0
 35155  1  0  0  0  0
 36156  1  0  0  0  0
 38157  1  0  0  0  0
 38158  1  0  0  0  0
 38159  1  0  0  0  0
 39160  1  0  0  0  0
 40161  1  0  0  0  0
 47162  1  0  0  0  0
 48163  1  0  0  0  0
 50164  1  0  0  0  0
 50165  1  0  0  0  0
 50166  1  0  0  0  0
 51167  1  0  0  0  0
 52168  1  0  0  0  0
 54169  1  0  0  0  0
 55170  1  0  0  0  0
 57171  1  0  0  0  0
 57172  1  0  0  0  0
 57173  1  0  0  0  0
 58174  1  0  0  0  0
 59175  1  0  0  0  0
 71176  1  0  0  0  0
 71177  1  0  0  0  0
 72178  1  0  0  0  0
 72179  1  0  0  0  0
 72180  1  0  0  0  0
 76181  1  0  0  0  0
 76182  1  0  0  0  0
 77183  1  0  0  0  0
 77184  1  0  0  0  0
 77185  1  0  0  0  0
 79186  1  0  0  0  0
 83187  1  0  0  0  0
 84188  1  0  0  0  0
 87189  1  0  0  0  0
 87190  1  0  0  0  0
 88191  1  0  0  0  0
 88192  1  0  0  0  0
 88193  1  0  0  0  0
 89194  1  0  0  0  0
 89195  1  0  0  0  0
 90196  1  0  0  0  0
 90197  1  0  0  0  0
 90198  1  0  0  0  0
 91199  1  0  0  0  0
 91200  1  0  0  0  0
 92201  1  0  0  0  0
 92202  1  0  0  0  0
 92203  1  0  0  0  0
 98204  1  0  0  0  0
 99205  1  0  0  0  0
102206  1  0  0  0  0
102207  1  0  0  0  0
103208  1  0  0  0  0
103209  1  0  0  0  0
103210  1  0  0  0  0
104211  1  0  0  0  0
104212  1  0  0  0  0
105213  1  0  0  0  0
105214  1  0  0  0  0
105215  1  0  0  0  0
106216  1  0  0  0  0
106217  1  0  0  0  0
107218  1  0  0  0  0
107219  1  0  0  0  0
107220  1  0  0  0  0
111221  1  0  0  0  0
114222  1  0  0  0  0
119223  1  0  0  0  0
122224  1  0  0  0  0
130225  1  0  0  0  0
131226  1  0  0  0  0
132227  1  0  0  0  0
133228  1  0  0  0  0
134229  1  0  0  0  0
135230  1  0  0  0  0
135231  1  0  0  0  0
136232  1  0  0  0  0
M  END
