238

C         -6.67460        6.39190        4.25590
C         -7.95390        6.05350        4.60140
C         -8.55310        4.69870        4.63580
O         -8.10920        3.65740        4.19560
C         -9.81470        4.83740        5.38690
C        -10.69340        3.81060        5.72700
C        -11.79020        4.22750        6.44120
C        -11.99450        5.56660        6.80060
C        -11.13490        6.58810        6.47370
C        -10.01560        6.18610        5.73740
C         -8.90320        6.96980        5.20880
C         -8.82360        8.33850        5.21270
C         -7.80530        9.10190        4.60290
N         -7.03850        9.80480        4.11570
C         -9.78650        9.19080        5.79160
N        -10.52510        9.94520        6.24350
C        -13.29200        5.26180        7.50780
C        -14.58920        5.62730        6.75590
C        -15.65090        4.79820        7.44180
C        -15.45870        3.53120        7.09740
C        -14.26340        3.48270        6.17340
C        -14.42980        4.82840        5.45580
C        -13.06560        3.76960        7.10370
C         -5.68610        5.62010        3.60810
C         -5.78240        4.48210        2.84360
C         -4.54770        4.01030        2.36440
C         -4.31330        2.86060        1.57270
C         -5.36920        1.92580        1.25860
C         -6.39700        1.50620        2.06490
C         -7.19240        0.51780        1.46600
C         -6.80230        0.17010        0.20210
Si        -7.53750       -1.13190       -0.94990
C         -8.54710       -0.23980       -2.31200
C         -7.70600        0.59710       -3.26840
C         -8.76410       -2.19790        0.06050
C         -8.11200       -3.08420        1.11540
C         -6.11940       -2.18410       -1.69860
C         -4.96040       -2.46530       -0.74420
S         -5.41270        1.09150       -0.26860
C         -2.99980        2.64900        1.17710
C         -1.92250        3.49410        1.54490
C         -2.15600        4.63700        2.33840
C         -1.07180        5.52540        2.70390
C         -0.06210        5.99760        1.90870
C          0.82400        6.84630        2.59250
C          0.51680        7.03020        3.91130
Si         1.43140        8.03730        5.21690
C          0.18010        9.06330        6.23780
C         -0.69690        8.23250        7.16920
C          2.44230        6.85020        6.33850
C          1.86730        5.43930        6.42730
C          2.63290        9.19840        4.28670
C          3.44550       10.08280        5.22390
S         -0.91130        6.14080        4.31860
C         -3.46720        4.85320        2.74100
S         -4.02030        6.18710        3.70850
C         -0.68370        2.99630        1.08720
C         -0.78420        1.83150        0.37490
S         -2.44170        1.28150        0.25220
C          0.29130        1.05020       -0.12440
C          0.26770       -0.04570       -0.97790
N         -0.80180       -0.48260       -1.73530
C         -0.80930       -1.85920       -2.05140
C         -0.74350       -2.28760       -3.37350
C         -0.59590       -3.62900       -3.66090
C         -0.51300       -4.55790       -2.63010
S         -0.21130       -6.27400       -2.92610
C          0.85070       -6.20800       -4.39960
C         -0.65870       -4.13860       -1.31100
C         -0.80250       -2.79840       -1.02260
C         -1.65020        0.38760       -2.42290
C         -2.91570       -0.06030       -2.80730
C         -3.79390        0.79270       -3.43200
C         -3.43920        2.11540       -3.68760
S         -4.67080        3.12580       -4.44770
C         -3.96730        4.79790       -4.36640
C         -2.16710        2.55370       -3.34860
C         -1.28020        1.69470       -2.72960
C          1.53890       -0.67210       -1.02230
S          2.14180       -2.07680       -1.82140
C          3.73350       -1.80460       -1.14180
C          3.80380       -0.64160       -0.39090
N          4.96110       -0.08720        0.13080
C          4.89310        0.66450        1.31170
C          5.67550        1.80600        1.46030
C          5.59580        2.57280        2.60570
C          4.72430        2.21280        3.62580
S          4.52070        3.11660        5.12710
C          5.51950        4.61140        4.87910
C          3.95300        1.06090        3.48970
C          4.03790        0.29290        2.35020
C          6.19930       -0.34510       -0.47470
C          7.32540       -0.61170        0.30500
C          8.49150       -1.04150       -0.28680
C          8.56360       -1.20870       -1.66800
S         10.05630       -1.89600       -2.31260
C          9.57160       -2.46660       -3.96670
C          7.48170       -0.83950       -2.45510
C          6.31260       -0.40730       -1.86100
C          2.52860       -0.02580       -0.30180
S          1.91160        1.38380        0.48940
C          4.78680       -2.74580       -1.44730
C          5.66750       -3.22260       -0.46110
C          5.62670       -2.99760        0.94470
C          6.62990       -3.59630        1.62260
C          6.88990       -3.57830        3.08780
C          6.64790       -4.95310        3.71310
S          7.68540       -4.50110        0.56510
C          6.74380       -4.05730       -0.81960
C          6.94620       -4.53960       -2.11520
C          6.05380       -4.06970       -3.10290
C          4.99570       -3.21130       -2.74440
S          4.04820       -2.76650       -4.13770
C          5.08700       -3.68940       -5.18830
C          4.78650       -3.77600       -6.64380
C          3.48580       -4.54340       -6.89140
C          6.08620       -4.29920       -4.50830
C          8.00250       -5.47310       -2.37650
C          7.99280       -6.53560       -3.22050
C          9.26760       -7.18370       -3.63070
O         10.35990       -7.01380       -3.13880
C          8.92390       -8.01550       -4.80180
C          9.80030       -8.74530       -5.60140
C          9.19210       -9.41050       -6.63870
C          7.80990       -9.35910       -6.86730
C          6.93160       -8.65090       -6.08290
C          7.53100       -7.96420       -5.02310
C          6.92030       -7.15720       -3.97160
C          5.58590       -7.13390       -3.65610
C          5.06200       -6.62120       -2.45050
N          4.57150       -6.30010       -1.46360
C          4.56130       -7.65750       -4.46510
N          3.66470       -7.98730       -5.10420
C          7.89650      -10.25160       -8.07970
C          7.80180       -9.58660       -9.47520
C          8.29070       -8.16930       -9.30830
C          9.59850       -8.21490       -9.09180
C         10.01770       -9.66400       -9.10920
C          9.03030      -10.21910      -10.14830
C          9.43590      -10.30780       -7.82600
H         -6.33330        7.37810        4.54940
H        -10.49220        2.79120        5.43670
H        -11.30060        7.61120        6.76690
H        -13.32680        5.51550        8.56560
H        -14.78000        6.69340        6.66930
H        -16.37390        5.19790        8.12840
H        -15.98890        2.66140        7.43880
H        -14.15810        2.59480        5.55560
H        -15.32810        4.85890        4.84140
H        -13.56940        5.12190        4.85730
H        -12.95200        3.02760        7.89200
H         -6.72150        4.02330        2.60560
H         -6.55330        1.86250        3.06680
H         -8.03490        0.06700        1.95850
H         -9.28200        0.40820       -1.83180
H         -9.11440       -0.97130       -2.88860
H         -7.08500        1.30360       -2.72320
H         -8.33830        1.15960       -3.95270
H         -7.05790       -0.04150       -3.86320
H         -9.33410       -2.82880       -0.62250
H         -9.49060       -1.54460        0.54510
H         -7.50410       -2.49170        1.79470
H         -7.47350       -3.82790        0.64610
H         -8.86590       -3.60900        1.70030
H         -5.72330       -1.67760       -2.57940
H         -6.52560       -3.13480       -2.04890
H         -4.20790       -3.09010       -1.22510
H         -4.48370       -1.53830       -0.43470
H         -5.30560       -2.98040        0.14790
H          0.01400        5.77330        0.85910
H          1.66940        7.31770        2.12380
H         -0.46330        9.63020        5.56270
H          0.72290        9.79770        6.83520
H         -1.38480        8.87160        7.72000
H         -1.28320        7.51260        6.60370
H         -0.08920        7.68850        7.88800
H          2.50850        7.26900        7.34410
H          3.46620        6.78650        5.96590
H          2.46740        4.81670        7.08850
H          0.84860        5.46050        6.80560
H          1.85240        4.96970        5.44710
H          3.32030        8.60600        3.68190
H          2.07880        9.83210        3.59440
H          4.01220        9.47790        5.92760
H          2.79230       10.74030        5.79110
H          4.14600       10.70210        4.66600
H          0.26240        3.46230        1.29590
H         -0.78000       -1.56080       -4.17160
H         -0.52630       -3.94440       -4.68980
H          1.37500       -7.15760       -4.44530
H          1.56420       -5.39860       -4.27840
H          0.25430       -6.07550       -5.29760
H         -0.62920       -4.87070       -0.51940
H         -0.88150       -2.46250        0.00070
H         -3.20530       -1.07610       -2.59230
H         -4.77730        0.45390       -3.71480
H         -3.10140        4.87480       -5.01780
H         -4.75000        5.46280       -4.71810
H         -3.71190        5.03840       -3.33860
H         -1.84770        3.56120       -3.56200
H         -0.29240        2.05040       -2.47730
H          6.34680        2.09550        0.66530
H          6.21220        3.45360        2.68420
H          6.56930        4.35100        4.77910
H          5.37480        5.20750        5.77460
H          5.16000        5.15460        4.01010
H          3.28700        0.77730        4.28990
H          3.43560       -0.59930        2.26100
H          7.26490       -0.52080        1.37910
H          9.35120       -1.28840        0.31660
H          8.63370       -3.00970       -3.90180
H          9.49230       -1.62620       -4.65090
H         10.36500       -3.13250       -4.29210
H          7.53230       -0.89430       -3.53100
H          5.46930       -0.13750       -2.47970
H          4.85830       -2.42240        1.42700
H          6.23440       -2.83790        3.55170
H          7.92630       -3.28080        3.26830
H          6.83160       -4.91660        4.78370
H          5.62100       -5.26880        3.54500
H          7.31300       -5.69040        3.26950
H          5.61620       -4.27920       -7.14530
H          4.69180       -2.76940       -7.05940
H          3.28940       -4.61360       -7.95800
H          2.65300       -4.02850       -6.41760
H          3.54870       -5.54970       -6.48210
H          6.84870       -4.87650       -5.00170
H          8.93030       -5.30830       -1.83540
H         10.85780       -8.76430       -5.38910
H          5.87030       -8.61660       -6.26740
H          7.33650      -11.18290       -8.02510
H          6.84150       -9.70830       -9.96910
H          7.64590       -7.30980       -9.30830
H         10.26540       -7.40110       -8.87410
H         11.07520       -9.85540       -9.27090
H          9.20930       -9.82980      -11.14940
H          8.99710      -11.30720      -10.17700
H          9.88200      -11.27640       -7.60940
