216

C          8.25520       -2.01710        0.28270
C          9.18720       -1.41820       -0.54050
C          9.05390       -0.05270       -1.06880
O          8.12690        0.71990       -0.90250
C         10.33920        0.24820       -1.73440
C         10.69390        1.42910       -2.37870
C         11.95920        1.41460       -2.91700
C         12.81350        0.31120       -2.81150
C         12.47600       -0.85980       -2.17340
C         11.19060       -0.86750       -1.62790
C         10.47800       -1.92320       -0.90920
C         10.89910       -3.22380       -0.76370
C         10.11740       -4.24280       -0.18590
N          9.52530       -5.12880        0.24420
C         12.12090       -3.72370       -1.24690
N         13.09410       -4.19700       -1.63470
C         13.92670        0.99860       -3.56450
C         15.09300        1.55420       -2.72080
C         15.75420        2.56050       -3.63480
C         14.94310        3.60550       -3.73840
C         13.72020        3.32280       -2.89600
C         14.36070        2.50620       -1.76630
C         12.97120        2.22890       -3.68580
C          6.89450       -1.71040        0.32680
C          6.04010       -1.13620       -0.63960
N          6.32020       -0.92340       -1.95660
C          7.31920       -1.61320       -2.65660
C          7.54710       -2.97340       -2.45100
C          8.56200       -3.61560       -3.12780
C          9.37890       -2.93030       -4.02470
C         10.51210       -3.63240       -4.70400
C          9.11610       -1.58730       -4.25740
C          8.09810       -0.93250       -3.58960
C          5.53910        0.00740       -2.68010
C          4.94730       -0.37110       -3.87940
C          4.14810        0.52470       -4.56290
C          3.92880        1.80660       -4.07350
C          3.01300        2.75490       -4.78240
C          4.55800        2.18410       -2.89240
C          5.35730        1.29910       -2.19710
C          4.75770       -0.91060       -0.08820
S          3.28850       -0.24050       -0.71850
C          2.48840       -0.51960        0.81310
C          3.28660       -1.19430        1.72900
N          2.83120       -1.71390        2.92700
C          3.68680       -1.74490        4.03690
C          3.65530       -2.81840        4.92270
C          4.50710       -2.84450        6.00810
C          5.41380       -1.81550        6.23620
C          6.35840       -1.87000        7.39750
C          5.43640       -0.74780        5.34770
C          4.58290       -0.70380        4.26350
C          1.51140       -2.18380        3.01840
C          0.91010       -2.82320        1.93650
C         -0.42860       -3.16150        1.97930
C         -1.20250       -2.88410        3.09870
C         -2.67340       -3.16830        3.11390
C         -0.57850       -2.31190        4.20120
C          0.75830       -1.97010        4.17080
C          4.59080       -1.37360        1.21130
S          6.02660       -2.10720        1.82120
C          1.14590       -0.08640        0.99890
Se        -0.21320       -0.36420       -0.27880
C         -1.43510        0.36010        0.96110
C         -0.78510        0.74990        2.12660
C         -1.20120        1.36520        3.33960
C         -0.18100        1.60000        4.19760
C         -0.25130        2.20410        5.55610
C          0.13990        1.19210        6.63430
S          1.37420        1.07820        3.57350
C          0.61400        0.49830        2.12200
C         -2.80750        0.42070        0.65350
C         -3.37790        0.01460       -0.54660
N         -2.59330       -0.48540       -1.60670
C         -2.14720        0.43520       -2.58070
C         -1.11300        0.05990       -3.43650
C         -0.64350        0.94010       -4.39110
C         -1.17770        2.21710       -4.51170
C         -0.69220        3.17500       -5.55750
C         -2.18440        2.59440       -3.63140
C         -2.66710        1.72150       -2.67570
C         -2.96540       -1.79550       -1.99900
C         -3.03950       -2.77060       -1.00900
C         -3.41810       -4.05870       -1.32700
C         -3.73160       -4.40830       -2.63530
C         -4.16920       -5.80000       -2.97470
C         -3.65700       -3.42630       -3.61500
C         -3.28490       -2.13110       -3.30830
C         -4.77370        0.15180       -0.53560
S         -6.01950       -0.19580       -1.67280
C         -7.23510        0.50860       -0.58850
C         -6.67920        0.88230        0.65620
N         -7.35440        1.27860        1.77460
C         -6.65910        2.01870        2.75920
C         -6.69530        1.60850        4.08690
C         -5.98050        2.30590        5.04170
C         -5.22310        3.41940        4.69800
C         -4.44060        4.16890        5.73270
C         -5.22360        3.83970        3.37250
C         -5.93320        3.15240        2.40790
C         -8.70200        0.98360        2.01810
C         -9.25020       -0.25550        1.68960
C        -10.59010       -0.49950        1.90570
C        -11.42320        0.47360        2.45300
C        -12.88700        0.21260        2.62020
C        -10.85870        1.68720        2.82180
C         -9.51720        1.94450        2.61290
C         -5.28110        0.69380        0.64250
S         -4.01150        0.98760        1.79040
C         -8.53730        0.59700       -1.08000
C         -9.49420        1.49720       -0.65670
C         -9.17660        2.80950       -0.07550
O         -8.07260        3.27180        0.15240
C        -10.46840        3.51740        0.04600
C        -10.67870        4.80190        0.53690
C        -11.99740        5.19190        0.53640
C        -13.02850        4.37320        0.06210
C        -12.83240        3.10540       -0.43410
C        -11.50130        2.68410       -0.42360
C        -10.91370        1.41050       -0.83620
C        -11.60880        0.27190       -1.17010
C        -13.01090        0.18030       -1.21080
N        -14.15140        0.03830       -1.23920
C        -10.99860       -0.97160       -1.42320
N        -10.56800       -2.02070       -1.60940
C        -14.09230        5.40090        0.36250
C        -14.94950        5.15300        1.62140
C        -15.54080        6.50900        1.93150
C        -14.56290        7.28050        2.38900
C        -13.29410        6.45890        2.39460
C        -13.87610        5.07610        2.71460
C        -12.94180        6.31170        0.89910
H          8.59330       -2.76150        0.99360
H         10.00570        2.25810       -2.43810
H         13.14560       -1.70010       -2.09370
H         14.25910        0.50550       -4.47630
H         15.73620        0.79800       -2.27900
H         16.68700        2.39050       -4.14000
H         15.06300        4.48250       -4.34740
H         13.11240        4.17830       -2.61320
H         15.04980        3.10030       -1.16800
H         13.64250        2.01360       -1.11360
H         12.66660        2.55460       -4.67910
H          6.93060       -3.52450       -1.75680
H          8.73160       -4.66780       -2.95110
H         11.30010       -3.85870       -3.98510
H         10.17800       -4.57550       -5.13240
H         10.93600       -3.01580       -5.49240
H          9.72570       -1.03690       -4.95940
H          7.90970        0.11460       -3.77350
H          5.10650       -1.36900       -4.26190
H          3.67990        0.21790       -5.48700
H          2.91360        2.49170       -5.83260
H          2.02470        2.71440       -4.32360
H          3.37730        3.77710       -4.70720
H          4.41690        3.18490       -2.51120
H          5.86170        1.59380       -1.29020
H          2.96390       -3.63020        4.75100
H          4.47430       -3.68490        6.68640
H          7.27000       -2.39500        7.10970
H          5.91470       -2.40320        8.23520
H          6.63510       -0.86920        7.72110
H          6.12780        0.06640        5.50990
H          4.59580        0.14360        3.59380
H          1.49200       -3.04560        1.05310
H         -0.87390       -3.64640        1.12210
H         -2.99080       -3.52440        4.09170
H         -3.22930       -2.25450        2.89570
H         -2.93490       -3.91270        2.36560
H         -1.15530       -2.11180        5.09290
H          1.22180       -1.50970        5.03030
H         -2.22090        1.62840        3.55720
H          0.42560        3.06110        5.61050
H         -1.26990        2.55750        5.72940
H          0.07160        1.64570        7.61980
H          1.16160        0.85210        6.47890
H         -0.52250        0.33010        6.60000
H         -0.69180       -0.93200       -3.34850
H          0.15390        0.62750       -5.04990
H         -0.20590        4.03320       -5.09390
H          0.01660        2.69510       -6.22710
H         -1.52890        3.54860       -6.14580
H         -2.60710        3.58630       -3.70210
H         -3.45760        2.03940       -2.01240
H         -2.79150       -2.50210        0.00850
H         -3.47130       -4.80720       -0.54890
H         -5.25520       -5.87390       -2.90870
H         -3.74010       -6.52220       -2.28390
H         -3.87640       -6.06280       -3.98850
H         -3.90610       -3.67500       -4.63640
H         -3.25080       -1.37930       -4.08240
H         -7.27390        0.73830        4.36110
H         -6.00350        1.97250        6.06920
H         -3.49380        4.51520        5.32330
H         -4.24530        3.54440        6.60120
H         -5.00030        5.04390        6.06420
H         -4.65810        4.71650        3.09240
H         -5.95110        3.48820        1.38290
H         -8.62630       -1.02460        1.25940
H        -11.00160       -1.46130        1.63600
H        -13.35010        0.97190        3.24520
H        -13.05510       -0.76550        3.06670
H        -13.38280        0.22020        1.64880
H        -11.47830        2.45140        3.26860
H         -9.09500        2.89800        2.89260
H         -8.78000       -0.07220       -1.89700
H         -9.85490        5.40640        0.88370
H        -13.63320        2.48990       -0.80930
H        -14.67510        5.74720       -0.48900
H        -15.64470        4.32170        1.54210
H        -16.56320        6.77630        1.73870
H        -14.60530        8.32080        2.65420
H        -12.48180        6.81810        3.02130
H        -13.17060        4.25810        2.58070
H        -14.30660        5.03040        3.71400
H        -12.76130        7.26660        0.40840
