
  xtb     02122217133D
 energy: -353.806342990887 gnorm: 0.000729593954 xtb: 6.4.1 (unknown)
213235  0     0  0            999 V2000
   -0.3703    7.6035    3.6887 C   0  0  0  0  0  0  0  0  0  0  0  0
   -1.6897    8.0018    3.6964 C   0  0  0  0  0  0  0  0  0  0  0  0
   -2.8267    7.0714    3.6170 C   0  0  0  0  0  0  0  0  0  0  0  0
   -2.7834    5.8591    3.5131 O   0  0  0  0  0  0  0  0  0  0  0  0
   -4.0355    7.8945    3.8289 C   0  0  0  0  0  0  0  0  0  0  0  0
   -5.3554    7.4570    3.8383 C   0  0  0  0  0  0  0  0  0  0  0  0
   -6.2754    8.4581    4.0439 C   0  0  0  0  0  0  0  0  0  0  0  0
   -5.9076    9.7939    4.2420 C   0  0  0  0  0  0  0  0  0  0  0  0
   -4.6056   10.2378    4.2388 C   0  0  0  0  0  0  0  0  0  0  0  0
   -3.6572    9.2373    4.0191 C   0  0  0  0  0  0  0  0  0  0  0  0
   -2.2013    9.3247    3.9169 C   0  0  0  0  0  0  0  0  0  0  0  0
   -1.4643   10.4839    3.8658 C   0  0  0  0  0  0  0  0  0  0  0  0
   -0.0769   10.5255    3.6272 C   0  0  0  0  0  0  0  0  0  0  0  0
    1.0454   10.6396    3.4083 N   0  0  0  0  0  0  0  0  0  0  0  0
   -2.0073   11.7774    3.9621 C   0  0  0  0  0  0  0  0  0  0  0  0
   -2.3922   12.8592    4.0157 N   0  0  0  0  0  0  0  0  0  0  0  0
   -7.3375   10.2472    4.4041 C   0  0  0  0  0  0  0  0  0  0  0  0
   -7.8522   10.5246    5.8382 C   0  0  0  0  0  0  0  0  0  0  0  0
   -7.0285    9.6661    6.7655 C   0  0  0  0  0  0  0  0  0  0  0  0
   -7.3809    8.4028    6.5683 C   0  0  0  0  0  0  0  0  0  0  0  0
   -8.4486    8.3843    5.5026 C   0  0  0  0  0  0  0  0  0  0  0  0
   -9.1577    9.7136    5.8068 C   0  0  0  0  0  0  0  0  0  0  0  0
   -7.7484    8.7587    4.1733 C   0  0  0  0  0  0  0  0  0  0  0  0
    0.1265    6.4318    3.1109 C   0  0  0  0  0  0  0  0  0  0  0  0
   -0.3711    5.6242    2.0672 C   0  0  0  0  0  0  0  0  0  0  0  0
   -1.4187    5.9069    1.2389 N   0  0  0  0  0  0  0  0  0  0  0  0
   -1.8441    7.2157    0.9772 C   0  0  0  0  0  0  0  0  0  0  0  0
   -0.9271    8.2560    0.8269 C   0  0  0  0  0  0  0  0  0  0  0  0
   -1.3676    9.5444    0.6137 C   0  0  0  0  0  0  0  0  0  0  0  0
   -2.7275    9.8397    0.5418 C   0  0  0  0  0  0  0  0  0  0  0  0
   -3.1860   11.2533    0.3675 C   0  0  0  0  0  0  0  0  0  0  0  0
   -3.6323    8.7923    0.6459 C   0  0  0  0  0  0  0  0  0  0  0  0
   -3.2037    7.4949    0.8575 C   0  0  0  0  0  0  0  0  0  0  0  0
   -2.0945    4.8437    0.6000 C   0  0  0  0  0  0  0  0  0  0  0  0
   -2.3787    4.9156   -0.7599 C   0  0  0  0  0  0  0  0  0  0  0  0
   -3.0310    3.8699   -1.3817 C   0  0  0  0  0  0  0  0  0  0  0  0
   -3.4124    2.7364   -0.6710 C   0  0  0  0  0  0  0  0  0  0  0  0
   -4.0948    1.5992   -1.3641 C   0  0  0  0  0  0  0  0  0  0  0  0
   -3.1361    2.6845    0.6895 C   0  0  0  0  0  0  0  0  0  0  0  0
   -2.4866    3.7241    1.3258 C   0  0  0  0  0  0  0  0  0  0  0  0
    0.4598    4.4936    1.8838 C   0  0  0  0  0  0  0  0  0  0  0  0
    0.3942    3.1209    0.8354 S   0  0  0  0  0  0  0  0  0  0  0  0
    1.9153    2.5211    1.4817 C   0  0  0  0  0  0  0  0  0  0  0  0
    2.4246    3.3320    2.4914 C   0  0  0  0  0  0  0  0  0  0  0  0
    3.5517    3.0929    3.2539 N   0  0  0  0  0  0  0  0  0  0  0  0
    3.8793    1.8167    3.7286 C   0  0  0  0  0  0  0  0  0  0  0  0
    5.2152    1.4878    3.9616 C   0  0  0  0  0  0  0  0  0  0  0  0
    5.5535    0.2351    4.4267 C   0  0  0  0  0  0  0  0  0  0  0  0
    4.5813   -0.7334    4.6608 C   0  0  0  0  0  0  0  0  0  0  0  0
    4.9763   -2.0934    5.1485 C   0  0  0  0  0  0  0  0  0  0  0  0
    3.2544   -0.3994    4.4245 C   0  0  0  0  0  0  0  0  0  0  0  0
    2.9009    0.8572    3.9700 C   0  0  0  0  0  0  0  0  0  0  0  0
    4.2970    4.2100    3.6793 C   0  0  0  0  0  0  0  0  0  0  0  0
    4.6031    5.2224    2.7730 C   0  0  0  0  0  0  0  0  0  0  0  0
    5.3181    6.3284    3.1847 C   0  0  0  0  0  0  0  0  0  0  0  0
    5.7529    6.4520    4.4995 C   0  0  0  0  0  0  0  0  0  0  0  0
    6.5130    7.6664    4.9340 C   0  0  0  0  0  0  0  0  0  0  0  0
    5.4494    5.4332    5.3940 C   0  0  0  0  0  0  0  0  0  0  0  0
    4.7272    4.3251    4.9971 C   0  0  0  0  0  0  0  0  0  0  0  0
    1.5907    4.4617    2.6871 C   0  0  0  0  0  0  0  0  0  0  0  0
    1.6776    5.8365    3.7245 S   0  0  0  0  0  0  0  0  0  0  0  0
    2.4242    1.3073    0.9421 C   0  0  0  0  0  0  0  0  0  0  0  0
    3.7127    0.8255    0.9008 C   0  0  0  0  0  0  0  0  0  0  0  0
    3.8325   -0.4261    0.2787 C   0  0  0  0  0  0  0  0  0  0  0  0
    5.1114   -1.1485    0.1831 C   0  0  0  0  0  0  0  0  0  0  0  0
    5.7020   -1.5830    1.3533 C   0  0  0  0  0  0  0  0  0  0  0  0
    6.8953   -2.3072    1.3131 C   0  0  0  0  0  0  0  0  0  0  0  0
    7.4688   -2.5973    0.0859 C   0  0  0  0  0  0  0  0  0  0  0  0
    6.8827   -2.1391   -1.0967 C   0  0  0  0  0  0  0  0  0  0  0  0
    7.5653   -2.4734   -2.2263 O   0  0  0  0  0  0  0  0  0  0  0  0
    7.0729   -2.0867   -3.4938 C   0  0  0  0  0  0  0  0  0  0  0  0
    5.9410   -2.9803   -3.9917 C   0  0  0  0  0  0  0  0  0  0  0  0
    5.7086   -1.4005   -1.0512 C   0  0  0  0  0  0  0  0  0  0  0  0
    7.3979   -2.6533    2.5267 O   0  0  0  0  0  0  0  0  0  0  0  0
    8.6123   -3.3762    2.6141 C   0  0  0  0  0  0  0  0  0  0  0  0
    8.4232   -4.8737    2.3990 C   0  0  0  0  0  0  0  0  0  0  0  0
    2.6166   -0.9236   -0.1599 C   0  0  0  0  0  0  0  0  0  0  0  0
    1.3227    0.1926    0.1858 S   0  0  0  0  0  0  0  0  0  0  0  0
    2.3051   -2.1816   -0.7433 C   0  0  0  0  0  0  0  0  0  0  0  0
    1.0570   -2.6558   -1.0472 C   0  0  0  0  0  0  0  0  0  0  0  0
    1.0523   -3.9635   -1.5850 C   0  0  0  0  0  0  0  0  0  0  0  0
   -0.0437   -4.7391   -1.9979 C   0  0  0  0  0  0  0  0  0  0  0  0
   -1.4036   -4.1836   -1.9821 C   0  0  0  0  0  0  0  0  0  0  0  0
   -1.6508   -2.9476   -2.5741 C   0  0  0  0  0  0  0  0  0  0  0  0
   -2.9275   -2.4263   -2.5544 C   0  0  0  0  0  0  0  0  0  0  0  0
   -3.1341   -1.2260   -3.1397 F   0  0  0  0  0  0  0  0  0  0  0  0
   -4.0052   -3.0675   -1.9553 C   0  0  0  0  0  0  0  0  0  0  0  0
   -5.3894   -2.4900   -1.9733 C   0  0  0  0  0  0  0  0  0  0  0  0
   -6.1299   -2.9218   -3.2410 C   0  0  0  0  0  0  0  0  0  0  0  0
   -3.7189   -4.3032   -1.3847 C   0  0  0  0  0  0  0  0  0  0  0  0
   -4.7189   -4.9770   -0.7821 F   0  0  0  0  0  0  0  0  0  0  0  0
   -2.4585   -4.8675   -1.3872 C   0  0  0  0  0  0  0  0  0  0  0  0
    0.2249   -6.0278   -2.4408 C   0  0  0  0  0  0  0  0  0  0  0  0
    1.5485   -6.5337   -2.5681 C   0  0  0  0  0  0  0  0  0  0  0  0
    2.6536   -5.7397   -2.1973 C   0  0  0  0  0  0  0  0  0  0  0  0
    4.0468   -6.1497   -2.4123 C   0  0  0  0  0  0  0  0  0  0  0  0
    4.4601   -6.5999   -3.6631 C   0  0  0  0  0  0  0  0  0  0  0  0
    5.7978   -6.8623   -3.8844 C   0  0  0  0  0  0  0  0  0  0  0  0
    6.7781   -6.7093   -2.9094 C   0  0  0  0  0  0  0  0  0  0  0  0
    8.2348   -6.9287   -3.1887 C   0  0  0  0  0  0  0  0  0  0  0  0
    8.8828   -5.6343   -3.6889 C   0  0  0  0  0  0  0  0  0  0  0  0
    6.3198   -6.2795   -1.6694 C   0  0  0  0  0  0  0  0  0  0  0  0
    4.9948   -6.0032   -1.4034 C   0  0  0  0  0  0  0  0  0  0  0  0
    7.2142   -6.1248   -0.6722 F   0  0  0  0  0  0  0  0  0  0  0  0
    6.1715   -7.2704   -5.1140 F   0  0  0  0  0  0  0  0  0  0  0  0
    2.3665   -4.4961   -1.6692 C   0  0  0  0  0  0  0  0  0  0  0  0
    3.5549   -3.3522   -1.1016 S   0  0  0  0  0  0  0  0  0  0  0  0
    1.5492   -7.8519   -3.0489 C   0  0  0  0  0  0  0  0  0  0  0  0
    0.2893   -8.3646   -3.2954 C   0  0  0  0  0  0  0  0  0  0  0  0
   -0.9671   -7.1941   -2.9430 S   0  0  0  0  0  0  0  0  0  0  0  0
    0.1114   -9.6877   -3.7563 C   0  0  0  0  0  0  0  0  0  0  0  0
   -1.0271  -10.3969   -4.0071 C   0  0  0  0  0  0  0  0  0  0  0  0
   -2.4099   -9.9134   -3.8373 C   0  0  0  0  0  0  0  0  0  0  0  0
   -2.7708   -8.8004   -3.5060 O   0  0  0  0  0  0  0  0  0  0  0  0
   -3.2853  -11.0532   -4.1524 C   0  0  0  0  0  0  0  0  0  0  0  0
   -4.6778  -11.0759   -4.0975 C   0  0  0  0  0  0  0  0  0  0  0  0
   -5.2300  -12.2867   -4.4385 C   0  0  0  0  0  0  0  0  0  0  0  0
   -4.4547  -13.3919   -4.8160 C   0  0  0  0  0  0  0  0  0  0  0  0
   -3.0818  -13.3813   -4.8783 C   0  0  0  0  0  0  0  0  0  0  0  0
   -2.4965  -12.1606   -4.5251 C   0  0  0  0  0  0  0  0  0  0  0  0
   -1.0882  -11.7787   -4.4549 C   0  0  0  0  0  0  0  0  0  0  0  0
   -0.0308  -12.5956   -4.7613 C   0  0  0  0  0  0  0  0  0  0  0  0
   -0.1517  -13.9344   -5.1913 C   0  0  0  0  0  0  0  0  0  0  0  0
   -0.1664  -15.0272   -5.5430 N   0  0  0  0  0  0  0  0  0  0  0  0
    1.3345  -12.2441   -4.7020 C   0  0  0  0  0  0  0  0  0  0  0  0
    2.4668  -12.0502   -4.6840 N   0  0  0  0  0  0  0  0  0  0  0  0
   -5.6627  -14.2738   -5.0112 C   0  0  0  0  0  0  0  0  0  0  0  0
   -5.9522  -15.2980   -3.8934 C   0  0  0  0  0  0  0  0  0  0  0  0
   -7.4050  -15.6605   -4.1015 C   0  0  0  0  0  0  0  0  0  0  0  0
   -8.1376  -14.6152   -3.7390 C   0  0  0  0  0  0  0  0  0  0  0  0
   -7.1923  -13.5281   -3.2809 C   0  0  0  0  0  0  0  0  0  0  0  0
   -6.0812  -14.3881   -2.6648 C   0  0  0  0  0  0  0  0  0  0  0  0
   -6.5264  -13.0429   -4.5867 C   0  0  0  0  0  0  0  0  0  0  0  0
    0.3604    8.2180    4.2009 H   0  0  0  0  0  0  0  0  0  0  0  0
   -5.5968    6.4166    3.6848 H   0  0  0  0  0  0  0  0  0  0  0  0
   -4.3359   11.2686    4.3987 H   0  0  0  0  0  0  0  0  0  0  0  0
   -7.6874   10.9899    3.6894 H   0  0  0  0  0  0  0  0  0  0  0  0
   -7.9229   11.5779    6.0961 H   0  0  0  0  0  0  0  0  0  0  0  0
   -6.2569   10.0482    7.4080 H   0  0  0  0  0  0  0  0  0  0  0  0
   -6.9624    7.5187    7.0127 H   0  0  0  0  0  0  0  0  0  0  0  0
   -9.0633    7.4890    5.4537 H   0  0  0  0  0  0  0  0  0  0  0  0
   -9.6732    9.7065    6.7661 H   0  0  0  0  0  0  0  0  0  0  0  0
   -9.8450   10.0281    5.0223 H   0  0  0  0  0  0  0  0  0  0  0  0
   -8.3609    8.5299    3.3028 H   0  0  0  0  0  0  0  0  0  0  0  0
    0.1318    8.0523    0.8824 H   0  0  0  0  0  0  0  0  0  0  0  0
   -0.6443   10.3399    0.5092 H   0  0  0  0  0  0  0  0  0  0  0  0
   -2.6338   11.7403   -0.4341 H   0  0  0  0  0  0  0  0  0  0  0  0
   -4.2483   11.2936    0.1413 H   0  0  0  0  0  0  0  0  0  0  0  0
   -3.0091   11.8218    1.2812 H   0  0  0  0  0  0  0  0  0  0  0  0
   -4.6918    8.9927    0.5785 H   0  0  0  0  0  0  0  0  0  0  0  0
   -3.9197    6.6917    0.9453 H   0  0  0  0  0  0  0  0  0  0  0  0
   -2.0828    5.7897   -1.3219 H   0  0  0  0  0  0  0  0  0  0  0  0
   -3.2431    3.9297   -2.4393 H   0  0  0  0  0  0  0  0  0  0  0  0
   -3.3680    1.0202   -1.9332 H   0  0  0  0  0  0  0  0  0  0  0  0
   -4.5717    0.9376   -0.6445 H   0  0  0  0  0  0  0  0  0  0  0  0
   -4.8452    1.9647   -2.0628 H   0  0  0  0  0  0  0  0  0  0  0  0
   -3.4388    1.8205    1.2629 H   0  0  0  0  0  0  0  0  0  0  0  0
   -2.3040    3.6975    2.3884 H   0  0  0  0  0  0  0  0  0  0  0  0
    5.9848    2.2209    3.7690 H   0  0  0  0  0  0  0  0  0  0  0  0
    6.5926   -0.0082    4.5923 H   0  0  0  0  0  0  0  0  0  0  0  0
    5.8033   -2.4810    4.5553 H   0  0  0  0  0  0  0  0  0  0  0  0
    5.3039   -2.0401    6.1869 H   0  0  0  0  0  0  0  0  0  0  0  0
    4.1410   -2.7869    5.0875 H   0  0  0  0  0  0  0  0  0  0  0  0
    2.4794   -1.1316    4.6006 H   0  0  0  0  0  0  0  0  0  0  0  0
    1.8605    1.0975    3.8095 H   0  0  0  0  0  0  0  0  0  0  0  0
    4.2776    5.1326    1.7463 H   0  0  0  0  0  0  0  0  0  0  0  0
    5.5469    7.1086    2.4736 H   0  0  0  0  0  0  0  0  0  0  0  0
    7.2926    7.9105    4.2147 H   0  0  0  0  0  0  0  0  0  0  0  0
    5.8408    8.5220    4.9987 H   0  0  0  0  0  0  0  0  0  0  0  0
    6.9684    7.5139    5.9091 H   0  0  0  0  0  0  0  0  0  0  0  0
    5.7735    5.5112    6.4217 H   0  0  0  0  0  0  0  0  0  0  0  0
    4.4880    3.5459    5.7055 H   0  0  0  0  0  0  0  0  0  0  0  0
    4.5613    1.3649    1.2774 H   0  0  0  0  0  0  0  0  0  0  0  0
    5.2435   -1.3755    2.3051 H   0  0  0  0  0  0  0  0  0  0  0  0
    8.3735   -3.1739   -0.0100 H   0  0  0  0  0  0  0  0  0  0  0  0
    7.9368   -2.1814   -4.1584 H   0  0  0  0  0  0  0  0  0  0  0  0
    6.7629   -1.0349   -3.4815 H   0  0  0  0  0  0  0  0  0  0  0  0
    6.2769   -4.0122   -4.0412 H   0  0  0  0  0  0  0  0  0  0  0  0
    5.6335   -2.6603   -4.9834 H   0  0  0  0  0  0  0  0  0  0  0  0
    5.0859   -2.9364   -3.3227 H   0  0  0  0  0  0  0  0  0  0  0  0
    5.2384   -1.0211   -1.9439 H   0  0  0  0  0  0  0  0  0  0  0  0
    9.3513   -2.9700    1.9141 H   0  0  0  0  0  0  0  0  0  0  0  0
    8.9652   -3.1892    3.6332 H   0  0  0  0  0  0  0  0  0  0  0  0
    8.0527   -5.0813    1.3998 H   0  0  0  0  0  0  0  0  0  0  0  0
    7.7076   -5.2623    3.1193 H   0  0  0  0  0  0  0  0  0  0  0  0
    9.3725   -5.3840    2.5359 H   0  0  0  0  0  0  0  0  0  0  0  0
    0.1662   -2.0819   -0.8639 H   0  0  0  0  0  0  0  0  0  0  0  0
   -0.8636   -2.4016   -3.0693 H   0  0  0  0  0  0  0  0  0  0  0  0
   -5.3282   -1.4007   -1.9435 H   0  0  0  0  0  0  0  0  0  0  0  0
   -5.9381   -2.8368   -1.0964 H   0  0  0  0  0  0  0  0  0  0  0  0
   -5.6047   -2.5679   -4.1251 H   0  0  0  0  0  0  0  0  0  0  0  0
   -6.1990   -4.0062   -3.2883 H   0  0  0  0  0  0  0  0  0  0  0  0
   -7.1351   -2.5081   -3.2453 H   0  0  0  0  0  0  0  0  0  0  0  0
   -2.3085   -5.8243   -0.9146 H   0  0  0  0  0  0  0  0  0  0  0  0
    3.7580   -6.7107   -4.4740 H   0  0  0  0  0  0  0  0  0  0  0  0
    8.7319   -7.2522   -2.2728 H   0  0  0  0  0  0  0  0  0  0  0  0
    8.3478   -7.7081   -3.9440 H   0  0  0  0  0  0  0  0  0  0  0  0
    8.7391   -4.8310   -2.9693 H   0  0  0  0  0  0  0  0  0  0  0  0
    8.4446   -5.3347   -4.6388 H   0  0  0  0  0  0  0  0  0  0  0  0
    9.9491   -5.7861   -3.8352 H   0  0  0  0  0  0  0  0  0  0  0  0
    4.7135   -5.6853   -0.4126 H   0  0  0  0  0  0  0  0  0  0  0  0
    2.4437   -8.4325   -3.1919 H   0  0  0  0  0  0  0  0  0  0  0  0
    1.0527  -10.2011   -3.9113 H   0  0  0  0  0  0  0  0  0  0  0  0
   -5.2340  -10.1988   -3.8062 H   0  0  0  0  0  0  0  0  0  0  0  0
   -2.5035  -14.2405   -5.1731 H   0  0  0  0  0  0  0  0  0  0  0  0
   -5.7950  -14.6845   -6.0103 H   0  0  0  0  0  0  0  0  0  0  0  0
   -5.2453  -16.1211   -3.8366 H   0  0  0  0  0  0  0  0  0  0  0  0
   -7.7365  -16.5889   -4.5280 H   0  0  0  0  0  0  0  0  0  0  0  0
   -9.2033  -14.4959   -3.8024 H   0  0  0  0  0  0  0  0  0  0  0  0
   -7.6151  -12.7390   -2.6651 H   0  0  0  0  0  0  0  0  0  0  0  0
   -6.4217  -14.9313   -1.7849 H   0  0  0  0  0  0  0  0  0  0  0  0
   -5.1745  -13.8365   -2.4233 H   0  0  0  0  0  0  0  0  0  0  0  0
   -7.2383  -12.6335   -5.3009 H   0  0  0  0  0  0  0  0  0  0  0  0
  1  2  2  0  0  0  0
  2  3  1  0  0  0  0
  3  4  2  0  0  0  0
  3  5  1  0  0  0  0
  5  6  2  0  0  0  0
  6  7  1  0  0  0  0
  7  8  2  0  0  0  0
  8  9  1  0  0  0  0
  9 10  2  0  0  0  0
 10 11  1  0  0  0  0
 11 12  2  0  0  0  0
 12 13  1  0  0  0  0
 13 14  3  0  0  0  0
 12 15  1  0  0  0  0
 15 16  3  0  0  0  0
  8 17  1  0  0  0  0
 17 18  1  0  0  0  0
 18 19  1  0  0  0  0
 19 20  2  0  0  0  0
 20 21  1  0  0  0  0
 21 22  1  0  0  0  0
 21 23  1  0  0  0  0
  1 24  1  0  0  0  0
 24 25  2  0  0  0  0
 25 26  1  0  0  0  0
 26 27  1  0  0  0  0
 27 28  2  0  0  0  0
 28 29  1  0  0  0  0
 29 30  2  0  0  0  0
 30 31  1  0  0  0  0
 30 32  1  0  0  0  0
 32 33  2  0  0  0  0
 26 34  1  0  0  0  0
 34 35  2  0  0  0  0
 35 36  1  0  0  0  0
 36 37  2  0  0  0  0
 37 38  1  0  0  0  0
 37 39  1  0  0  0  0
 39 40  2  0  0  0  0
 25 41  1  0  0  0  0
 41 42  1  0  0  0  0
 42 43  1  0  0  0  0
 43 44  2  0  0  0  0
 44 45  1  0  0  0  0
 45 46  1  0  0  0  0
 46 47  2  0  0  0  0
 47 48  1  0  0  0  0
 48 49  2  0  0  0  0
 49 50  1  0  0  0  0
 49 51  1  0  0  0  0
 51 52  2  0  0  0  0
 45 53  1  0  0  0  0
 53 54  2  0  0  0  0
 54 55  1  0  0  0  0
 55 56  2  0  0  0  0
 56 57  1  0  0  0  0
 56 58  1  0  0  0  0
 58 59  2  0  0  0  0
 44 60  1  0  0  0  0
 60 61  1  0  0  0  0
 43 62  1  0  0  0  0
 62 63  2  0  0  0  0
 63 64  1  0  0  0  0
 64 65  1  0  0  0  0
 65 66  2  0  0  0  0
 66 67  1  0  0  0  0
 67 68  2  0  0  0  0
 68 69  1  0  0  0  0
 69 70  1  0  0  0  0
 70 71  1  0  0  0  0
 71 72  1  0  0  0  0
 69 73  2  0  0  0  0
 67 74  1  0  0  0  0
 74 75  1  0  0  0  0
 75 76  1  0  0  0  0
 64 77  2  0  0  0  0
 77 78  1  0  0  0  0
 77 79  1  0  0  0  0
 79 80  2  0  0  0  0
 80 81  1  0  0  0  0
 81 82  2  0  0  0  0
 82 83  1  0  0  0  0
 83 84  2  0  0  0  0
 84 85  1  0  0  0  0
 85 86  1  0  0  0  0
 85 87  2  0  0  0  0
 87 88  1  0  0  0  0
 88 89  1  0  0  0  0
 87 90  1  0  0  0  0
 90 91  1  0  0  0  0
 90 92  2  0  0  0  0
 82 93  1  0  0  0  0
 93 94  2  0  0  0  0
 94 95  1  0  0  0  0
 95 96  1  0  0  0  0
 96 97  2  0  0  0  0
 97 98  1  0  0  0  0
 98 99  2  0  0  0  0
 99100  1  0  0  0  0
100101  1  0  0  0  0
 99102  1  0  0  0  0
102103  2  0  0  0  0
102104  1  0  0  0  0
 98105  1  0  0  0  0
 95106  2  0  0  0  0
106107  1  0  0  0  0
 94108  1  0  0  0  0
108109  2  0  0  0  0
109110  1  0  0  0  0
109111  1  0  0  0  0
111112  2  0  0  0  0
112113  1  0  0  0  0
113114  2  0  0  0  0
113115  1  0  0  0  0
115116  2  0  0  0  0
116117  1  0  0  0  0
117118  2  0  0  0  0
118119  1  0  0  0  0
119120  2  0  0  0  0
120121  1  0  0  0  0
121122  2  0  0  0  0
122123  1  0  0  0  0
123124  3  0  0  0  0
122125  1  0  0  0  0
125126  3  0  0  0  0
118127  1  0  0  0  0
127128  1  0  0  0  0
128129  1  0  0  0  0
129130  2  0  0  0  0
130131  1  0  0  0  0
131132  1  0  0  0  0
131133  1  0  0  0  0
 11  2  1  0  0  0  0
 23 17  1  0  0  0  0
 61 24  1  0  0  0  0
 78 62  1  0  0  0  0
107 79  1  0  0  0  0
121112  1  0  0  0  0
133127  1  0  0  0  0
 10  5  1  0  0  0  0
 22 18  1  0  0  0  0
 33 27  1  0  0  0  0
 40 34  1  0  0  0  0
 60 41  2  0  0  0  0
 73 65  1  0  0  0  0
106 81  1  0  0  0  0
120115  1  0  0  0  0
132128  1  0  0  0  0
 23  7  1  0  0  0  0
 52 46  1  0  0  0  0
 59 53  1  0  0  0  0
 92 83  1  0  0  0  0
110 93  1  0  0  0  0
133117  1  0  0  0  0
103 96  1  0  0  0  0
  1134  1  0  0  0  0
  6135  1  0  0  0  0
  9136  1  0  0  0  0
 17137  1  0  0  0  0
 18138  1  0  0  0  0
 19139  1  0  0  0  0
 20140  1  0  0  0  0
 21141  1  0  0  0  0
 22142  1  0  0  0  0
 22143  1  0  0  0  0
 23144  1  0  0  0  0
 28145  1  0  0  0  0
 29146  1  0  0  0  0
 31147  1  0  0  0  0
 31148  1  0  0  0  0
 31149  1  0  0  0  0
 32150  1  0  0  0  0
 33151  1  0  0  0  0
 35152  1  0  0  0  0
 36153  1  0  0  0  0
 38154  1  0  0  0  0
 38155  1  0  0  0  0
 38156  1  0  0  0  0
 39157  1  0  0  0  0
 40158  1  0  0  0  0
 47159  1  0  0  0  0
 48160  1  0  0  0  0
 50161  1  0  0  0  0
 50162  1  0  0  0  0
 50163  1  0  0  0  0
 51164  1  0  0  0  0
 52165  1  0  0  0  0
 54166  1  0  0  0  0
 55167  1  0  0  0  0
 57168  1  0  0  0  0
 57169  1  0  0  0  0
 57170  1  0  0  0  0
 58171  1  0  0  0  0
 59172  1  0  0  0  0
 63173  1  0  0  0  0
 66174  1  0  0  0  0
 68175  1  0  0  0  0
 71176  1  0  0  0  0
 71177  1  0  0  0  0
 72178  1  0  0  0  0
 72179  1  0  0  0  0
 72180  1  0  0  0  0
 73181  1  0  0  0  0
 75182  1  0  0  0  0
 75183  1  0  0  0  0
 76184  1  0  0  0  0
 76185  1  0  0  0  0
 76186  1  0  0  0  0
 80187  1  0  0  0  0
 84188  1  0  0  0  0
 88189  1  0  0  0  0
 88190  1  0  0  0  0
 89191  1  0  0  0  0
 89192  1  0  0  0  0
 89193  1  0  0  0  0
 92194  1  0  0  0  0
 97195  1  0  0  0  0
100196  1  0  0  0  0
100197  1  0  0  0  0
101198  1  0  0  0  0
101199  1  0  0  0  0
101200  1  0  0  0  0
103201  1  0  0  0  0
108202  1  0  0  0  0
111203  1  0  0  0  0
116204  1  0  0  0  0
119205  1  0  0  0  0
127206  1  0  0  0  0
128207  1  0  0  0  0
129208  1  0  0  0  0
130209  1  0  0  0  0
131210  1  0  0  0  0
132211  1  0  0  0  0
132212  1  0  0  0  0
133213  1  0  0  0  0
M  END
