
  xtb     02172218293D
 energy: -365.111455740361 gnorm: 0.000796399125 xtb: 6.4.1 (unknown)
219240  0     0  0            999 V2000
    0.3152   -4.3128   -6.2666 C   0  0  0  0  0  0  0  0  0  0  0  0
    0.9763   -4.0292   -7.4397 C   0  0  0  0  0  0  0  0  0  0  0  0
    1.9255   -2.9351   -7.6515 C   0  0  0  0  0  0  0  0  0  0  0  0
    2.2543   -2.0695   -6.8573 O   0  0  0  0  0  0  0  0  0  0  0  0
    2.4403   -3.0936   -9.0238 C   0  0  0  0  0  0  0  0  0  0  0  0
    3.3537   -2.2708   -9.6784 C   0  0  0  0  0  0  0  0  0  0  0  0
    3.6277   -2.6567  -10.9689 C   0  0  0  0  0  0  0  0  0  0  0  0
    3.0374   -3.7789  -11.5633 C   0  0  0  0  0  0  0  0  0  0  0  0
    2.1342   -4.5985  -10.9279 C   0  0  0  0  0  0  0  0  0  0  0  0
    1.8411   -4.2241   -9.6136 C   0  0  0  0  0  0  0  0  0  0  0  0
    0.9127   -4.8150   -8.6486 C   0  0  0  0  0  0  0  0  0  0  0  0
    0.1041   -5.8999   -8.8919 C   0  0  0  0  0  0  0  0  0  0  0  0
    0.1338   -6.6706  -10.0709 C   0  0  0  0  0  0  0  0  0  0  0  0
    0.1124   -7.3589  -10.9908 N   0  0  0  0  0  0  0  0  0  0  0  0
   -0.8946   -6.3900   -8.0295 C   0  0  0  0  0  0  0  0  0  0  0  0
   -1.7585   -6.8333   -7.4131 N   0  0  0  0  0  0  0  0  0  0  0  0
    3.7624   -3.5690  -12.8697 C   0  0  0  0  0  0  0  0  0  0  0  0
    4.9727   -4.4858  -13.1453 C   0  0  0  0  0  0  0  0  0  0  0  0
    5.7447   -3.7521  -14.2180 C   0  0  0  0  0  0  0  0  0  0  0  0
    6.3036   -2.6878  -13.6562 C   0  0  0  0  0  0  0  0  0  0  0  0
    5.9190   -2.6846  -12.1942 C   0  0  0  0  0  0  0  0  0  0  0  0
    5.8653   -4.1952  -11.9319 C   0  0  0  0  0  0  0  0  0  0  0  0
    4.4204   -2.3163  -12.2071 C   0  0  0  0  0  0  0  0  0  0  0  0
    0.2330   -3.5881   -5.0782 C   0  0  0  0  0  0  0  0  0  0  0  0
   -0.5583   -4.0141   -3.9807 C   0  0  0  0  0  0  0  0  0  0  0  0
   -1.1199   -5.2553   -3.8427 N   0  0  0  0  0  0  0  0  0  0  0  0
   -0.4286   -6.4227   -4.2208 C   0  0  0  0  0  0  0  0  0  0  0  0
   -1.1246   -7.5198   -4.7212 C   0  0  0  0  0  0  0  0  0  0  0  0
   -0.4396   -8.6628   -5.0821 C   0  0  0  0  0  0  0  0  0  0  0  0
    0.9425   -8.7425   -4.9614 C   0  0  0  0  0  0  0  0  0  0  0  0
    1.6688   -9.9911   -5.3571 C   0  0  0  0  0  0  0  0  0  0  0  0
    1.6253   -7.6456   -4.4488 C   0  0  0  0  0  0  0  0  0  0  0  0
    0.9538   -6.4993   -4.0765 C   0  0  0  0  0  0  0  0  0  0  0  0
   -2.3542   -5.3712   -3.1816 C   0  0  0  0  0  0  0  0  0  0  0  0
   -2.5978   -6.4219   -2.3032 C   0  0  0  0  0  0  0  0  0  0  0  0
   -3.8193   -6.5217   -1.6660 C   0  0  0  0  0  0  0  0  0  0  0  0
   -4.8218   -5.5845   -1.8806 C   0  0  0  0  0  0  0  0  0  0  0  0
   -6.1437   -5.6817   -1.1837 C   0  0  0  0  0  0  0  0  0  0  0  0
   -4.5719   -4.5429   -2.7677 C   0  0  0  0  0  0  0  0  0  0  0  0
   -3.3597   -4.4354   -3.4168 C   0  0  0  0  0  0  0  0  0  0  0  0
   -0.6803   -2.9892   -3.0264 C   0  0  0  0  0  0  0  0  0  0  0  0
   -1.5184   -2.8504   -1.5155 S   0  0  0  0  0  0  0  0  0  0  0  0
   -0.8041   -1.2711   -1.2647 C   0  0  0  0  0  0  0  0  0  0  0  0
   -0.0362   -0.8501   -2.3309 C   0  0  0  0  0  0  0  0  0  0  0  0
    0.4901    0.4378   -2.4024 N   0  0  0  0  0  0  0  0  0  0  0  0
   -0.4278    1.4855   -2.2058 C   0  0  0  0  0  0  0  0  0  0  0  0
   -0.1227    2.6138   -1.4501 C   0  0  0  0  0  0  0  0  0  0  0  0
   -1.0647    3.6099   -1.2763 C   0  0  0  0  0  0  0  0  0  0  0  0
   -2.3296    3.5123   -1.8410 C   0  0  0  0  0  0  0  0  0  0  0  0
   -3.3511    4.5894   -1.6493 C   0  0  0  0  0  0  0  0  0  0  0  0
   -2.6316    2.3788   -2.5856 C   0  0  0  0  0  0  0  0  0  0  0  0
   -1.6985    1.3807   -2.7702 C   0  0  0  0  0  0  0  0  0  0  0  0
    1.8415    0.6486   -2.6701 C   0  0  0  0  0  0  0  0  0  0  0  0
    2.7584   -0.3800   -2.4693 C   0  0  0  0  0  0  0  0  0  0  0  0
    4.1064   -0.1735   -2.6744 C   0  0  0  0  0  0  0  0  0  0  0  0
    4.5879    1.0621   -3.0833 C   0  0  0  0  0  0  0  0  0  0  0  0
    6.0560    1.3095   -3.2435 C   0  0  0  0  0  0  0  0  0  0  0  0
    3.6649    2.0737   -3.3215 C   0  0  0  0  0  0  0  0  0  0  0  0
    2.3126    1.8764   -3.1316 C   0  0  0  0  0  0  0  0  0  0  0  0
    0.0500   -1.8479   -3.3328 C   0  0  0  0  0  0  0  0  0  0  0  0
    0.9124   -1.9772   -4.8212 S   0  0  0  0  0  0  0  0  0  0  0  0
   -0.8961   -0.5686   -0.0040 C   0  0  0  0  0  0  0  0  0  0  0  0
    0.1174   -0.5652    0.9288 C   0  0  0  0  0  0  0  0  0  0  0  0
    1.2887   -1.3196    0.8032 N   0  0  0  0  0  0  0  0  0  0  0  0
    1.1371   -2.6888    0.5518 C   0  0  0  0  0  0  0  0  0  0  0  0
    1.9491   -3.3833   -0.3465 C   0  0  0  0  0  0  0  0  0  0  0  0
    1.7122   -4.7121   -0.6172 C   0  0  0  0  0  0  0  0  0  0  0  0
    0.6658   -5.3910    0.0024 C   0  0  0  0  0  0  0  0  0  0  0  0
    0.4442   -7.0817   -0.4545 S   0  0  0  0  0  0  0  0  0  0  0  0
   -0.8524   -7.6635    0.6761 C   0  0  0  0  0  0  0  0  0  0  0  0
   -0.1267   -4.7176    0.9204 C   0  0  0  0  0  0  0  0  0  0  0  0
    0.1116   -3.3847    1.1907 C   0  0  0  0  0  0  0  0  0  0  0  0
    2.5202   -0.6664    0.8059 C   0  0  0  0  0  0  0  0  0  0  0  0
    3.7034   -1.3493    1.0777 C   0  0  0  0  0  0  0  0  0  0  0  0
    4.9219   -0.7021    1.0135 C   0  0  0  0  0  0  0  0  0  0  0  0
    4.9811    0.6461    0.6920 C   0  0  0  0  0  0  0  0  0  0  0  0
    6.4871    1.5594    0.5493 S   0  0  0  0  0  0  0  0  0  0  0  0
    7.7535    0.2631    0.4120 C   0  0  0  0  0  0  0  0  0  0  0  0
    3.7988    1.3496    0.4852 C   0  0  0  0  0  0  0  0  0  0  0  0
    2.5868    0.7030    0.5406 C   0  0  0  0  0  0  0  0  0  0  0  0
   -0.1966    0.2685    2.0282 C   0  0  0  0  0  0  0  0  0  0  0  0
    0.6020    0.6691    3.5029 S   0  0  0  0  0  0  0  0  0  0  0  0
   -0.7634    1.6322    3.9912 C   0  0  0  0  0  0  0  0  0  0  0  0
   -1.7750    1.6504    3.0617 C   0  0  0  0  0  0  0  0  0  0  0  0
   -2.9511    2.4100    3.2027 N   0  0  0  0  0  0  0  0  0  0  0  0
   -3.0146    3.6599    2.5883 C   0  0  0  0  0  0  0  0  0  0  0  0
   -4.2435    4.2358    2.2675 C   0  0  0  0  0  0  0  0  0  0  0  0
   -4.3134    5.4831    1.6787 C   0  0  0  0  0  0  0  0  0  0  0  0
   -3.1507    6.1770    1.3750 C   0  0  0  0  0  0  0  0  0  0  0  0
   -3.1131    7.7771    0.6212 S   0  0  0  0  0  0  0  0  0  0  0  0
   -4.8367    8.0641    0.1296 C   0  0  0  0  0  0  0  0  0  0  0  0
   -1.9203    5.5915    1.6582 C   0  0  0  0  0  0  0  0  0  0  0  0
   -1.8483    4.3505    2.2508 C   0  0  0  0  0  0  0  0  0  0  0  0
   -3.9543    1.9181    4.0376 C   0  0  0  0  0  0  0  0  0  0  0  0
   -4.2048    0.5455    4.0858 C   0  0  0  0  0  0  0  0  0  0  0  0
   -5.2026    0.0473    4.8920 C   0  0  0  0  0  0  0  0  0  0  0  0
   -5.9730    0.9028    5.6751 C   0  0  0  0  0  0  0  0  0  0  0  0
   -7.2271    0.1554    6.6800 S   0  0  0  0  0  0  0  0  0  0  0  0
   -8.3125    1.5470    7.1081 C   0  0  0  0  0  0  0  0  0  0  0  0
   -5.7046    2.2642    5.6621 C   0  0  0  0  0  0  0  0  0  0  0  0
   -4.7036    2.7644    4.8528 C   0  0  0  0  0  0  0  0  0  0  0  0
   -1.4414    0.8699    1.9284 C   0  0  0  0  0  0  0  0  0  0  0  0
   -2.2648    0.4155    0.4778 S   0  0  0  0  0  0  0  0  0  0  0  0
   -0.7284    2.3583    5.2516 C   0  0  0  0  0  0  0  0  0  0  0  0
   -1.5468    2.0202    6.3518 C   0  0  0  0  0  0  0  0  0  0  0  0
   -1.4992    2.7587    7.5759 C   0  0  0  0  0  0  0  0  0  0  0  0
   -2.3575    2.1766    8.4213 N   0  0  0  0  0  0  0  0  0  0  0  0
   -2.8581    1.1838    7.7447 N   0  0  0  0  0  0  0  0  0  0  0  0
   -3.8151    0.2854    8.3279 C   0  0  0  0  0  0  0  0  0  0  0  0
   -4.8238    1.0553    9.1650 C   0  0  0  0  0  0  0  0  0  0  0  0
   -2.4295    1.0264    6.5258 N   0  0  0  0  0  0  0  0  0  0  0  0
   -0.6217    3.8498    7.7813 C   0  0  0  0  0  0  0  0  0  0  0  0
    0.1548    4.1639    6.6832 C   0  0  0  0  0  0  0  0  0  0  0  0
    1.1046    5.2847    6.4821 C   0  0  0  0  0  0  0  0  0  0  0  0
    1.4152    6.1796    7.2343 O   0  0  0  0  0  0  0  0  0  0  0  0
    1.5936    5.1422    5.1988 N   0  0  0  0  0  0  0  0  0  0  0  0
    2.5467    6.0529    4.6025 C   0  0  0  0  0  0  0  0  0  0  0  0
    1.8391    7.1658    3.8376 C   0  0  0  0  0  0  0  0  0  0  0  0
    1.0426    4.0692    4.5216 C   0  0  0  0  0  0  0  0  0  0  0  0
    1.2981    3.7653    3.3822 O   0  0  0  0  0  0  0  0  0  0  0  0
    0.1014    3.4364    5.4715 C   0  0  0  0  0  0  0  0  0  0  0  0
   -0.6231    4.5589    9.0414 C   0  0  0  0  0  0  0  0  0  0  0  0
    0.4885    4.9721    9.6804 C   0  0  0  0  0  0  0  0  0  0  0  0
    1.8838    4.6344    9.2531 C   0  0  0  0  0  0  0  0  0  0  0  0
    2.2258    3.7082    8.5575 O   0  0  0  0  0  0  0  0  0  0  0  0
    2.7422    5.5826    9.9838 C   0  0  0  0  0  0  0  0  0  0  0  0
    4.0993    5.8274    9.8503 C   0  0  0  0  0  0  0  0  0  0  0  0
    5.0285    4.9887    8.6800 Cl  0  0  0  0  0  0  0  0  0  0  0  0
    4.6937    6.7809   10.6730 C   0  0  0  0  0  0  0  0  0  0  0  0
    3.9328    7.4633   11.6074 C   0  0  0  0  0  0  0  0  0  0  0  0
    2.5708    7.2306   11.7506 C   0  0  0  0  0  0  0  0  0  0  0  0
    1.9724    6.2860   10.9318 C   0  0  0  0  0  0  0  0  0  0  0  0
    0.5815    5.8536   10.8336 C   0  0  0  0  0  0  0  0  0  0  0  0
   -0.4364    6.2117   11.6737 C   0  0  0  0  0  0  0  0  0  0  0  0
   -0.2863    7.0684   12.7855 C   0  0  0  0  0  0  0  0  0  0  0  0
   -0.2319    7.7491   13.7080 N   0  0  0  0  0  0  0  0  0  0  0  0
   -1.7658    5.7471   11.5711 C   0  0  0  0  0  0  0  0  0  0  0  0
   -2.8631    5.4101   11.5536 N   0  0  0  0  0  0  0  0  0  0  0  0
   -0.2634   -5.2278   -6.2602 H   0  0  0  0  0  0  0  0  0  0  0  0
    3.7769   -1.4104   -9.1838 H   0  0  0  0  0  0  0  0  0  0  0  0
    1.6843   -5.4538  -11.4033 H   0  0  0  0  0  0  0  0  0  0  0  0
    3.1307   -3.4241  -13.7442 H   0  0  0  0  0  0  0  0  0  0  0  0
    4.7212   -5.5237  -13.3459 H   0  0  0  0  0  0  0  0  0  0  0  0
    5.7572   -4.0414  -15.2525 H   0  0  0  0  0  0  0  0  0  0  0  0
    6.8760   -1.9106  -14.1278 H   0  0  0  0  0  0  0  0  0  0  0  0
    6.5309   -2.0816  -11.5286 H   0  0  0  0  0  0  0  0  0  0  0  0
    6.8444   -4.6635  -12.0193 H   0  0  0  0  0  0  0  0  0  0  0  0
    5.4166   -4.4634  -10.9773 H   0  0  0  0  0  0  0  0  0  0  0  0
    4.2263   -1.3367  -12.6405 H   0  0  0  0  0  0  0  0  0  0  0  0
   -2.1953   -7.4678   -4.8382 H   0  0  0  0  0  0  0  0  0  0  0  0
   -0.9892   -9.5025   -5.4804 H   0  0  0  0  0  0  0  0  0  0  0  0
    1.2703  -10.3874   -6.2888 H   0  0  0  0  0  0  0  0  0  0  0  0
    2.7322   -9.8017   -5.4801 H   0  0  0  0  0  0  0  0  0  0  0  0
    1.5450  -10.7552   -4.5891 H   0  0  0  0  0  0  0  0  0  0  0  0
    2.6984   -7.6911   -4.3320 H   0  0  0  0  0  0  0  0  0  0  0  0
    1.4957   -5.6560   -3.6750 H   0  0  0  0  0  0  0  0  0  0  0  0
   -1.8249   -7.1541   -2.1273 H   0  0  0  0  0  0  0  0  0  0  0  0
   -3.9978   -7.3459   -0.9894 H   0  0  0  0  0  0  0  0  0  0  0  0
   -6.2809   -4.8314   -0.5160 H   0  0  0  0  0  0  0  0  0  0  0  0
   -6.2118   -6.5956   -0.5991 H   0  0  0  0  0  0  0  0  0  0  0  0
   -6.9572   -5.6691   -1.9074 H   0  0  0  0  0  0  0  0  0  0  0  0
   -5.3436   -3.8117   -2.9589 H   0  0  0  0  0  0  0  0  0  0  0  0
   -3.1883   -3.6340   -4.1204 H   0  0  0  0  0  0  0  0  0  0  0  0
    0.8544    2.7163   -1.0033 H   0  0  0  0  0  0  0  0  0  0  0  0
   -0.8126    4.4777   -0.6856 H   0  0  0  0  0  0  0  0  0  0  0  0
   -3.9801    4.6848   -2.5323 H   0  0  0  0  0  0  0  0  0  0  0  0
   -3.9907    4.3449   -0.8000 H   0  0  0  0  0  0  0  0  0  0  0  0
   -2.8717    5.5442   -1.4488 H   0  0  0  0  0  0  0  0  0  0  0  0
   -3.6083    2.2815   -3.0374 H   0  0  0  0  0  0  0  0  0  0  0  0
   -1.9458    0.5132   -3.3647 H   0  0  0  0  0  0  0  0  0  0  0  0
    2.4030   -1.3446   -2.1463 H   0  0  0  0  0  0  0  0  0  0  0  0
    4.7963   -0.9882   -2.5036 H   0  0  0  0  0  0  0  0  0  0  0  0
    6.4561    1.7571   -2.3325 H   0  0  0  0  0  0  0  0  0  0  0  0
    6.5891    0.3800   -3.4305 H   0  0  0  0  0  0  0  0  0  0  0  0
    6.2467    1.9964   -4.0651 H   0  0  0  0  0  0  0  0  0  0  0  0
    4.0122    3.0367   -3.6679 H   0  0  0  0  0  0  0  0  0  0  0  0
    1.6176    2.6738   -3.3470 H   0  0  0  0  0  0  0  0  0  0  0  0
    2.7660   -2.8798   -0.8387 H   0  0  0  0  0  0  0  0  0  0  0  0
    2.3369   -5.2429   -1.3197 H   0  0  0  0  0  0  0  0  0  0  0  0
   -1.7746   -7.1190    0.4951 H   0  0  0  0  0  0  0  0  0  0  0  0
   -0.9912   -8.7152    0.4453 H   0  0  0  0  0  0  0  0  0  0  0  0
   -0.5210   -7.5521    1.7043 H   0  0  0  0  0  0  0  0  0  0  0  0
   -0.9374   -5.2123    1.4293 H   0  0  0  0  0  0  0  0  0  0  0  0
   -0.5161   -2.8688    1.9021 H   0  0  0  0  0  0  0  0  0  0  0  0
    3.6730   -2.3941    1.3482 H   0  0  0  0  0  0  0  0  0  0  0  0
    5.8180   -1.2635    1.2261 H   0  0  0  0  0  0  0  0  0  0  0  0
    7.8926   -0.2326    1.3685 H   0  0  0  0  0  0  0  0  0  0  0  0
    8.6692    0.7724    0.1282 H   0  0  0  0  0  0  0  0  0  0  0  0
    7.4656   -0.4434   -0.3605 H   0  0  0  0  0  0  0  0  0  0  0  0
    3.8427    2.4045    0.2640 H   0  0  0  0  0  0  0  0  0  0  0  0
    1.6795    1.2572    0.3652 H   0  0  0  0  0  0  0  0  0  0  0  0
   -5.1567    3.6979    2.4744 H   0  0  0  0  0  0  0  0  0  0  0  0
   -5.2842    5.8965    1.4554 H   0  0  0  0  0  0  0  0  0  0  0  0
   -5.4657    8.1720    1.0087 H   0  0  0  0  0  0  0  0  0  0  0  0
   -4.8294    8.9933   -0.4316 H   0  0  0  0  0  0  0  0  0  0  0  0
   -5.1777    7.2509   -0.5045 H   0  0  0  0  0  0  0  0  0  0  0  0
   -1.0158    6.1269    1.4109 H   0  0  0  0  0  0  0  0  0  0  0  0
   -0.8817    3.9164    2.4494 H   0  0  0  0  0  0  0  0  0  0  0  0
   -3.6199   -0.1254    3.4767 H   0  0  0  0  0  0  0  0  0  0  0  0
   -5.4063   -1.0125    4.9164 H   0  0  0  0  0  0  0  0  0  0  0  0
   -7.8389    2.1893    7.8453 H   0  0  0  0  0  0  0  0  0  0  0  0
   -9.2069    1.1030    7.5338 H   0  0  0  0  0  0  0  0  0  0  0  0
   -8.5644    2.0996    6.2081 H   0  0  0  0  0  0  0  0  0  0  0  0
   -6.2628    2.9485    6.2822 H   0  0  0  0  0  0  0  0  0  0  0  0
   -4.4917    3.8236    4.8632 H   0  0  0  0  0  0  0  0  0  0  0  0
   -3.2784   -0.4351    8.9538 H   0  0  0  0  0  0  0  0  0  0  0  0
   -4.2923   -0.2462    7.5030 H   0  0  0  0  0  0  0  0  0  0  0  0
   -5.3313    1.7928    8.5499 H   0  0  0  0  0  0  0  0  0  0  0  0
   -5.5605    0.3688    9.5707 H   0  0  0  0  0  0  0  0  0  0  0  0
   -4.3228    1.5712    9.9790 H   0  0  0  0  0  0  0  0  0  0  0  0
    3.1494    6.4675    5.4139 H   0  0  0  0  0  0  0  0  0  0  0  0
    3.1788    5.4697    3.9285 H   0  0  0  0  0  0  0  0  0  0  0  0
    1.2021    7.7385    4.5078 H   0  0  0  0  0  0  0  0  0  0  0  0
    1.2272    6.7437    3.0439 H   0  0  0  0  0  0  0  0  0  0  0  0
    2.5736    7.8334    3.3965 H   0  0  0  0  0  0  0  0  0  0  0  0
   -1.6040    4.7464    9.4580 H   0  0  0  0  0  0  0  0  0  0  0  0
    5.7484    6.9824   10.5733 H   0  0  0  0  0  0  0  0  0  0  0  0
    4.4097    8.1983   12.2377 H   0  0  0  0  0  0  0  0  0  0  0  0
    2.0034    7.7847   12.4800 H   0  0  0  0  0  0  0  0  0  0  0  0
  1  2  2  0  0  0  0
  2  3  1  0  0  0  0
  3  4  2  0  0  0  0
  3  5  1  0  0  0  0
  5  6  2  0  0  0  0
  6  7  1  0  0  0  0
  7  8  2  0  0  0  0
  8  9  1  0  0  0  0
  9 10  2  0  0  0  0
 10 11  1  0  0  0  0
 11 12  2  0  0  0  0
 12 13  1  0  0  0  0
 13 14  3  0  0  0  0
 12 15  1  0  0  0  0
 15 16  3  0  0  0  0
  8 17  1  0  0  0  0
 17 18  1  0  0  0  0
 18 19  1  0  0  0  0
 19 20  2  0  0  0  0
 20 21  1  0  0  0  0
 21 22  1  0  0  0  0
 21 23  1  0  0  0  0
  1 24  1  0  0  0  0
 24 25  2  0  0  0  0
 25 26  1  0  0  0  0
 26 27  1  0  0  0  0
 27 28  2  0  0  0  0
 28 29  1  0  0  0  0
 29 30  2  0  0  0  0
 30 31  1  0  0  0  0
 30 32  1  0  0  0  0
 32 33  2  0  0  0  0
 26 34  1  0  0  0  0
 34 35  2  0  0  0  0
 35 36  1  0  0  0  0
 36 37  2  0  0  0  0
 37 38  1  0  0  0  0
 37 39  1  0  0  0  0
 39 40  2  0  0  0  0
 25 41  1  0  0  0  0
 41 42  1  0  0  0  0
 42 43  1  0  0  0  0
 43 44  2  0  0  0  0
 44 45  1  0  0  0  0
 45 46  1  0  0  0  0
 46 47  2  0  0  0  0
 47 48  1  0  0  0  0
 48 49  2  0  0  0  0
 49 50  1  0  0  0  0
 49 51  1  0  0  0  0
 51 52  2  0  0  0  0
 45 53  1  0  0  0  0
 53 54  2  0  0  0  0
 54 55  1  0  0  0  0
 55 56  2  0  0  0  0
 56 57  1  0  0  0  0
 56 58  1  0  0  0  0
 58 59  2  0  0  0  0
 44 60  1  0  0  0  0
 60 61  1  0  0  0  0
 43 62  1  0  0  0  0
 62 63  2  0  0  0  0
 63 64  1  0  0  0  0
 64 65  1  0  0  0  0
 65 66  2  0  0  0  0
 66 67  1  0  0  0  0
 67 68  2  0  0  0  0
 68 69  1  0  0  0  0
 69 70  1  0  0  0  0
 68 71  1  0  0  0  0
 71 72  2  0  0  0  0
 64 73  1  0  0  0  0
 73 74  2  0  0  0  0
 74 75  1  0  0  0  0
 75 76  2  0  0  0  0
 76 77  1  0  0  0  0
 77 78  1  0  0  0  0
 76 79  1  0  0  0  0
 79 80  2  0  0  0  0
 63 81  1  0  0  0  0
 81 82  1  0  0  0  0
 82 83  1  0  0  0  0
 83 84  2  0  0  0  0
 84 85  1  0  0  0  0
 85 86  1  0  0  0  0
 86 87  2  0  0  0  0
 87 88  1  0  0  0  0
 88 89  2  0  0  0  0
 89 90  1  0  0  0  0
 90 91  1  0  0  0  0
 89 92  1  0  0  0  0
 92 93  2  0  0  0  0
 85 94  1  0  0  0  0
 94 95  2  0  0  0  0
 95 96  1  0  0  0  0
 96 97  2  0  0  0  0
 97 98  1  0  0  0  0
 98 99  1  0  0  0  0
 97100  1  0  0  0  0
100101  2  0  0  0  0
 84102  1  0  0  0  0
102103  1  0  0  0  0
 83104  1  0  0  0  0
104105  1  0  0  0  0
105106  1  0  0  0  0
106107  2  0  0  0  0
107108  1  0  0  0  0
108109  1  0  0  0  0
109110  1  0  0  0  0
108111  1  0  0  0  0
106112  1  0  0  0  0
112113  2  0  0  0  0
113114  1  0  0  0  0
114115  2  0  0  0  0
114116  1  0  0  0  0
116117  1  0  0  0  0
117118  1  0  0  0  0
116119  1  0  0  0  0
119120  2  0  0  0  0
119121  1  0  0  0  0
112122  1  0  0  0  0
122123  2  0  0  0  0
123124  1  0  0  0  0
124125  2  0  0  0  0
124126  1  0  0  0  0
126127  2  0  0  0  0
127128  1  0  0  0  0
127129  1  0  0  0  0
129130  2  0  0  0  0
130131  1  0  0  0  0
131132  2  0  0  0  0
132133  1  0  0  0  0
133134  2  0  0  0  0
134135  1  0  0  0  0
135136  3  0  0  0  0
134137  1  0  0  0  0
137138  3  0  0  0  0
 11  2  1  0  0  0  0
 23 17  1  0  0  0  0
 61 24  1  0  0  0  0
103 62  1  0  0  0  0
121104  2  0  0  0  0
133123  1  0  0  0  0
 10  5  1  0  0  0  0
 22 18  1  0  0  0  0
 33 27  1  0  0  0  0
 40 34  1  0  0  0  0
 60 41  2  0  0  0  0
 72 65  1  0  0  0  0
 80 73  1  0  0  0  0
102 81  2  0  0  0  0
111105  2  0  0  0  0
121113  1  0  0  0  0
132126  1  0  0  0  0
 23  7  1  0  0  0  0
 52 46  1  0  0  0  0
 59 53  1  0  0  0  0
 93 86  1  0  0  0  0
101 94  1  0  0  0  0
  1139  1  0  0  0  0
  6140  1  0  0  0  0
  9141  1  0  0  0  0
 17142  1  0  0  0  0
 18143  1  0  0  0  0
 19144  1  0  0  0  0
 20145  1  0  0  0  0
 21146  1  0  0  0  0
 22147  1  0  0  0  0
 22148  1  0  0  0  0
 23149  1  0  0  0  0
 28150  1  0  0  0  0
 29151  1  0  0  0  0
 31152  1  0  0  0  0
 31153  1  0  0  0  0
 31154  1  0  0  0  0
 32155  1  0  0  0  0
 33156  1  0  0  0  0
 35157  1  0  0  0  0
 36158  1  0  0  0  0
 38159  1  0  0  0  0
 38160  1  0  0  0  0
 38161  1  0  0  0  0
 39162  1  0  0  0  0
 40163  1  0  0  0  0
 47164  1  0  0  0  0
 48165  1  0  0  0  0
 50166  1  0  0  0  0
 50167  1  0  0  0  0
 50168  1  0  0  0  0
 51169  1  0  0  0  0
 52170  1  0  0  0  0
 54171  1  0  0  0  0
 55172  1  0  0  0  0
 57173  1  0  0  0  0
 57174  1  0  0  0  0
 57175  1  0  0  0  0
 58176  1  0  0  0  0
 59177  1  0  0  0  0
 66178  1  0  0  0  0
 67179  1  0  0  0  0
 70180  1  0  0  0  0
 70181  1  0  0  0  0
 70182  1  0  0  0  0
 71183  1  0  0  0  0
 72184  1  0  0  0  0
 74185  1  0  0  0  0
 75186  1  0  0  0  0
 78187  1  0  0  0  0
 78188  1  0  0  0  0
 78189  1  0  0  0  0
 79190  1  0  0  0  0
 80191  1  0  0  0  0
 87192  1  0  0  0  0
 88193  1  0  0  0  0
 91194  1  0  0  0  0
 91195  1  0  0  0  0
 91196  1  0  0  0  0
 92197  1  0  0  0  0
 93198  1  0  0  0  0
 95199  1  0  0  0  0
 96200  1  0  0  0  0
 99201  1  0  0  0  0
 99202  1  0  0  0  0
 99203  1  0  0  0  0
100204  1  0  0  0  0
101205  1  0  0  0  0
109206  1  0  0  0  0
109207  1  0  0  0  0
110208  1  0  0  0  0
110209  1  0  0  0  0
110210  1  0  0  0  0
117211  1  0  0  0  0
117212  1  0  0  0  0
118213  1  0  0  0  0
118214  1  0  0  0  0
118215  1  0  0  0  0
122216  1  0  0  0  0
129217  1  0  0  0  0
130218  1  0  0  0  0
131219  1  0  0  0  0
M  END
