
  xtb     02122210493D
 energy: -268.082619608288 gnorm: 0.000652219153 xtb: 6.4.1 (unknown)
162180  0     0  0            999 V2000
   -5.0141    0.0970    1.7794 C   0  0  0  0  0  0  0  0  0  0  0  0
   -5.6385    1.3019    1.5445 C   0  0  0  0  0  0  0  0  0  0  0  0
   -5.0395    2.6311    1.6771 C   0  0  0  0  0  0  0  0  0  0  0  0
   -3.8834    2.9090    1.9508 O   0  0  0  0  0  0  0  0  0  0  0  0
   -6.1256    3.5996    1.4397 C   0  0  0  0  0  0  0  0  0  0  0  0
   -6.0241    4.9885    1.4347 C   0  0  0  0  0  0  0  0  0  0  0  0
   -7.2060    5.6338    1.1596 C   0  0  0  0  0  0  0  0  0  0  0  0
   -8.4008    4.9474    0.9105 C   0  0  0  0  0  0  0  0  0  0  0  0
   -8.5129    3.5767    0.9092 C   0  0  0  0  0  0  0  0  0  0  0  0
   -7.3216    2.9003    1.1861 C   0  0  0  0  0  0  0  0  0  0  0  0
   -7.0369    1.4650    1.2283 C   0  0  0  0  0  0  0  0  0  0  0  0
   -7.9507    0.4700    0.9718 C   0  0  0  0  0  0  0  0  0  0  0  0
   -7.6580   -0.9009    0.8447 C   0  0  0  0  0  0  0  0  0  0  0  0
   -7.5072   -2.0290    0.6767 N   0  0  0  0  0  0  0  0  0  0  0  0
   -9.3271    0.6852    0.7635 C   0  0  0  0  0  0  0  0  0  0  0  0
  -10.4622    0.7788    0.6103 N   0  0  0  0  0  0  0  0  0  0  0  0
   -9.1843    6.2207    0.7077 C   0  0  0  0  0  0  0  0  0  0  0  0
  -10.0841    6.6738    1.8768 C   0  0  0  0  0  0  0  0  0  0  0  0
  -10.3320    8.1380    1.5944 C   0  0  0  0  0  0  0  0  0  0  0  0
   -9.1998    8.7906    1.8244 C   0  0  0  0  0  0  0  0  0  0  0  0
   -8.1679    7.7786    2.2672 C   0  0  0  0  0  0  0  0  0  0  0  0
   -9.0702    6.7939    3.0219 C   0  0  0  0  0  0  0  0  0  0  0  0
   -7.8504    6.9868    0.9813 C   0  0  0  0  0  0  0  0  0  0  0  0
   -3.6762   -0.1896    2.0428 C   0  0  0  0  0  0  0  0  0  0  0  0
   -3.1919   -1.5072    2.2558 C   0  0  0  0  0  0  0  0  0  0  0  0
   -3.9639   -2.6183    2.4550 N   0  0  0  0  0  0  0  0  0  0  0  0
   -5.1800   -2.5855    3.1629 C   0  0  0  0  0  0  0  0  0  0  0  0
   -6.2202   -3.4345    2.7930 C   0  0  0  0  0  0  0  0  0  0  0  0
   -7.4142   -3.4045    3.4851 C   0  0  0  0  0  0  0  0  0  0  0  0
   -7.6081   -2.5301    4.5479 C   0  0  0  0  0  0  0  0  0  0  0  0
   -8.9262   -2.4833    5.2572 C   0  0  0  0  0  0  0  0  0  0  0  0
   -6.5561   -1.7020    4.9220 C   0  0  0  0  0  0  0  0  0  0  0  0
   -5.3509   -1.7309    4.2492 C   0  0  0  0  0  0  0  0  0  0  0  0
   -3.4659   -3.8686    2.0349 C   0  0  0  0  0  0  0  0  0  0  0  0
   -2.9048   -4.0028    0.7674 C   0  0  0  0  0  0  0  0  0  0  0  0
   -2.4037   -5.2216    0.3595 C   0  0  0  0  0  0  0  0  0  0  0  0
   -2.4545   -6.3332    1.1938 C   0  0  0  0  0  0  0  0  0  0  0  0
   -1.8858   -7.6422    0.7416 C   0  0  0  0  0  0  0  0  0  0  0  0
   -3.0321   -6.1922    2.4493 C   0  0  0  0  0  0  0  0  0  0  0  0
   -3.5328   -4.9764    2.8723 C   0  0  0  0  0  0  0  0  0  0  0  0
   -1.7849   -1.5290    2.2387 C   0  0  0  0  0  0  0  0  0  0  0  0
   -0.5919   -2.7859    2.3610 S   0  0  0  0  0  0  0  0  0  0  0  0
    0.6855   -1.5908    2.2517 C   0  0  0  0  0  0  0  0  0  0  0  0
    0.2096   -0.2987    2.0663 C   0  0  0  0  0  0  0  0  0  0  0  0
    0.9909    0.8045    1.7918 N   0  0  0  0  0  0  0  0  0  0  0  0
    2.1531    0.6942    1.0136 C   0  0  0  0  0  0  0  0  0  0  0  0
    3.2834    1.4476    1.3261 C   0  0  0  0  0  0  0  0  0  0  0  0
    4.4533    1.2694    0.6158 C   0  0  0  0  0  0  0  0  0  0  0  0
    4.5329    0.3481   -0.4237 C   0  0  0  0  0  0  0  0  0  0  0  0
    5.8181    0.1316   -1.1617 C   0  0  0  0  0  0  0  0  0  0  0  0
    3.3883   -0.3593   -0.7648 C   0  0  0  0  0  0  0  0  0  0  0  0
    2.2104   -0.1876   -0.0632 C   0  0  0  0  0  0  0  0  0  0  0  0
    0.5618    2.0609    2.2533 C   0  0  0  0  0  0  0  0  0  0  0  0
    0.6576    3.1842    1.4396 C   0  0  0  0  0  0  0  0  0  0  0  0
    0.1941    4.4040    1.8912 C   0  0  0  0  0  0  0  0  0  0  0  0
   -0.3755    4.5335    3.1510 C   0  0  0  0  0  0  0  0  0  0  0  0
   -0.9251    5.8439    3.6234 C   0  0  0  0  0  0  0  0  0  0  0  0
   -0.4473    3.4086    3.9643 C   0  0  0  0  0  0  0  0  0  0  0  0
    0.0185    2.1856    3.5290 C   0  0  0  0  0  0  0  0  0  0  0  0
   -1.2073   -0.2749    2.0886 C   0  0  0  0  0  0  0  0  0  0  0  0
   -2.3677    0.9950    1.9698 S   0  0  0  0  0  0  0  0  0  0  0  0
    2.0696   -1.9446    2.2696 C   0  0  0  0  0  0  0  0  0  0  0  0
    2.7726   -3.0937    1.1664 S   0  0  0  0  0  0  0  0  0  0  0  0
    4.3928   -2.6164    1.5729 C   0  0  0  0  0  0  0  0  0  0  0  0
    4.3942   -1.6575    2.5805 C   0  0  0  0  0  0  0  0  0  0  0  0
    5.3533   -0.9108    3.3040 C   0  0  0  0  0  0  0  0  0  0  0  0
    4.7777   -0.0454    4.1877 C   0  0  0  0  0  0  0  0  0  0  0  0
    5.4361    0.8854    5.1063 C   0  0  0  0  0  0  0  0  0  0  0  0
    4.8443    1.6487    5.8297 O   0  0  0  0  0  0  0  0  0  0  0  0
    6.7719    0.7906    5.0331 O   0  0  0  0  0  0  0  0  0  0  0  0
    7.5178    1.6381    5.9088 C   0  0  0  0  0  0  0  0  0  0  0  0
    7.6082    1.0516    7.3102 C   0  0  0  0  0  0  0  0  0  0  0  0
    3.0327   -0.0776    4.1931 S   0  0  0  0  0  0  0  0  0  0  0  0
    3.0689   -1.2902    2.9546 C   0  0  0  0  0  0  0  0  0  0  0  0
    5.4118   -3.1021    0.7019 C   0  0  0  0  0  0  0  0  0  0  0  0
    6.7877   -2.8695    0.8509 C   0  0  0  0  0  0  0  0  0  0  0  0
    7.6237   -3.1910   -0.1930 C   0  0  0  0  0  0  0  0  0  0  0  0
    7.0948   -3.7371   -1.3711 C   0  0  0  0  0  0  0  0  0  0  0  0
    5.7286   -4.0792   -1.3433 C   0  0  0  0  0  0  0  0  0  0  0  0
    4.9367   -3.7751   -0.3568 N   0  0  0  0  0  0  0  0  0  0  0  0
    7.9158   -3.9881   -2.5202 C   0  0  0  0  0  0  0  0  0  0  0  0
    7.5158   -3.8057   -3.8061 C   0  0  0  0  0  0  0  0  0  0  0  0
    6.3290   -3.0036   -4.2111 C   0  0  0  0  0  0  0  0  0  0  0  0
    5.5080   -2.4721   -3.4924 O   0  0  0  0  0  0  0  0  0  0  0  0
    6.4058   -2.8901   -5.6769 C   0  0  0  0  0  0  0  0  0  0  0  0
    5.5051   -2.2227   -6.5059 C   0  0  0  0  0  0  0  0  0  0  0  0
    5.8187   -2.2904   -7.8413 C   0  0  0  0  0  0  0  0  0  0  0  0
    6.9505   -2.9655   -8.3201 C   0  0  0  0  0  0  0  0  0  0  0  0
    7.8482   -3.6242   -7.5145 C   0  0  0  0  0  0  0  0  0  0  0  0
    7.5457   -3.5722   -6.1492 C   0  0  0  0  0  0  0  0  0  0  0  0
    8.2479   -4.1560   -5.0112 C   0  0  0  0  0  0  0  0  0  0  0  0
    9.3637   -4.9482   -5.0773 C   0  0  0  0  0  0  0  0  0  0  0  0
   10.0414   -5.2812   -6.2689 C   0  0  0  0  0  0  0  0  0  0  0  0
   10.6466   -5.5836   -7.1966 N   0  0  0  0  0  0  0  0  0  0  0  0
    9.9897   -5.5584   -3.9698 C   0  0  0  0  0  0  0  0  0  0  0  0
   10.5482   -6.0986   -3.1240 N   0  0  0  0  0  0  0  0  0  0  0  0
    6.6464   -2.6215   -9.7568 C   0  0  0  0  0  0  0  0  0  0  0  0
    7.4785   -1.4844  -10.3868 C   0  0  0  0  0  0  0  0  0  0  0  0
    6.6587   -1.0572  -11.5830 C   0  0  0  0  0  0  0  0  0  0  0  0
    5.5861   -0.4204  -11.1306 C   0  0  0  0  0  0  0  0  0  0  0  0
    5.6626   -0.4065   -9.6209 C   0  0  0  0  0  0  0  0  0  0  0  0
    7.1829   -0.3182   -9.4348 C   0  0  0  0  0  0  0  0  0  0  0  0
    5.3836   -1.8716   -9.2234 C   0  0  0  0  0  0  0  0  0  0  0  0
   -5.6510   -0.7771    1.7372 H   0  0  0  0  0  0  0  0  0  0  0  0
   -5.0799    5.4752    1.6228 H   0  0  0  0  0  0  0  0  0  0  0  0
   -9.4384    3.0649    0.7054 H   0  0  0  0  0  0  0  0  0  0  0  0
   -9.6610    6.3350   -0.2641 H   0  0  0  0  0  0  0  0  0  0  0  0
  -10.9592    6.0522    2.0451 H   0  0  0  0  0  0  0  0  0  0  0  0
  -11.2582    8.5273    1.2139 H   0  0  0  0  0  0  0  0  0  0  0  0
   -8.9915    9.8339    1.6744 H   0  0  0  0  0  0  0  0  0  0  0  0
   -7.2978    8.1648    2.7916 H   0  0  0  0  0  0  0  0  0  0  0  0
   -8.5825    5.8563    3.2821 H   0  0  0  0  0  0  0  0  0  0  0  0
   -9.5080    7.2376    3.9147 H   0  0  0  0  0  0  0  0  0  0  0  0
   -7.4367    7.6084    0.1891 H   0  0  0  0  0  0  0  0  0  0  0  0
   -6.0932   -4.1023    1.9558 H   0  0  0  0  0  0  0  0  0  0  0  0
   -8.2176   -4.0576    3.1798 H   0  0  0  0  0  0  0  0  0  0  0  0
   -9.6964   -2.1001    4.5879 H   0  0  0  0  0  0  0  0  0  0  0  0
   -9.2278   -3.4812    5.5711 H   0  0  0  0  0  0  0  0  0  0  0  0
   -8.8777   -1.8398    6.1320 H   0  0  0  0  0  0  0  0  0  0  0  0
   -6.6774   -1.0276    5.7575 H   0  0  0  0  0  0  0  0  0  0  0  0
   -4.5409   -1.0858    4.5569 H   0  0  0  0  0  0  0  0  0  0  0  0
   -2.8720   -3.1485    0.1072 H   0  0  0  0  0  0  0  0  0  0  0  0
   -1.9682   -5.3150   -0.6244 H   0  0  0  0  0  0  0  0  0  0  0  0
   -2.1374   -8.4388    1.4368 H   0  0  0  0  0  0  0  0  0  0  0  0
   -2.2638   -7.9043   -0.2451 H   0  0  0  0  0  0  0  0  0  0  0  0
   -0.8003   -7.5729    0.6739 H   0  0  0  0  0  0  0  0  0  0  0  0
   -3.0846   -7.0440    3.1117 H   0  0  0  0  0  0  0  0  0  0  0  0
   -3.9715   -4.8772    3.8541 H   0  0  0  0  0  0  0  0  0  0  0  0
    3.2406    2.1544    2.1418 H   0  0  0  0  0  0  0  0  0  0  0  0
    5.3282    1.8442    0.8852 H   0  0  0  0  0  0  0  0  0  0  0  0
    6.0876    1.0249   -1.7255 H   0  0  0  0  0  0  0  0  0  0  0  0
    5.7270   -0.7012   -1.8550 H   0  0  0  0  0  0  0  0  0  0  0  0
    6.6283   -0.0778   -0.4636 H   0  0  0  0  0  0  0  0  0  0  0  0
    3.4254   -1.0642   -1.5821 H   0  0  0  0  0  0  0  0  0  0  0  0
    1.3292   -0.7475   -0.3408 H   0  0  0  0  0  0  0  0  0  0  0  0
    1.0846    3.0915    0.4516 H   0  0  0  0  0  0  0  0  0  0  0  0
    0.2641    5.2674    1.2451 H   0  0  0  0  0  0  0  0  0  0  0  0
   -0.6292    6.0394    4.6524 H   0  0  0  0  0  0  0  0  0  0  0  0
   -2.0142    5.8161    3.5879 H   0  0  0  0  0  0  0  0  0  0  0  0
   -0.5817    6.6623    2.9955 H   0  0  0  0  0  0  0  0  0  0  0  0
   -0.8733    3.4937    4.9532 H   0  0  0  0  0  0  0  0  0  0  0  0
   -0.0291    1.3195    4.1729 H   0  0  0  0  0  0  0  0  0  0  0  0
    6.4187   -0.9897    3.1997 H   0  0  0  0  0  0  0  0  0  0  0  0
    8.5049    1.7174    5.4488 H   0  0  0  0  0  0  0  0  0  0  0  0
    7.0392    2.6223    5.9415 H   0  0  0  0  0  0  0  0  0  0  0  0
    8.0286    0.0493    7.2730 H   0  0  0  0  0  0  0  0  0  0  0  0
    8.2428    1.6810    7.9272 H   0  0  0  0  0  0  0  0  0  0  0  0
    6.6181    1.0043    7.7568 H   0  0  0  0  0  0  0  0  0  0  0  0
    7.1748   -2.4298    1.7543 H   0  0  0  0  0  0  0  0  0  0  0  0
    8.6819   -2.9797   -0.1325 H   0  0  0  0  0  0  0  0  0  0  0  0
    5.2873   -4.6477   -2.1501 H   0  0  0  0  0  0  0  0  0  0  0  0
    8.9262   -4.3221   -2.3195 H   0  0  0  0  0  0  0  0  0  0  0  0
    4.6449   -1.7181   -6.0947 H   0  0  0  0  0  0  0  0  0  0  0  0
    8.7129   -4.1392   -7.8981 H   0  0  0  0  0  0  0  0  0  0  0  0
    6.5067   -3.4676  -10.4269 H   0  0  0  0  0  0  0  0  0  0  0  0
    8.5206   -1.7309  -10.5702 H   0  0  0  0  0  0  0  0  0  0  0  0
    6.9070   -1.3026  -12.5988 H   0  0  0  0  0  0  0  0  0  0  0  0
    4.7593   -0.0277  -11.6929 H   0  0  0  0  0  0  0  0  0  0  0  0
    5.0507    0.3295   -9.1064 H   0  0  0  0  0  0  0  0  0  0  0  0
    7.5881    0.6238   -9.8005 H   0  0  0  0  0  0  0  0  0  0  0  0
    7.5153   -0.4845   -8.4117 H   0  0  0  0  0  0  0  0  0  0  0  0
    4.4007   -2.2182   -9.5370 H   0  0  0  0  0  0  0  0  0  0  0  0
  1  2  2  0  0  0  0
  2  3  1  0  0  0  0
  3  4  2  0  0  0  0
  3  5  1  0  0  0  0
  5  6  2  0  0  0  0
  6  7  1  0  0  0  0
  7  8  2  0  0  0  0
  8  9  1  0  0  0  0
  9 10  2  0  0  0  0
 10 11  1  0  0  0  0
 11 12  2  0  0  0  0
 12 13  1  0  0  0  0
 13 14  3  0  0  0  0
 12 15  1  0  0  0  0
 15 16  3  0  0  0  0
  8 17  1  0  0  0  0
 17 18  1  0  0  0  0
 18 19  1  0  0  0  0
 19 20  2  0  0  0  0
 20 21  1  0  0  0  0
 21 22  1  0  0  0  0
 21 23  1  0  0  0  0
  1 24  1  0  0  0  0
 24 25  2  0  0  0  0
 25 26  1  0  0  0  0
 26 27  1  0  0  0  0
 27 28  2  0  0  0  0
 28 29  1  0  0  0  0
 29 30  2  0  0  0  0
 30 31  1  0  0  0  0
 30 32  1  0  0  0  0
 32 33  2  0  0  0  0
 26 34  1  0  0  0  0
 34 35  2  0  0  0  0
 35 36  1  0  0  0  0
 36 37  2  0  0  0  0
 37 38  1  0  0  0  0
 37 39  1  0  0  0  0
 39 40  2  0  0  0  0
 25 41  1  0  0  0  0
 41 42  1  0  0  0  0
 42 43  1  0  0  0  0
 43 44  2  0  0  0  0
 44 45  1  0  0  0  0
 45 46  1  0  0  0  0
 46 47  2  0  0  0  0
 47 48  1  0  0  0  0
 48 49  2  0  0  0  0
 49 50  1  0  0  0  0
 49 51  1  0  0  0  0
 51 52  2  0  0  0  0
 45 53  1  0  0  0  0
 53 54  2  0  0  0  0
 54 55  1  0  0  0  0
 55 56  2  0  0  0  0
 56 57  1  0  0  0  0
 56 58  1  0  0  0  0
 58 59  2  0  0  0  0
 44 60  1  0  0  0  0
 60 61  1  0  0  0  0
 43 62  1  0  0  0  0
 62 63  1  0  0  0  0
 63 64  1  0  0  0  0
 64 65  2  0  0  0  0
 65 66  1  0  0  0  0
 66 67  2  0  0  0  0
 67 68  1  0  0  0  0
 68 69  2  0  0  0  0
 68 70  1  0  0  0  0
 70 71  1  0  0  0  0
 71 72  1  0  0  0  0
 67 73  1  0  0  0  0
 73 74  1  0  0  0  0
 64 75  1  0  0  0  0
 75 76  2  0  0  0  0
 76 77  1  0  0  0  0
 77 78  2  0  0  0  0
 78 79  1  0  0  0  0
 79 80  2  0  0  0  0
 78 81  1  0  0  0  0
 81 82  2  0  0  0  0
 82 83  1  0  0  0  0
 83 84  2  0  0  0  0
 83 85  1  0  0  0  0
 85 86  2  0  0  0  0
 86 87  1  0  0  0  0
 87 88  2  0  0  0  0
 88 89  1  0  0  0  0
 89 90  2  0  0  0  0
 90 91  1  0  0  0  0
 91 92  2  0  0  0  0
 92 93  1  0  0  0  0
 93 94  3  0  0  0  0
 92 95  1  0  0  0  0
 95 96  3  0  0  0  0
 88 97  1  0  0  0  0
 97 98  1  0  0  0  0
 98 99  1  0  0  0  0
 99100  2  0  0  0  0
100101  1  0  0  0  0
101102  1  0  0  0  0
101103  1  0  0  0  0
 11  2  1  0  0  0  0
 23 17  1  0  0  0  0
 61 24  1  0  0  0  0
 74 62  2  0  0  0  0
 80 75  1  0  0  0  0
 91 82  1  0  0  0  0
103 97  1  0  0  0  0
 10  5  1  0  0  0  0
 22 18  1  0  0  0  0
 33 27  1  0  0  0  0
 40 34  1  0  0  0  0
 60 41  2  0  0  0  0
 74 65  1  0  0  0  0
 90 85  1  0  0  0  0
102 98  1  0  0  0  0
 23  7  1  0  0  0  0
 52 46  1  0  0  0  0
 59 53  1  0  0  0  0
103 87  1  0  0  0  0
  1104  1  0  0  0  0
  6105  1  0  0  0  0
  9106  1  0  0  0  0
 17107  1  0  0  0  0
 18108  1  0  0  0  0
 19109  1  0  0  0  0
 20110  1  0  0  0  0
 21111  1  0  0  0  0
 22112  1  0  0  0  0
 22113  1  0  0  0  0
 23114  1  0  0  0  0
 28115  1  0  0  0  0
 29116  1  0  0  0  0
 31117  1  0  0  0  0
 31118  1  0  0  0  0
 31119  1  0  0  0  0
 32120  1  0  0  0  0
 33121  1  0  0  0  0
 35122  1  0  0  0  0
 36123  1  0  0  0  0
 38124  1  0  0  0  0
 38125  1  0  0  0  0
 38126  1  0  0  0  0
 39127  1  0  0  0  0
 40128  1  0  0  0  0
 47129  1  0  0  0  0
 48130  1  0  0  0  0
 50131  1  0  0  0  0
 50132  1  0  0  0  0
 50133  1  0  0  0  0
 51134  1  0  0  0  0
 52135  1  0  0  0  0
 54136  1  0  0  0  0
 55137  1  0  0  0  0
 57138  1  0  0  0  0
 57139  1  0  0  0  0
 57140  1  0  0  0  0
 58141  1  0  0  0  0
 59142  1  0  0  0  0
 66143  1  0  0  0  0
 71144  1  0  0  0  0
 71145  1  0  0  0  0
 72146  1  0  0  0  0
 72147  1  0  0  0  0
 72148  1  0  0  0  0
 76149  1  0  0  0  0
 77150  1  0  0  0  0
 79151  1  0  0  0  0
 81152  1  0  0  0  0
 86153  1  0  0  0  0
 89154  1  0  0  0  0
 97155  1  0  0  0  0
 98156  1  0  0  0  0
 99157  1  0  0  0  0
100158  1  0  0  0  0
101159  1  0  0  0  0
102160  1  0  0  0  0
102161  1  0  0  0  0
103162  1  0  0  0  0
M  END
