139

C          5.13650        1.97590       -3.51740
C          4.83930        1.64320       -4.81940
C          3.54340        1.17560       -5.29000
O          2.49900        1.11400       -4.64810
C          3.71740        0.77990       -6.69460
C          2.76150        0.21830       -7.53810
C          3.22930       -0.06900       -8.79810
C          4.54970        0.18450       -9.19030
C          5.50290        0.73820       -8.36690
C          5.04890        1.03920       -7.08020
C          5.75980        1.61630       -5.93720
C          7.05370        2.07090       -5.95700
C          7.89800        2.03100       -7.08600
N          8.64200        2.03320       -7.96070
C          7.73080        2.66560       -4.87200
N          8.35460        3.16790       -4.04810
C          4.32430       -0.35160      -10.58220
C          4.14980        0.69250      -11.70540
C          3.48350       -0.08370      -12.81850
C          2.23320       -0.32810      -12.44770
C          2.03320        0.27920      -11.07780
C          2.95140        1.50260      -11.19430
C          2.85190       -0.63690      -10.14400
C          4.32340        1.97950       -2.37810
C          4.85130        2.27780       -1.11300
C          3.97620        2.21530       -0.05220
C          2.66400        1.88610       -0.39140
Se         2.47600        1.62050       -2.23900
C          1.63410        1.62120        0.53300
C          0.30850        1.30170        0.24130
N         -0.26440        1.42370       -1.01570
C         -1.19390        0.43250       -1.38370
C         -2.44760        0.75680       -1.88930
C         -3.34710       -0.23630       -2.22500
C         -3.00870       -1.57150       -2.04940
S         -4.07180       -2.92330       -2.43710
C         -5.60710       -2.13070       -2.99420
C         -1.75250       -1.89880       -1.53970
C         -0.85410       -0.90950       -1.21310
C         -0.24520        2.65590       -1.68520
C         -0.06050        3.85280       -0.99970
C         -0.02080        5.05660       -1.67770
C         -0.17300        5.08520       -3.05690
S         -0.14810        6.55690       -4.02850
C          0.25460        7.86580       -2.83660
C         -0.36270        3.88850       -3.74830
C         -0.39010        2.68910       -3.07690
C         -0.37200        0.84160        1.38820
S         -1.98530        0.30050        1.67790
C         -1.60660        0.05130        3.37500
C         -0.31470        0.46290        3.70940
N          0.18350        0.59200        4.98430
C          1.56210        0.44410        5.20230
C          2.22360        1.29150        6.08510
C          3.58310        1.16740        6.29250
C          4.30320        0.19240        5.61360
S          6.04130       -0.05030        5.77720
C          6.55470        1.21680        6.97160
C          3.63820       -0.66900        4.74150
C          2.28220       -0.54980        4.53960
C         -0.67190        0.80350        6.07550
C         -1.78350        1.63380        5.95590
C         -2.71660        1.71550        6.97050
C         -2.55010        0.96780        8.12990
S         -3.73580        0.88820        9.43090
C         -5.20850        1.67780        8.71920
C         -1.38470        0.21990        8.29540
C         -0.45160        0.14300        7.28570
C          0.38610        0.87440        2.55050
S          1.98400        1.47170        2.25420
C         -2.58140       -0.52210        4.25350
C         -3.92860       -0.19960        4.24080
F         -4.39120        0.67970        3.33410
C         -4.84640       -0.67130        5.19670
F         -6.10200       -0.19940        5.11780
C         -4.53150       -1.57030        6.20110
C         -3.17230       -1.97560        6.21200
C         -2.22280       -1.46350        5.25790
N         -1.05930       -2.01940        5.52810
O         -1.26010       -2.80020        6.58500
N         -2.51230       -2.77900        7.02110
C         -5.50050       -2.01490        7.16670
C         -5.57530       -3.25170        7.69750
C         -4.87930       -4.48950        7.26930
O         -4.21960       -4.65590        6.26880
C         -5.28500       -5.52400        8.24920
C         -4.87220       -6.84040        8.34660
C         -5.42160       -7.62760        9.34950
C         -6.36650       -7.11160       10.22720
C         -6.78650       -5.79190       10.13080
C         -6.23780       -5.00290        9.13570
C         -6.50570       -3.58480        8.80810
O         -7.29900       -2.83860        9.33340
H          6.16560        2.24880       -3.30990
H          1.75670        0.03380       -7.19190
H          6.51700        0.91580       -8.68320
H          4.95300       -1.19020      -10.87540
H          5.05260        1.23990      -11.96200
H          3.98980       -0.41270      -13.70700
H          1.48650       -0.90210      -12.96440
H          1.00700        0.45030      -10.76340
H          2.59300        2.21710      -11.93340
H          3.13110        2.01410      -10.25050
H          2.50020       -1.66710      -10.14170
H          5.89320        2.52860       -0.99470
H          4.26880        2.40010        0.96930
H         -2.72470        1.79300       -2.01340
H         -4.31170        0.04870       -2.61210
H         -6.29150       -2.94430       -3.21320
H         -5.42330       -1.55220       -3.89490
H         -6.01330       -1.51130       -2.20000
H         -1.49340       -2.93820       -1.41020
H          0.12340       -1.16370       -0.82960
H          0.04390        3.84890        0.07550
H          0.12270        5.96350       -1.11270
H          0.32410        8.77900       -3.41950
H         -0.53870        7.96010       -2.10080
H          1.21020        7.65510       -2.36560
H         -0.47070        3.91460       -4.82140
H         -0.51060        1.76370       -3.61890
H          1.66760        2.05570        6.60800
H          4.06710        1.84230        6.97940
H          6.06020        1.05250        7.92460
H          6.34140        2.20660        6.57890
H          7.62660        1.09020        7.08700
H          4.20090       -1.43590        4.23230
H          1.76510       -1.23350        3.88410
H         -1.92970        2.20660        5.05200
H         -3.57060        2.36050        6.84190
H         -6.01460        1.47030        9.41600
H         -5.43390        1.23850        7.75250
H         -5.05970        2.75080        8.63800
H         -1.23910       -0.32760        9.21360
H          0.42850       -0.47000        7.40530
H         -6.24430       -1.29130        7.48600
H         -4.13870       -7.23210        7.65890
H         -5.11190       -8.65740        9.44930
H         -6.78100       -7.74840       10.99470
H         -7.52250       -5.38390       10.80650
