
  xtb     02122222063D
 energy: -408.033727044418 gnorm: 0.000508029850 xtb: 6.4.1 (unknown)
256279  0     0  0            999 V2000
    7.2820    2.7667    3.6878 C   0  0  0  0  0  0  0  0  0  0  0  0
    8.2043    3.4066    2.8875 C   0  0  0  0  0  0  0  0  0  0  0  0
    8.3029    3.2176    1.4323 C   0  0  0  0  0  0  0  0  0  0  0  0
    7.5870    2.5346    0.7219 O   0  0  0  0  0  0  0  0  0  0  0  0
    9.5329    3.9252    1.0185 C   0  0  0  0  0  0  0  0  0  0  0  0
   10.0607    4.0076   -0.2656 C   0  0  0  0  0  0  0  0  0  0  0  0
   11.2245    4.7355   -0.3472 C   0  0  0  0  0  0  0  0  0  0  0  0
   11.8244    5.3299    0.7688 C   0  0  0  0  0  0  0  0  0  0  0  0
   11.3132    5.2538    2.0436 C   0  0  0  0  0  0  0  0  0  0  0  0
   10.1278    4.5239    2.1454 C   0  0  0  0  0  0  0  0  0  0  0  0
    9.2954    4.2367    3.3125 C   0  0  0  0  0  0  0  0  0  0  0  0
    9.4367    4.7949    4.5604 C   0  0  0  0  0  0  0  0  0  0  0  0
    8.5416    4.5841    5.6275 C   0  0  0  0  0  0  0  0  0  0  0  0
    7.8443    4.4812    6.5351 N   0  0  0  0  0  0  0  0  0  0  0  0
   10.4482    5.7058    4.9134 C   0  0  0  0  0  0  0  0  0  0  0  0
   11.2360    6.4692    5.2566 N   0  0  0  0  0  0  0  0  0  0  0  0
   12.9731    5.8792   -0.0405 C   0  0  0  0  0  0  0  0  0  0  0  0
   14.3335    5.1442    0.0445 C   0  0  0  0  0  0  0  0  0  0  0  0
   14.0255    3.7091    0.3924 C   0  0  0  0  0  0  0  0  0  0  0  0
   13.4554    3.1492   -0.6662 C   0  0  0  0  0  0  0  0  0  0  0  0
   13.3677    4.1960   -1.7490 C   0  0  0  0  0  0  0  0  0  0  0  0
   14.6447    4.9986   -1.4537 C   0  0  0  0  0  0  0  0  0  0  0  0
   12.3016    5.2197   -1.2863 C   0  0  0  0  0  0  0  0  0  0  0  0
    6.0444    2.2753    3.2688 C   0  0  0  0  0  0  0  0  0  0  0  0
    5.2215    2.6406    2.1837 C   0  0  0  0  0  0  0  0  0  0  0  0
    5.3500    3.7507    1.4020 N   0  0  0  0  0  0  0  0  0  0  0  0
    4.6897    3.8119    0.1584 C   0  0  0  0  0  0  0  0  0  0  0  0
    3.9399    4.9368   -0.1744 C   0  0  0  0  0  0  0  0  0  0  0  0
    3.2454    4.9748   -1.3671 C   0  0  0  0  0  0  0  0  0  0  0  0
    3.2887    3.9074   -2.2579 C   0  0  0  0  0  0  0  0  0  0  0  0
    2.5308    3.9646   -3.5477 C   0  0  0  0  0  0  0  0  0  0  0  0
    4.0771    2.8097   -1.9348 C   0  0  0  0  0  0  0  0  0  0  0  0
    4.7740    2.7550   -0.7425 C   0  0  0  0  0  0  0  0  0  0  0  0
    6.0325    4.8971    1.8410 C   0  0  0  0  0  0  0  0  0  0  0  0
    5.8954    5.3636    3.1472 C   0  0  0  0  0  0  0  0  0  0  0  0
    6.6081    6.4678    3.5644 C   0  0  0  0  0  0  0  0  0  0  0  0
    7.4729    7.1370    2.7011 C   0  0  0  0  0  0  0  0  0  0  0  0
    8.2868    8.2951    3.1859 C   0  0  0  0  0  0  0  0  0  0  0  0
    7.5672    6.6925    1.3888 C   0  0  0  0  0  0  0  0  0  0  0  0
    6.8541    5.5901    0.9557 C   0  0  0  0  0  0  0  0  0  0  0  0
    4.0946    1.7895    2.1198 C   0  0  0  0  0  0  0  0  0  0  0  0
    2.7641    1.6712    1.0349 S   0  0  0  0  0  0  0  0  0  0  0  0
    1.9568    0.5215    2.1005 C   0  0  0  0  0  0  0  0  0  0  0  0
    2.7534    0.1578    3.1765 C   0  0  0  0  0  0  0  0  0  0  0  0
    2.4108   -0.7415    4.1743 N   0  0  0  0  0  0  0  0  0  0  0  0
    1.9170   -2.0132    3.8408 C   0  0  0  0  0  0  0  0  0  0  0  0
    0.9184   -2.6009    4.6168 C   0  0  0  0  0  0  0  0  0  0  0  0
    0.4388   -3.8517    4.2945 C   0  0  0  0  0  0  0  0  0  0  0  0
    0.9389   -4.5559    3.2021 C   0  0  0  0  0  0  0  0  0  0  0  0
    0.4145   -5.9234    2.8902 C   0  0  0  0  0  0  0  0  0  0  0  0
    1.9360   -3.9669    2.4387 C   0  0  0  0  0  0  0  0  0  0  0  0
    2.4248   -2.7101    2.7483 C   0  0  0  0  0  0  0  0  0  0  0  0
    2.8005   -0.4711    5.4945 C   0  0  0  0  0  0  0  0  0  0  0  0
    3.2187   -1.4917    6.3437 C   0  0  0  0  0  0  0  0  0  0  0  0
    3.6178   -1.2036    7.6344 C   0  0  0  0  0  0  0  0  0  0  0  0
    3.6314    0.1005    8.1103 C   0  0  0  0  0  0  0  0  0  0  0  0
    4.0912    0.4246    9.4982 C   0  0  0  0  0  0  0  0  0  0  0  0
    3.2118    1.1139    7.2563 C   0  0  0  0  0  0  0  0  0  0  0  0
    2.7901    0.8386    5.9721 C   0  0  0  0  0  0  0  0  0  0  0  0
    3.9656    0.8993    3.1748 C   0  0  0  0  0  0  0  0  0  0  0  0
    5.2983    1.0139    4.2641 S   0  0  0  0  0  0  0  0  0  0  0  0
    0.6239    0.1847    1.7020 C   0  0  0  0  0  0  0  0  0  0  0  0
   -0.2602    1.1028    1.1459 C   0  0  0  0  0  0  0  0  0  0  0  0
   -0.0681    2.4810    1.0889 N   0  0  0  0  0  0  0  0  0  0  0  0
    0.4631    3.1712    2.1834 C   0  0  0  0  0  0  0  0  0  0  0  0
    1.3401    4.2395    1.9832 C   0  0  0  0  0  0  0  0  0  0  0  0
    1.9402    4.8544    3.0575 C   0  0  0  0  0  0  0  0  0  0  0  0
    1.6680    4.4337    4.3581 C   0  0  0  0  0  0  0  0  0  0  0  0
    2.5571    5.2375    5.6563 S   0  0  0  0  0  0  0  0  0  0  0  0
    1.5631    4.8755    7.1324 C   0  0  0  0  0  0  0  0  0  0  0  0
    0.7643    3.3999    4.5636 C   0  0  0  0  0  0  0  0  0  0  0  0
    0.1743    2.7705    3.4838 C   0  0  0  0  0  0  0  0  0  0  0  0
   -0.4177    3.1308   -0.0952 C   0  0  0  0  0  0  0  0  0  0  0  0
   -0.9785    4.4075   -0.0731 C   0  0  0  0  0  0  0  0  0  0  0  0
   -1.4269    4.9850   -1.2426 C   0  0  0  0  0  0  0  0  0  0  0  0
   -1.3379    4.2891   -2.4386 C   0  0  0  0  0  0  0  0  0  0  0  0
   -2.0567    4.9782   -3.9201 S   0  0  0  0  0  0  0  0  0  0  0  0
   -3.7742    4.4778   -3.5890 C   0  0  0  0  0  0  0  0  0  0  0  0
   -0.7367    3.0422   -2.4802 C   0  0  0  0  0  0  0  0  0  0  0  0
   -0.2642    2.4731   -1.3167 C   0  0  0  0  0  0  0  0  0  0  0  0
   -1.4048    0.4646    0.6217 C   0  0  0  0  0  0  0  0  0  0  0  0
   -2.7787    0.9791   -0.2916 S   0  0  0  0  0  0  0  0  0  0  0  0
   -3.2963   -0.6889   -0.5082 C   0  0  0  0  0  0  0  0  0  0  0  0
   -2.4698   -1.5786    0.1456 C   0  0  0  0  0  0  0  0  0  0  0  0
   -2.5500   -2.9865    0.0690 N   0  0  0  0  0  0  0  0  0  0  0  0
   -1.7302   -3.5459   -0.9375 C   0  0  0  0  0  0  0  0  0  0  0  0
   -0.7416   -4.4780   -0.6354 C   0  0  0  0  0  0  0  0  0  0  0  0
    0.0519   -5.0206   -1.6277 C   0  0  0  0  0  0  0  0  0  0  0  0
   -0.1147   -4.6262   -2.9478 C   0  0  0  0  0  0  0  0  0  0  0  0
    0.8282   -5.2514   -4.3051 S   0  0  0  0  0  0  0  0  0  0  0  0
    1.9722   -6.4331   -3.5386 C   0  0  0  0  0  0  0  0  0  0  0  0
   -1.0757   -3.6652   -3.2515 C   0  0  0  0  0  0  0  0  0  0  0  0
   -1.8700   -3.1292   -2.2617 C   0  0  0  0  0  0  0  0  0  0  0  0
   -2.7963   -3.7011    1.2434 C   0  0  0  0  0  0  0  0  0  0  0  0
   -2.8712   -3.0820    2.4875 C   0  0  0  0  0  0  0  0  0  0  0  0
   -3.1282   -3.8117    3.6315 C   0  0  0  0  0  0  0  0  0  0  0  0
   -3.3394   -5.1782    3.5553 C   0  0  0  0  0  0  0  0  0  0  0  0
   -3.6543   -6.2117    4.9564 S   0  0  0  0  0  0  0  0  0  0  0  0
   -4.0000   -5.0261    6.2877 C   0  0  0  0  0  0  0  0  0  0  0  0
   -3.3049   -5.8016    2.3096 C   0  0  0  0  0  0  0  0  0  0  0  0
   -3.0415   -5.0757    1.1710 C   0  0  0  0  0  0  0  0  0  0  0  0
   -1.3992   -0.9103    0.7804 C   0  0  0  0  0  0  0  0  0  0  0  0
   -0.0012   -1.4562    1.6357 S   0  0  0  0  0  0  0  0  0  0  0  0
   -4.3125   -0.9396   -1.4807 C   0  0  0  0  0  0  0  0  0  0  0  0
   -5.2289   -1.9734   -1.6058 C   0  0  0  0  0  0  0  0  0  0  0  0
   -5.5635   -2.9177   -0.6545 N   0  0  0  0  0  0  0  0  0  0  0  0
   -5.9713   -4.1742   -1.1697 C   0  0  0  0  0  0  0  0  0  0  0  0
   -5.0980   -4.8926   -1.9772 C   0  0  0  0  0  0  0  0  0  0  0  0
   -5.4968   -6.0963   -2.5272 C   0  0  0  0  0  0  0  0  0  0  0  0
   -6.7647   -6.6070   -2.2862 C   0  0  0  0  0  0  0  0  0  0  0  0
   -7.1983   -7.9165   -2.8687 C   0  0  0  0  0  0  0  0  0  0  0  0
   -7.6293   -5.8807   -1.4747 C   0  0  0  0  0  0  0  0  0  0  0  0
   -7.2449   -4.6767   -0.9227 C   0  0  0  0  0  0  0  0  0  0  0  0
   -5.7584   -2.6275    0.6959 C   0  0  0  0  0  0  0  0  0  0  0  0
   -5.8295   -1.3201    1.1738 C   0  0  0  0  0  0  0  0  0  0  0  0
   -6.0360   -1.0750    2.5168 C   0  0  0  0  0  0  0  0  0  0  0  0
   -6.2021   -2.1114    3.4260 C   0  0  0  0  0  0  0  0  0  0  0  0
   -6.4163   -1.8285    4.8826 C   0  0  0  0  0  0  0  0  0  0  0  0
   -6.1518   -3.4120    2.9421 C   0  0  0  0  0  0  0  0  0  0  0  0
   -5.9247   -3.6715    1.6069 C   0  0  0  0  0  0  0  0  0  0  0  0
   -5.8380   -1.9476   -2.8903 C   0  0  0  0  0  0  0  0  0  0  0  0
   -7.0044   -2.9529   -3.6694 S   0  0  0  0  0  0  0  0  0  0  0  0
   -6.9135   -1.9566   -5.1223 C   0  0  0  0  0  0  0  0  0  0  0  0
   -6.0472   -0.8520   -4.9568 C   0  0  0  0  0  0  0  0  0  0  0  0
   -5.7999    0.1208   -5.8955 N   0  0  0  0  0  0  0  0  0  0  0  0
   -4.5151    0.6877   -5.9844 C   0  0  0  0  0  0  0  0  0  0  0  0
   -4.3569    2.0456   -6.2514 C   0  0  0  0  0  0  0  0  0  0  0  0
   -3.0928    2.5869   -6.3643 C   0  0  0  0  0  0  0  0  0  0  0  0
   -1.9560    1.8032   -6.1950 C   0  0  0  0  0  0  0  0  0  0  0  0
   -0.5951    2.4109   -6.3357 C   0  0  0  0  0  0  0  0  0  0  0  0
   -2.1227    0.4522   -5.9193 C   0  0  0  0  0  0  0  0  0  0  0  0
   -3.3827   -0.1068   -5.8256 C   0  0  0  0  0  0  0  0  0  0  0  0
   -6.8285    0.6182   -6.7173 C   0  0  0  0  0  0  0  0  0  0  0  0
   -8.1043    0.8284   -6.1999 C   0  0  0  0  0  0  0  0  0  0  0  0
   -9.1144    1.2931   -7.0181 C   0  0  0  0  0  0  0  0  0  0  0  0
   -8.8814    1.5727   -8.3598 C   0  0  0  0  0  0  0  0  0  0  0  0
   -9.9859    2.0445   -9.2529 C   0  0  0  0  0  0  0  0  0  0  0  0
   -7.5984    1.3816   -8.8607 C   0  0  0  0  0  0  0  0  0  0  0  0
   -6.5805    0.9095   -8.0564 C   0  0  0  0  0  0  0  0  0  0  0  0
   -5.4342   -0.8891   -3.6930 C   0  0  0  0  0  0  0  0  0  0  0  0
   -4.2977    0.1341   -2.8825 S   0  0  0  0  0  0  0  0  0  0  0  0
   -7.5498   -2.2770   -6.3252 C   0  0  0  0  0  0  0  0  0  0  0  0
   -8.3838   -3.3155   -6.6367 C   0  0  0  0  0  0  0  0  0  0  0  0
   -9.0180   -3.4648   -8.2716 S   0  0  0  0  0  0  0  0  0  0  0  0
   -9.8967   -4.9119   -7.8455 C   0  0  0  0  0  0  0  0  0  0  0  0
  -10.6728   -5.5538   -8.7811 C   0  0  0  0  0  0  0  0  0  0  0  0
  -10.7531   -5.0276  -10.0861 C   0  0  0  0  0  0  0  0  0  0  0  0
  -10.8264   -4.6068  -11.1512 N   0  0  0  0  0  0  0  0  0  0  0  0
  -11.4324   -6.7177   -8.5851 C   0  0  0  0  0  0  0  0  0  0  0  0
  -12.0710   -7.6692   -8.4960 N   0  0  0  0  0  0  0  0  0  0  0  0
   -9.7021   -5.2372   -6.5418 N   0  0  0  0  0  0  0  0  0  0  0  0
  -10.2303   -6.4207   -5.8909 C   0  0  0  0  0  0  0  0  0  0  0  0
   -9.3816   -7.6490   -6.1984 C   0  0  0  0  0  0  0  0  0  0  0  0
   -8.8769   -4.3869   -5.8105 C   0  0  0  0  0  0  0  0  0  0  0  0
   -8.6524   -4.5753   -4.6274 O   0  0  0  0  0  0  0  0  0  0  0  0
    7.5342    2.5820    4.7250 H   0  0  0  0  0  0  0  0  0  0  0  0
    9.5689    3.5318   -1.1000 H   0  0  0  0  0  0  0  0  0  0  0  0
   11.7903    5.7082    2.8963 H   0  0  0  0  0  0  0  0  0  0  0  0
   13.0869    6.9617   -0.0359 H   0  0  0  0  0  0  0  0  0  0  0  0
   15.0760    5.6395    0.6646 H   0  0  0  0  0  0  0  0  0  0  0  0
   14.1949    3.2783    1.3618 H   0  0  0  0  0  0  0  0  0  0  0  0
   13.0529    2.1573   -0.7574 H   0  0  0  0  0  0  0  0  0  0  0  0
   13.2311    3.8280   -2.7627 H   0  0  0  0  0  0  0  0  0  0  0  0
   14.6909    5.9503   -1.9817 H   0  0  0  0  0  0  0  0  0  0  0  0
   15.5536    4.4290   -1.6422 H   0  0  0  0  0  0  0  0  0  0  0  0
   11.9757    5.8726   -2.0941 H   0  0  0  0  0  0  0  0  0  0  0  0
    3.8973    5.7704    0.5117 H   0  0  0  0  0  0  0  0  0  0  0  0
    2.6489    5.8430   -1.6090 H   0  0  0  0  0  0  0  0  0  0  0  0
    3.0966    4.5298   -4.2889 H   0  0  0  0  0  0  0  0  0  0  0  0
    2.3600    2.9661   -3.9411 H   0  0  0  0  0  0  0  0  0  0  0  0
    1.5714    4.4590   -3.4107 H   0  0  0  0  0  0  0  0  0  0  0  0
    4.1475    1.9829   -2.6264 H   0  0  0  0  0  0  0  0  0  0  0  0
    5.4058    1.9136   -0.5040 H   0  0  0  0  0  0  0  0  0  0  0  0
    5.2300    4.8628    3.8348 H   0  0  0  0  0  0  0  0  0  0  0  0
    6.4946    6.8133    4.5812 H   0  0  0  0  0  0  0  0  0  0  0  0
    7.7228    8.8924    3.8986 H   0  0  0  0  0  0  0  0  0  0  0  0
    9.1840    7.9359    3.6921 H   0  0  0  0  0  0  0  0  0  0  0  0
    8.5981    8.9269    2.3578 H   0  0  0  0  0  0  0  0  0  0  0  0
    8.2182    7.2059    0.6961 H   0  0  0  0  0  0  0  0  0  0  0  0
    6.9363    5.2519   -0.0664 H   0  0  0  0  0  0  0  0  0  0  0  0
    0.5271   -2.0630    5.4679 H   0  0  0  0  0  0  0  0  0  0  0  0
   -0.3399   -4.2989    4.8945 H   0  0  0  0  0  0  0  0  0  0  0  0
   -0.6682   -5.8994    2.7705 H   0  0  0  0  0  0  0  0  0  0  0  0
    0.8627   -6.3174    1.9812 H   0  0  0  0  0  0  0  0  0  0  0  0
    0.6381   -6.6077    3.7082 H   0  0  0  0  0  0  0  0  0  0  0  0
    2.3442   -4.4958    1.5895 H   0  0  0  0  0  0  0  0  0  0  0  0
    3.2058   -2.2652    2.1490 H   0  0  0  0  0  0  0  0  0  0  0  0
    3.2430   -2.5101    5.9854 H   0  0  0  0  0  0  0  0  0  0  0  0
    3.9434   -2.0096    8.2760 H   0  0  0  0  0  0  0  0  0  0  0  0
    4.9357    1.1116    9.4638 H   0  0  0  0  0  0  0  0  0  0  0  0
    3.2938    0.9072   10.0629 H   0  0  0  0  0  0  0  0  0  0  0  0
    4.3956   -0.4744   10.0278 H   0  0  0  0  0  0  0  0  0  0  0  0
    3.2300    2.1364    7.6047 H   0  0  0  0  0  0  0  0  0  0  0  0
    2.4611    1.6367    5.3226 H   0  0  0  0  0  0  0  0  0  0  0  0
    1.5681    4.5564    0.9771 H   0  0  0  0  0  0  0  0  0  0  0  0
    2.6390    5.6627    2.9045 H   0  0  0  0  0  0  0  0  0  0  0  0
    1.9849    5.4846    7.9257 H   0  0  0  0  0  0  0  0  0  0  0  0
    1.6390    3.8247    7.3965 H   0  0  0  0  0  0  0  0  0  0  0  0
    0.5307    5.1605    6.9523 H   0  0  0  0  0  0  0  0  0  0  0  0
    0.5120    3.0711    5.5593 H   0  0  0  0  0  0  0  0  0  0  0  0
   -0.5113    1.9530    3.6525 H   0  0  0  0  0  0  0  0  0  0  0  0
   -1.0831    4.9297    0.8661 H   0  0  0  0  0  0  0  0  0  0  0  0
   -1.8738    5.9678   -1.2273 H   0  0  0  0  0  0  0  0  0  0  0  0
   -4.0984    4.9130   -2.6482 H   0  0  0  0  0  0  0  0  0  0  0  0
   -4.3773    4.8564   -4.4070 H   0  0  0  0  0  0  0  0  0  0  0  0
   -3.8273    3.3931   -3.5499 H   0  0  0  0  0  0  0  0  0  0  0  0
   -0.6553    2.5172   -3.4186 H   0  0  0  0  0  0  0  0  0  0  0  0
    0.2140    1.5055   -1.3438 H   0  0  0  0  0  0  0  0  0  0  0  0
   -0.5826   -4.7716    0.3905 H   0  0  0  0  0  0  0  0  0  0  0  0
    0.8050   -5.7412   -1.3517 H   0  0  0  0  0  0  0  0  0  0  0  0
    2.6194   -5.9199   -2.8332 H   0  0  0  0  0  0  0  0  0  0  0  0
    2.5641   -6.8367   -4.3543 H   0  0  0  0  0  0  0  0  0  0  0  0
    1.4154   -7.2320   -3.0574 H   0  0  0  0  0  0  0  0  0  0  0  0
   -1.1936   -3.3461   -4.2759 H   0  0  0  0  0  0  0  0  0  0  0  0
   -2.6007   -2.3790   -2.5175 H   0  0  0  0  0  0  0  0  0  0  0  0
   -2.7400   -2.0161    2.5790 H   0  0  0  0  0  0  0  0  0  0  0  0
   -3.1575   -3.2933    4.5759 H   0  0  0  0  0  0  0  0  0  0  0  0
   -4.7728   -4.3340    5.9673 H   0  0  0  0  0  0  0  0  0  0  0  0
   -3.0930   -4.4988    6.5701 H   0  0  0  0  0  0  0  0  0  0  0  0
   -4.3540   -5.6190    7.1254 H   0  0  0  0  0  0  0  0  0  0  0  0
   -3.4945   -6.8627    2.2467 H   0  0  0  0  0  0  0  0  0  0  0  0
   -3.0373   -5.5684    0.2105 H   0  0  0  0  0  0  0  0  0  0  0  0
   -4.1121   -4.4990   -2.1785 H   0  0  0  0  0  0  0  0  0  0  0  0
   -4.8091   -6.6428   -3.1569 H   0  0  0  0  0  0  0  0  0  0  0  0
   -7.1457   -8.6994   -2.1113 H   0  0  0  0  0  0  0  0  0  0  0  0
   -8.2275   -7.8559   -3.2148 H   0  0  0  0  0  0  0  0  0  0  0  0
   -6.5597   -8.2051   -3.6998 H   0  0  0  0  0  0  0  0  0  0  0  0
   -8.6238   -6.2575   -1.2868 H   0  0  0  0  0  0  0  0  0  0  0  0
   -7.9302   -4.1115   -0.3085 H   0  0  0  0  0  0  0  0  0  0  0  0
   -5.7493   -0.4852    0.4955 H   0  0  0  0  0  0  0  0  0  0  0  0
   -6.0843   -0.0515    2.8614 H   0  0  0  0  0  0  0  0  0  0  0  0
   -6.8890   -2.6744    5.3769 H   0  0  0  0  0  0  0  0  0  0  0  0
   -5.4616   -1.6330    5.3740 H   0  0  0  0  0  0  0  0  0  0  0  0
   -7.0438   -0.9499    5.0179 H   0  0  0  0  0  0  0  0  0  0  0  0
   -6.2930   -4.2434    3.6177 H   0  0  0  0  0  0  0  0  0  0  0  0
   -5.8744   -4.6936    1.2670 H   0  0  0  0  0  0  0  0  0  0  0  0
   -5.2304    2.6699   -6.3700 H   0  0  0  0  0  0  0  0  0  0  0  0
   -2.9799    3.6399   -6.5745 H   0  0  0  0  0  0  0  0  0  0  0  0
    0.1698    1.7618   -5.9157 H   0  0  0  0  0  0  0  0  0  0  0  0
   -0.5570    3.3806   -5.8427 H   0  0  0  0  0  0  0  0  0  0  0  0
   -0.3655    2.5668   -7.3901 H   0  0  0  0  0  0  0  0  0  0  0  0
   -1.2554   -0.1789   -5.7880 H   0  0  0  0  0  0  0  0  0  0  0  0
   -3.4941   -1.1651   -5.6385 H   0  0  0  0  0  0  0  0  0  0  0  0
   -8.2975    0.6179   -5.1583 H   0  0  0  0  0  0  0  0  0  0  0  0
  -10.1004    1.4475   -6.6048 H   0  0  0  0  0  0  0  0  0  0  0  0
  -10.7885    2.4963   -8.6753 H   0  0  0  0  0  0  0  0  0  0  0  0
   -9.6172    2.7691   -9.9755 H   0  0  0  0  0  0  0  0  0  0  0  0
  -10.3995    1.2010   -9.8068 H   0  0  0  0  0  0  0  0  0  0  0  0
   -7.3958    1.5958   -9.8997 H   0  0  0  0  0  0  0  0  0  0  0  0
   -5.5908    0.7546   -8.4601 H   0  0  0  0  0  0  0  0  0  0  0  0
   -7.3356   -1.6075   -7.1495 H   0  0  0  0  0  0  0  0  0  0  0  0
  -10.1974   -6.2045   -4.8191 H   0  0  0  0  0  0  0  0  0  0  0  0
  -11.2655   -6.5739   -6.1995 H   0  0  0  0  0  0  0  0  0  0  0  0
   -8.3536   -7.4795   -5.8859 H   0  0  0  0  0  0  0  0  0  0  0  0
   -9.7775   -8.5054   -5.6605 H   0  0  0  0  0  0  0  0  0  0  0  0
   -9.3978   -7.8786   -7.2611 H   0  0  0  0  0  0  0  0  0  0  0  0
  1  2  2  0  0  0  0
  2  3  1  0  0  0  0
  3  4  2  0  0  0  0
  3  5  1  0  0  0  0
  5  6  2  0  0  0  0
  6  7  1  0  0  0  0
  7  8  2  0  0  0  0
  8  9  1  0  0  0  0
  9 10  2  0  0  0  0
 10 11  1  0  0  0  0
 11 12  2  0  0  0  0
 12 13  1  0  0  0  0
 13 14  3  0  0  0  0
 12 15  1  0  0  0  0
 15 16  3  0  0  0  0
  8 17  1  0  0  0  0
 17 18  1  0  0  0  0
 18 19  1  0  0  0  0
 19 20  2  0  0  0  0
 20 21  1  0  0  0  0
 21 22  1  0  0  0  0
 21 23  1  0  0  0  0
  1 24  1  0  0  0  0
 24 25  2  0  0  0  0
 25 26  1  0  0  0  0
 26 27  1  0  0  0  0
 27 28  2  0  0  0  0
 28 29  1  0  0  0  0
 29 30  2  0  0  0  0
 30 31  1  0  0  0  0
 30 32  1  0  0  0  0
 32 33  2  0  0  0  0
 26 34  1  0  0  0  0
 34 35  2  0  0  0  0
 35 36  1  0  0  0  0
 36 37  2  0  0  0  0
 37 38  1  0  0  0  0
 37 39  1  0  0  0  0
 39 40  2  0  0  0  0
 25 41  1  0  0  0  0
 41 42  1  0  0  0  0
 42 43  1  0  0  0  0
 43 44  2  0  0  0  0
 44 45  1  0  0  0  0
 45 46  1  0  0  0  0
 46 47  2  0  0  0  0
 47 48  1  0  0  0  0
 48 49  2  0  0  0  0
 49 50  1  0  0  0  0
 49 51  1  0  0  0  0
 51 52  2  0  0  0  0
 45 53  1  0  0  0  0
 53 54  2  0  0  0  0
 54 55  1  0  0  0  0
 55 56  2  0  0  0  0
 56 57  1  0  0  0  0
 56 58  1  0  0  0  0
 58 59  2  0  0  0  0
 44 60  1  0  0  0  0
 60 61  1  0  0  0  0
 43 62  1  0  0  0  0
 62 63  2  0  0  0  0
 63 64  1  0  0  0  0
 64 65  1  0  0  0  0
 65 66  2  0  0  0  0
 66 67  1  0  0  0  0
 67 68  2  0  0  0  0
 68 69  1  0  0  0  0
 69 70  1  0  0  0  0
 68 71  1  0  0  0  0
 71 72  2  0  0  0  0
 64 73  1  0  0  0  0
 73 74  2  0  0  0  0
 74 75  1  0  0  0  0
 75 76  2  0  0  0  0
 76 77  1  0  0  0  0
 77 78  1  0  0  0  0
 76 79  1  0  0  0  0
 79 80  2  0  0  0  0
 63 81  1  0  0  0  0
 81 82  1  0  0  0  0
 82 83  1  0  0  0  0
 83 84  2  0  0  0  0
 84 85  1  0  0  0  0
 85 86  1  0  0  0  0
 86 87  2  0  0  0  0
 87 88  1  0  0  0  0
 88 89  2  0  0  0  0
 89 90  1  0  0  0  0
 90 91  1  0  0  0  0
 89 92  1  0  0  0  0
 92 93  2  0  0  0  0
 85 94  1  0  0  0  0
 94 95  2  0  0  0  0
 95 96  1  0  0  0  0
 96 97  2  0  0  0  0
 97 98  1  0  0  0  0
 98 99  1  0  0  0  0
 97100  1  0  0  0  0
100101  2  0  0  0  0
 84102  1  0  0  0  0
102103  1  0  0  0  0
 83104  1  0  0  0  0
104105  2  0  0  0  0
105106  1  0  0  0  0
106107  1  0  0  0  0
107108  2  0  0  0  0
108109  1  0  0  0  0
109110  2  0  0  0  0
110111  1  0  0  0  0
110112  1  0  0  0  0
112113  2  0  0  0  0
106114  1  0  0  0  0
114115  2  0  0  0  0
115116  1  0  0  0  0
116117  2  0  0  0  0
117118  1  0  0  0  0
117119  1  0  0  0  0
119120  2  0  0  0  0
105121  1  0  0  0  0
121122  1  0  0  0  0
122123  1  0  0  0  0
123124  2  0  0  0  0
124125  1  0  0  0  0
125126  1  0  0  0  0
126127  2  0  0  0  0
127128  1  0  0  0  0
128129  2  0  0  0  0
129130  1  0  0  0  0
129131  1  0  0  0  0
131132  2  0  0  0  0
125133  1  0  0  0  0
133134  2  0  0  0  0
134135  1  0  0  0  0
135136  2  0  0  0  0
136137  1  0  0  0  0
136138  1  0  0  0  0
138139  2  0  0  0  0
124140  1  0  0  0  0
140141  1  0  0  0  0
123142  1  0  0  0  0
142143  2  0  0  0  0
143144  1  0  0  0  0
144145  1  0  0  0  0
145146  2  0  0  0  0
146147  1  0  0  0  0
147148  3  0  0  0  0
146149  1  0  0  0  0
149150  3  0  0  0  0
145151  1  0  0  0  0
151152  1  0  0  0  0
152153  1  0  0  0  0
151154  1  0  0  0  0
154155  2  0  0  0  0
 11  2  1  0  0  0  0
 23 17  1  0  0  0  0
 61 24  1  0  0  0  0
103 62  1  0  0  0  0
141104  1  0  0  0  0
154143  1  0  0  0  0
 10  5  1  0  0  0  0
 22 18  1  0  0  0  0
 33 27  1  0  0  0  0
 40 34  1  0  0  0  0
 60 41  2  0  0  0  0
 72 65  1  0  0  0  0
 80 73  1  0  0  0  0
102 81  2  0  0  0  0
113107  1  0  0  0  0
120114  1  0  0  0  0
140121  2  0  0  0  0
 23  7  1  0  0  0  0
 52 46  1  0  0  0  0
 59 53  1  0  0  0  0
 93 86  1  0  0  0  0
101 94  1  0  0  0  0
132126  1  0  0  0  0
139133  1  0  0  0  0
  1156  1  0  0  0  0
  6157  1  0  0  0  0
  9158  1  0  0  0  0
 17159  1  0  0  0  0
 18160  1  0  0  0  0
 19161  1  0  0  0  0
 20162  1  0  0  0  0
 21163  1  0  0  0  0
 22164  1  0  0  0  0
 22165  1  0  0  0  0
 23166  1  0  0  0  0
 28167  1  0  0  0  0
 29168  1  0  0  0  0
 31169  1  0  0  0  0
 31170  1  0  0  0  0
 31171  1  0  0  0  0
 32172  1  0  0  0  0
 33173  1  0  0  0  0
 35174  1  0  0  0  0
 36175  1  0  0  0  0
 38176  1  0  0  0  0
 38177  1  0  0  0  0
 38178  1  0  0  0  0
 39179  1  0  0  0  0
 40180  1  0  0  0  0
 47181  1  0  0  0  0
 48182  1  0  0  0  0
 50183  1  0  0  0  0
 50184  1  0  0  0  0
 50185  1  0  0  0  0
 51186  1  0  0  0  0
 52187  1  0  0  0  0
 54188  1  0  0  0  0
 55189  1  0  0  0  0
 57190  1  0  0  0  0
 57191  1  0  0  0  0
 57192  1  0  0  0  0
 58193  1  0  0  0  0
 59194  1  0  0  0  0
 66195  1  0  0  0  0
 67196  1  0  0  0  0
 70197  1  0  0  0  0
 70198  1  0  0  0  0
 70199  1  0  0  0  0
 71200  1  0  0  0  0
 72201  1  0  0  0  0
 74202  1  0  0  0  0
 75203  1  0  0  0  0
 78204  1  0  0  0  0
 78205  1  0  0  0  0
 78206  1  0  0  0  0
 79207  1  0  0  0  0
 80208  1  0  0  0  0
 87209  1  0  0  0  0
 88210  1  0  0  0  0
 91211  1  0  0  0  0
 91212  1  0  0  0  0
 91213  1  0  0  0  0
 92214  1  0  0  0  0
 93215  1  0  0  0  0
 95216  1  0  0  0  0
 96217  1  0  0  0  0
 99218  1  0  0  0  0
 99219  1  0  0  0  0
 99220  1  0  0  0  0
100221  1  0  0  0  0
101222  1  0  0  0  0
108223  1  0  0  0  0
109224  1  0  0  0  0
111225  1  0  0  0  0
111226  1  0  0  0  0
111227  1  0  0  0  0
112228  1  0  0  0  0
113229  1  0  0  0  0
115230  1  0  0  0  0
116231  1  0  0  0  0
118232  1  0  0  0  0
118233  1  0  0  0  0
118234  1  0  0  0  0
119235  1  0  0  0  0
120236  1  0  0  0  0
127237  1  0  0  0  0
128238  1  0  0  0  0
130239  1  0  0  0  0
130240  1  0  0  0  0
130241  1  0  0  0  0
131242  1  0  0  0  0
132243  1  0  0  0  0
134244  1  0  0  0  0
135245  1  0  0  0  0
137246  1  0  0  0  0
137247  1  0  0  0  0
137248  1  0  0  0  0
138249  1  0  0  0  0
139250  1  0  0  0  0
142251  1  0  0  0  0
152252  1  0  0  0  0
152253  1  0  0  0  0
153254  1  0  0  0  0
153255  1  0  0  0  0
153256  1  0  0  0  0
M  END
