116

C          3.35470        1.82080       -5.96830
C          3.33960        0.47900       -5.89170
C          2.65630       -0.24210       -4.77070
O          2.02070        0.25910       -3.86990
C          2.97820       -1.65950       -4.95210
C          2.58890       -2.70680       -4.11840
C          3.04480       -3.93780       -4.51920
C          3.83200       -4.11720       -5.66740
C          4.23130       -3.09270       -6.49180
C          3.77870       -1.82560       -6.10380
C          4.00670       -0.52390       -6.71920
C          4.68950       -0.27960       -7.87570
C          4.86690        1.00380       -8.43940
N          5.04580        2.01700       -8.94670
C          5.30490       -1.27350       -8.66880
N          5.82640       -2.03040       -9.35520
C          3.91560       -5.60990       -5.46950
C          3.01330       -6.50600       -6.35460
C          1.81470       -5.67110       -6.73290
C          1.07790       -5.50180       -5.64320
C          1.76580       -6.21850       -4.50730
C          2.38980       -7.39840       -5.26920
C          3.04630       -5.40770       -4.18830
C          2.54040        2.58600       -5.02170
C          3.04030        3.25070       -3.93420
F          4.36770        3.36910       -3.78490
C          2.23070        3.69640       -2.85060
F          2.89120        4.15820       -1.78410
C          0.86810        3.52710       -2.81490
C          0.30130        3.00770       -4.00660
C          1.12570        2.53180       -5.08800
N          0.32110        2.07990       -6.02710
O         -0.91370        2.27270       -5.57320
N         -0.95120        2.82260       -4.36900
C          0.08020        3.66250       -1.59050
C         -0.71770        2.61220       -1.18410
F         -0.85290        1.51860       -1.94100
C         -1.31540        2.58690        0.08500
F         -1.97080        1.47330        0.42740
C         -1.13120        3.60840        0.99450
C         -0.39920        4.74580        0.56890
N         -0.26570        5.79630        1.39530
C          0.44170        6.82840        1.01160
C          0.62190        7.91230        2.02730
C          1.89390        7.64040        2.83690
C          1.02180        6.86840       -0.29220
N          0.87670        5.86410       -1.11850
C          0.19860        4.77530       -0.71910
C          1.74820        8.06240       -0.82940
C          0.75560        9.04790       -1.45300
C         -1.56350        3.41580        2.37820
C         -0.71590        3.54130        3.45160
F          0.52590        4.01120        3.29300
C         -1.02710        3.04300        4.74870
F         -0.05880        3.12220        5.67270
C         -2.18200        2.36440        5.03740
C         -3.14330        2.35840        3.99460
C         -2.84210        2.88590        2.68830
N         -3.92600        2.73900        1.95520
O         -4.82930        2.16640        2.73620
N         -4.38440        1.92090        3.96540
C         -2.37890        1.56330        6.24280
C         -2.48020        0.22620        6.13240
C         -2.22650       -0.48930        4.84150
O         -1.91540        0.01210        3.78410
C         -2.33400       -1.91780        5.14750
C         -2.17790       -2.96840        4.24380
C         -2.29650       -4.21280        4.81060
C         -2.54320       -4.40200        6.17940
C         -2.70740       -3.37580        7.07870
C         -2.59770       -2.09440        6.52330
C         -2.71260       -0.78690        7.15870
C         -3.01680       -0.54530        8.46780
C         -3.15070        0.74330        9.03130
N         -3.27680        1.75940        9.54860
C         -3.24520       -1.54800        9.43610
N         -3.43620       -2.31210       10.27020
C         -2.51290       -5.90520        6.05530
C         -1.22360       -6.61110        6.52860
C         -1.28690       -7.96520        5.85870
C         -1.06300       -7.78590        4.56310
C         -0.84490       -6.30770        4.33520
C         -0.15770       -5.93590        5.65550
C         -2.24740       -5.69260        4.53020
H          3.95570        2.36340       -6.68410
H          1.98240       -2.52040       -3.24610
H          4.84620       -3.24700       -7.36270
H          4.91640       -6.01930       -5.34960
H          3.53210       -6.99930       -7.17190
H          1.65930       -5.25610       -7.71140
H          0.18440       -4.91670       -5.52840
H          1.15060       -6.44940       -3.64180
H          1.64320       -8.08410       -5.66640
H          3.12470       -7.95180       -4.68620
H          3.48190       -5.67800       -3.22840
H          0.68170        8.89110        1.55290
H         -0.23660        7.89370        2.69940
H          1.82100        6.67180        3.32450
H          2.02370        8.40720        3.59620
H          2.77130        7.63450        2.19370
H          2.43730        7.71640       -1.60020
H          2.31720        8.55430       -0.04120
H          1.28640        9.90810       -1.85260
H          0.03450        9.39630       -0.71660
H          0.21310        8.56630       -2.26260
H         -2.39890        2.07450        7.19510
H         -1.98600       -2.77360        3.20040
H         -2.90210       -3.53930        8.12550
H         -3.41850       -6.42470        6.36130
H         -1.06970       -6.60400        7.60390
H         -1.53350       -8.87650        6.37060
H         -1.08560       -8.51720        3.77670
H         -0.34740       -6.02200        3.41240
H          0.81730       -6.40890        5.75860
H         -0.06090       -4.86420        5.81970
H         -2.97930       -6.06460        3.81610
