
  xtb     02162213213D
 energy: -352.561087947997 gnorm: 0.000453685309 xtb: 6.4.1 (unknown)
210231  0     0  0            999 V2000
   -5.7287   -2.0759    3.6628 C   0  0  0  0  0  0  0  0  0  0  0  0
   -7.0456   -1.8909    3.3076 C   0  0  0  0  0  0  0  0  0  0  0  0
   -7.5713   -0.8500    2.4221 C   0  0  0  0  0  0  0  0  0  0  0  0
   -6.9451   -0.0279    1.7739 O   0  0  0  0  0  0  0  0  0  0  0  0
   -9.0408   -0.9654    2.4774 C   0  0  0  0  0  0  0  0  0  0  0  0
   -9.9706   -0.1817    1.7988 C   0  0  0  0  0  0  0  0  0  0  0  0
  -11.2782   -0.5261    2.0444 C   0  0  0  0  0  0  0  0  0  0  0  0
  -11.6345   -1.5709    2.9058 C   0  0  0  0  0  0  0  0  0  0  0  0
  -10.7266   -2.3518    3.5818 C   0  0  0  0  0  0  0  0  0  0  0  0
   -9.3900   -2.0206    3.3425 C   0  0  0  0  0  0  0  0  0  0  0  0
   -8.1600   -2.6309    3.8491 C   0  0  0  0  0  0  0  0  0  0  0  0
   -8.1040   -3.7329    4.6694 C   0  0  0  0  0  0  0  0  0  0  0  0
   -6.9333   -4.4135    5.0541 C   0  0  0  0  0  0  0  0  0  0  0  0
   -6.0402   -5.0553    5.3913 N   0  0  0  0  0  0  0  0  0  0  0  0
   -9.2284   -4.3722    5.2273 C   0  0  0  0  0  0  0  0  0  0  0  0
  -10.0910   -4.9362    5.7354 N   0  0  0  0  0  0  0  0  0  0  0  0
  -13.1113   -1.3665    2.6737 C   0  0  0  0  0  0  0  0  0  0  0  0
  -13.8050   -2.3699    1.7284 C   0  0  0  0  0  0  0  0  0  0  0  0
  -15.0749   -1.6609    1.3166 C   0  0  0  0  0  0  0  0  0  0  0  0
  -14.7377   -0.6717    0.4992 C   0  0  0  0  0  0  0  0  0  0  0  0
  -13.2341   -0.6955    0.3447 C   0  0  0  0  0  0  0  0  0  0  0  0
  -12.9825   -2.2056    0.4438 C   0  0  0  0  0  0  0  0  0  0  0  0
  -12.7139   -0.2017    1.7113 C   0  0  0  0  0  0  0  0  0  0  0  0
   -4.5714   -1.4469    3.2072 C   0  0  0  0  0  0  0  0  0  0  0  0
   -3.2794   -1.7449    3.7074 C   0  0  0  0  0  0  0  0  0  0  0  0
   -3.0132   -2.4995    4.8213 N   0  0  0  0  0  0  0  0  0  0  0  0
   -3.8275   -2.4492    5.9684 C   0  0  0  0  0  0  0  0  0  0  0  0
   -4.4507   -1.2604    6.3421 C   0  0  0  0  0  0  0  0  0  0  0  0
   -5.2498   -1.2219    7.4667 C   0  0  0  0  0  0  0  0  0  0  0  0
   -5.4401   -2.3526    8.2525 C   0  0  0  0  0  0  0  0  0  0  0  0
   -6.3274   -2.3210    9.4586 C   0  0  0  0  0  0  0  0  0  0  0  0
   -4.7968   -3.5279    7.8828 C   0  0  0  0  0  0  0  0  0  0  0  0
   -4.0032   -3.5855    6.7546 C   0  0  0  0  0  0  0  0  0  0  0  0
   -1.8561   -3.3004    4.8349 C   0  0  0  0  0  0  0  0  0  0  0  0
   -1.5035   -4.0315    3.7027 C   0  0  0  0  0  0  0  0  0  0  0  0
   -0.3833   -4.8361    3.7181 C   0  0  0  0  0  0  0  0  0  0  0  0
    0.4064   -4.9444    4.8575 C   0  0  0  0  0  0  0  0  0  0  0  0
    1.5845   -5.8668    4.8762 C   0  0  0  0  0  0  0  0  0  0  0  0
    0.0514   -4.2057    5.9794 C   0  0  0  0  0  0  0  0  0  0  0  0
   -1.0620   -3.3884    5.9738 C   0  0  0  0  0  0  0  0  0  0  0  0
   -2.2868   -1.1388    2.9187 C   0  0  0  0  0  0  0  0  0  0  0  0
   -0.5559   -1.1642    2.9341 S   0  0  0  0  0  0  0  0  0  0  0  0
   -0.5132   -0.0221    1.5930 C   0  0  0  0  0  0  0  0  0  0  0  0
   -1.7772    0.2934    1.1187 C   0  0  0  0  0  0  0  0  0  0  0  0
   -2.0539    1.0650    0.0089 N   0  0  0  0  0  0  0  0  0  0  0  0
   -3.3306    1.6533   -0.1176 C   0  0  0  0  0  0  0  0  0  0  0  0
   -3.8972    2.3521    0.9441 C   0  0  0  0  0  0  0  0  0  0  0  0
   -5.1623    2.8907    0.8239 C   0  0  0  0  0  0  0  0  0  0  0  0
   -5.8926    2.7500   -0.3490 C   0  0  0  0  0  0  0  0  0  0  0  0
   -7.2848    3.2929   -0.4387 C   0  0  0  0  0  0  0  0  0  0  0  0
   -5.3102    2.0718   -1.4116 C   0  0  0  0  0  0  0  0  0  0  0  0
   -4.0456    1.5274   -1.3040 C   0  0  0  0  0  0  0  0  0  0  0  0
   -1.1872    1.1292   -1.0920 C   0  0  0  0  0  0  0  0  0  0  0  0
   -0.4372    0.0317   -1.5060 C   0  0  0  0  0  0  0  0  0  0  0  0
    0.4419    0.1472   -2.5666 C   0  0  0  0  0  0  0  0  0  0  0  0
    0.5693    1.3387   -3.2685 C   0  0  0  0  0  0  0  0  0  0  0  0
    1.5380    1.4850   -4.4017 C   0  0  0  0  0  0  0  0  0  0  0  0
   -0.2315    2.4111   -2.8901 C   0  0  0  0  0  0  0  0  0  0  0  0
   -1.0910    2.3169   -1.8137 C   0  0  0  0  0  0  0  0  0  0  0  0
   -2.7836   -0.3385    1.8982 C   0  0  0  0  0  0  0  0  0  0  0  0
   -4.5095   -0.3159    1.8562 S   0  0  0  0  0  0  0  0  0  0  0  0
    0.7641    0.3894    1.0792 C   0  0  0  0  0  0  0  0  0  0  0  0
    1.2716    1.6701    0.9336 C   0  0  0  0  0  0  0  0  0  0  0  0
    0.6907    2.7904    1.5006 N   0  0  0  0  0  0  0  0  0  0  0  0
   -0.0248    2.6355    2.7031 C   0  0  0  0  0  0  0  0  0  0  0  0
   -1.2149    3.3317    2.9070 C   0  0  0  0  0  0  0  0  0  0  0  0
   -1.9604    3.1104    4.0451 C   0  0  0  0  0  0  0  0  0  0  0  0
   -1.5313    2.1974    5.0068 C   0  0  0  0  0  0  0  0  0  0  0  0
   -2.6069    1.9145    6.3780 S   0  0  0  0  0  0  0  0  0  0  0  0
   -1.7945    0.5715    7.2885 C   0  0  0  0  0  0  0  0  0  0  0  0
   -0.3077    1.5640    4.8445 C   0  0  0  0  0  0  0  0  0  0  0  0
    0.4368    1.7865    3.7036 C   0  0  0  0  0  0  0  0  0  0  0  0
    0.9690    4.0808    1.0338 C   0  0  0  0  0  0  0  0  0  0  0  0
    1.1388    5.1305    1.9340 C   0  0  0  0  0  0  0  0  0  0  0  0
    1.4173    6.4075    1.4886 C   0  0  0  0  0  0  0  0  0  0  0  0
    1.5416    6.6594    0.1289 C   0  0  0  0  0  0  0  0  0  0  0  0
    1.9059    8.2436   -0.5612 S   0  0  0  0  0  0  0  0  0  0  0  0
    2.0833    9.3242    0.8868 C   0  0  0  0  0  0  0  0  0  0  0  0
    1.3696    5.6145   -0.7748 C   0  0  0  0  0  0  0  0  0  0  0  0
    1.0839    4.3422   -0.3311 C   0  0  0  0  0  0  0  0  0  0  0  0
    2.5122    1.6399    0.2432 C   0  0  0  0  0  0  0  0  0  0  0  0
    3.5790    2.8374   -0.4037 S   0  0  0  0  0  0  0  0  0  0  0  0
    4.6419    1.5871   -1.0370 C   0  0  0  0  0  0  0  0  0  0  0  0
    4.1774    0.3071   -0.7731 C   0  0  0  0  0  0  0  0  0  0  0  0
    4.7359   -0.8848   -1.1989 N   0  0  0  0  0  0  0  0  0  0  0  0
    5.3891   -0.9937   -2.4357 C   0  0  0  0  0  0  0  0  0  0  0  0
    4.9057   -0.3260   -3.5616 C   0  0  0  0  0  0  0  0  0  0  0  0
    5.6167   -0.3445   -4.7413 C   0  0  0  0  0  0  0  0  0  0  0  0
    6.8164   -1.0505   -4.8287 C   0  0  0  0  0  0  0  0  0  0  0  0
    7.6894   -0.9517   -6.3589 S   0  0  0  0  0  0  0  0  0  0  0  0
    9.2831   -1.7435   -6.0021 C   0  0  0  0  0  0  0  0  0  0  0  0
    7.2637   -1.7762   -3.7329 C   0  0  0  0  0  0  0  0  0  0  0  0
    6.5592   -1.7398   -2.5468 C   0  0  0  0  0  0  0  0  0  0  0  0
    4.6871   -1.9846   -0.3308 C   0  0  0  0  0  0  0  0  0  0  0  0
    4.4773   -3.2723   -0.8244 C   0  0  0  0  0  0  0  0  0  0  0  0
    4.4305   -4.3448    0.0371 C   0  0  0  0  0  0  0  0  0  0  0  0
    4.5828   -4.1577    1.4098 C   0  0  0  0  0  0  0  0  0  0  0  0
    4.4934   -5.6010    2.4235 S   0  0  0  0  0  0  0  0  0  0  0  0
    5.0996   -5.0291    4.0378 C   0  0  0  0  0  0  0  0  0  0  0  0
    4.7854   -2.8786    1.9068 C   0  0  0  0  0  0  0  0  0  0  0  0
    4.8457   -1.8048    1.0409 C   0  0  0  0  0  0  0  0  0  0  0  0
    2.9679    0.3622   -0.0360 C   0  0  0  0  0  0  0  0  0  0  0  0
    1.8857   -0.8513    0.5327 S   0  0  0  0  0  0  0  0  0  0  0  0
    5.7339    1.9409   -1.8876 C   0  0  0  0  0  0  0  0  0  0  0  0
    5.4773    3.1242   -3.1588 S   0  0  0  0  0  0  0  0  0  0  0  0
    6.9776    2.7016   -3.8886 C   0  0  0  0  0  0  0  0  0  0  0  0
    7.4898    3.1000   -5.1311 C   0  0  0  0  0  0  0  0  0  0  0  0
    8.6256    2.4417   -5.6061 C   0  0  0  0  0  0  0  0  0  0  0  0
    9.3224    1.5538   -4.8750 O   0  0  0  0  0  0  0  0  0  0  0  0
    8.9028    1.1517   -3.6298 C   0  0  0  0  0  0  0  0  0  0  0  0
    9.5664    0.3266   -3.0528 O   0  0  0  0  0  0  0  0  0  0  0  0
    7.6646    1.7376   -3.1496 C   0  0  0  0  0  0  0  0  0  0  0  0
    6.9566    1.3346   -2.0014 C   0  0  0  0  0  0  0  0  0  0  0  0
    8.9354    2.7739   -6.9280 C   0  0  0  0  0  0  0  0  0  0  0  0
    8.0672    3.7052   -7.4569 C   0  0  0  0  0  0  0  0  0  0  0  0
    6.8616    4.1984   -6.2991 S   0  0  0  0  0  0  0  0  0  0  0  0
    8.0814    4.2489   -8.7742 C   0  0  0  0  0  0  0  0  0  0  0  0
    8.4603    3.5808   -9.8903 C   0  0  0  0  0  0  0  0  0  0  0  0
    8.8707    4.3073  -11.1295 C   0  0  0  0  0  0  0  0  0  0  0  0
    8.6776    5.4746  -11.3788 O   0  0  0  0  0  0  0  0  0  0  0  0
    9.6046    3.3091  -11.9204 C   0  0  0  0  0  0  0  0  0  0  0  0
   10.3022    3.4692  -13.1023 C   0  0  0  0  0  0  0  0  0  0  0  0
   10.9403    2.3756  -13.6640 C   0  0  0  0  0  0  0  0  0  0  0  0
   10.8846    1.1243  -13.0433 C   0  0  0  0  0  0  0  0  0  0  0  0
   11.4818    0.0101  -13.5100 O   0  0  0  0  0  0  0  0  0  0  0  0
   12.2061    0.0651  -14.7182 C   0  0  0  0  0  0  0  0  0  0  0  0
   10.1703    0.9575  -11.8463 C   0  0  0  0  0  0  0  0  0  0  0  0
    9.5331    2.0460  -11.2934 C   0  0  0  0  0  0  0  0  0  0  0  0
    8.6859    2.1634  -10.1096 C   0  0  0  0  0  0  0  0  0  0  0  0
    8.0085    1.1432   -9.4986 C   0  0  0  0  0  0  0  0  0  0  0  0
    6.9471    1.3650   -8.5953 C   0  0  0  0  0  0  0  0  0  0  0  0
    6.0246    1.5213   -7.9306 N   0  0  0  0  0  0  0  0  0  0  0  0
    8.2318   -0.2212   -9.7745 C   0  0  0  0  0  0  0  0  0  0  0  0
    8.4131   -1.3404   -9.9507 N   0  0  0  0  0  0  0  0  0  0  0  0
   -5.5490   -2.8357    4.4125 H   0  0  0  0  0  0  0  0  0  0  0  0
   -9.6518    0.6138    1.1434 H   0  0  0  0  0  0  0  0  0  0  0  0
  -11.0185   -3.1509    4.2422 H   0  0  0  0  0  0  0  0  0  0  0  0
  -13.7039   -1.1337    3.5565 H   0  0  0  0  0  0  0  0  0  0  0  0
  -13.9124   -3.3738    2.1301 H   0  0  0  0  0  0  0  0  0  0  0  0
  -16.0498   -1.9086    1.6939 H   0  0  0  0  0  0  0  0  0  0  0  0
  -15.3747    0.0722    0.0573 H   0  0  0  0  0  0  0  0  0  0  0  0
  -12.8223   -0.1743   -0.5155 H   0  0  0  0  0  0  0  0  0  0  0  0
  -13.4144   -2.7507   -0.3939 H   0  0  0  0  0  0  0  0  0  0  0  0
  -11.9334   -2.4745    0.5512 H   0  0  0  0  0  0  0  0  0  0  0  0
  -13.0427    0.8077    1.9524 H   0  0  0  0  0  0  0  0  0  0  0  0
   -4.3150   -0.3693    5.7475 H   0  0  0  0  0  0  0  0  0  0  0  0
   -5.7276   -0.2918    7.7392 H   0  0  0  0  0  0  0  0  0  0  0  0
   -7.2430   -2.8789    9.2619 H   0  0  0  0  0  0  0  0  0  0  0  0
   -6.5968   -1.3004    9.7191 H   0  0  0  0  0  0  0  0  0  0  0  0
   -5.8346   -2.7848   10.3112 H   0  0  0  0  0  0  0  0  0  0  0  0
   -4.9346   -4.4195    8.4756 H   0  0  0  0  0  0  0  0  0  0  0  0
   -3.5309   -4.5122    6.4702 H   0  0  0  0  0  0  0  0  0  0  0  0
   -2.1235   -3.9765    2.8200 H   0  0  0  0  0  0  0  0  0  0  0  0
   -0.1224   -5.4019    2.8360 H   0  0  0  0  0  0  0  0  0  0  0  0
    2.2522   -5.6323    5.7018 H   0  0  0  0  0  0  0  0  0  0  0  0
    2.1347   -5.8111    3.9396 H   0  0  0  0  0  0  0  0  0  0  0  0
    1.2460   -6.8961    4.9974 H   0  0  0  0  0  0  0  0  0  0  0  0
    0.6538   -4.2701    6.8743 H   0  0  0  0  0  0  0  0  0  0  0  0
   -1.3261   -2.8237    6.8565 H   0  0  0  0  0  0  0  0  0  0  0  0
   -3.3455    2.4549    1.8653 H   0  0  0  0  0  0  0  0  0  0  0  0
   -5.5955    3.4188    1.6605 H   0  0  0  0  0  0  0  0  0  0  0  0
   -7.6647    3.2351   -1.4556 H   0  0  0  0  0  0  0  0  0  0  0  0
   -7.9392    2.7126    0.2108 H   0  0  0  0  0  0  0  0  0  0  0  0
   -7.3191    4.3295   -0.1069 H   0  0  0  0  0  0  0  0  0  0  0  0
   -5.8594    1.9502   -2.3342 H   0  0  0  0  0  0  0  0  0  0  0  0
   -3.6116    0.9887   -2.1339 H   0  0  0  0  0  0  0  0  0  0  0  0
   -0.5529   -0.9164   -1.0026 H   0  0  0  0  0  0  0  0  0  0  0  0
    1.0290   -0.7122   -2.8587 H   0  0  0  0  0  0  0  0  0  0  0  0
    2.3973    2.0807   -4.0881 H   0  0  0  0  0  0  0  0  0  0  0  0
    1.0729    2.0000   -5.2400 H   0  0  0  0  0  0  0  0  0  0  0  0
    1.8924    0.5152   -4.7426 H   0  0  0  0  0  0  0  0  0  0  0  0
   -0.1674    3.3407   -3.4376 H   0  0  0  0  0  0  0  0  0  0  0  0
   -1.6900    3.1661   -1.5189 H   0  0  0  0  0  0  0  0  0  0  0  0
   -1.5526    4.0332    2.1586 H   0  0  0  0  0  0  0  0  0  0  0  0
   -2.8956    3.6285    4.1952 H   0  0  0  0  0  0  0  0  0  0  0  0
   -2.4949    0.2763    8.0640 H   0  0  0  0  0  0  0  0  0  0  0  0
   -0.8722    0.9292    7.7376 H   0  0  0  0  0  0  0  0  0  0  0  0
   -1.6114   -0.2655    6.6211 H   0  0  0  0  0  0  0  0  0  0  0  0
    0.0780    0.8878    5.5895 H   0  0  0  0  0  0  0  0  0  0  0  0
    1.3825    1.2793    3.5822 H   0  0  0  0  0  0  0  0  0  0  0  0
    1.0572    4.9445    2.9949 H   0  0  0  0  0  0  0  0  0  0  0  0
    1.5442    7.1926    2.2164 H   0  0  0  0  0  0  0  0  0  0  0  0
    2.3173   10.3071    0.4898 H   0  0  0  0  0  0  0  0  0  0  0  0
    1.1493    9.3634    1.4397 H   0  0  0  0  0  0  0  0  0  0  0  0
    2.8999    8.9757    1.5125 H   0  0  0  0  0  0  0  0  0  0  0  0
    1.4604    5.8129   -1.8315 H   0  0  0  0  0  0  0  0  0  0  0  0
    0.9282    3.5472   -1.0411 H   0  0  0  0  0  0  0  0  0  0  0  0
    3.9811    0.2262   -3.4940 H   0  0  0  0  0  0  0  0  0  0  0  0
    5.2621    0.1940   -5.6076 H   0  0  0  0  0  0  0  0  0  0  0  0
    9.8793   -1.6038   -6.8987 H   0  0  0  0  0  0  0  0  0  0  0  0
    9.1392   -2.8048   -5.8220 H   0  0  0  0  0  0  0  0  0  0  0  0
    9.7545   -1.2535   -5.1546 H   0  0  0  0  0  0  0  0  0  0  0  0
    8.1758   -2.3468   -3.7763 H   0  0  0  0  0  0  0  0  0  0  0  0
    6.9350   -2.2767   -1.6886 H   0  0  0  0  0  0  0  0  0  0  0  0
    4.3539   -3.4217   -1.8863 H   0  0  0  0  0  0  0  0  0  0  0  0
    4.2689   -5.3421   -0.3421 H   0  0  0  0  0  0  0  0  0  0  0  0
    5.1759   -5.9200    4.6535 H   0  0  0  0  0  0  0  0  0  0  0  0
    4.3920   -4.3345    4.4811 H   0  0  0  0  0  0  0  0  0  0  0  0
    6.0791   -4.5756    3.9196 H   0  0  0  0  0  0  0  0  0  0  0  0
    4.9040   -2.7015    2.9634 H   0  0  0  0  0  0  0  0  0  0  0  0
    5.0233   -0.8139    1.4328 H   0  0  0  0  0  0  0  0  0  0  0  0
    7.3378    0.6123   -1.3047 H   0  0  0  0  0  0  0  0  0  0  0  0
    9.7753    2.3650   -7.4586 H   0  0  0  0  0  0  0  0  0  0  0  0
    7.8179    5.2939   -8.8909 H   0  0  0  0  0  0  0  0  0  0  0  0
   10.3433    4.4370  -13.5775 H   0  0  0  0  0  0  0  0  0  0  0  0
   11.4817    2.5035  -14.5876 H   0  0  0  0  0  0  0  0  0  0  0  0
   11.5665    0.3591  -15.5556 H   0  0  0  0  0  0  0  0  0  0  0  0
   13.0552    0.7514  -14.6457 H   0  0  0  0  0  0  0  0  0  0  0  0
   12.5734   -0.9460  -14.8837 H   0  0  0  0  0  0  0  0  0  0  0  0
   10.1507   -0.0209  -11.3954 H   0  0  0  0  0  0  0  0  0  0  0  0
  1  2  2  0  0  0  0
  2  3  1  0  0  0  0
  3  4  2  0  0  0  0
  3  5  1  0  0  0  0
  5  6  2  0  0  0  0
  6  7  1  0  0  0  0
  7  8  2  0  0  0  0
  8  9  1  0  0  0  0
  9 10  2  0  0  0  0
 10 11  1  0  0  0  0
 11 12  2  0  0  0  0
 12 13  1  0  0  0  0
 13 14  3  0  0  0  0
 12 15  1  0  0  0  0
 15 16  3  0  0  0  0
  8 17  1  0  0  0  0
 17 18  1  0  0  0  0
 18 19  1  0  0  0  0
 19 20  2  0  0  0  0
 20 21  1  0  0  0  0
 21 22  1  0  0  0  0
 21 23  1  0  0  0  0
  1 24  1  0  0  0  0
 24 25  2  0  0  0  0
 25 26  1  0  0  0  0
 26 27  1  0  0  0  0
 27 28  2  0  0  0  0
 28 29  1  0  0  0  0
 29 30  2  0  0  0  0
 30 31  1  0  0  0  0
 30 32  1  0  0  0  0
 32 33  2  0  0  0  0
 26 34  1  0  0  0  0
 34 35  2  0  0  0  0
 35 36  1  0  0  0  0
 36 37  2  0  0  0  0
 37 38  1  0  0  0  0
 37 39  1  0  0  0  0
 39 40  2  0  0  0  0
 25 41  1  0  0  0  0
 41 42  1  0  0  0  0
 42 43  1  0  0  0  0
 43 44  2  0  0  0  0
 44 45  1  0  0  0  0
 45 46  1  0  0  0  0
 46 47  2  0  0  0  0
 47 48  1  0  0  0  0
 48 49  2  0  0  0  0
 49 50  1  0  0  0  0
 49 51  1  0  0  0  0
 51 52  2  0  0  0  0
 45 53  1  0  0  0  0
 53 54  2  0  0  0  0
 54 55  1  0  0  0  0
 55 56  2  0  0  0  0
 56 57  1  0  0  0  0
 56 58  1  0  0  0  0
 58 59  2  0  0  0  0
 44 60  1  0  0  0  0
 60 61  1  0  0  0  0
 43 62  1  0  0  0  0
 62 63  2  0  0  0  0
 63 64  1  0  0  0  0
 64 65  1  0  0  0  0
 65 66  2  0  0  0  0
 66 67  1  0  0  0  0
 67 68  2  0  0  0  0
 68 69  1  0  0  0  0
 69 70  1  0  0  0  0
 68 71  1  0  0  0  0
 71 72  2  0  0  0  0
 64 73  1  0  0  0  0
 73 74  2  0  0  0  0
 74 75  1  0  0  0  0
 75 76  2  0  0  0  0
 76 77  1  0  0  0  0
 77 78  1  0  0  0  0
 76 79  1  0  0  0  0
 79 80  2  0  0  0  0
 63 81  1  0  0  0  0
 81 82  1  0  0  0  0
 82 83  1  0  0  0  0
 83 84  2  0  0  0  0
 84 85  1  0  0  0  0
 85 86  1  0  0  0  0
 86 87  2  0  0  0  0
 87 88  1  0  0  0  0
 88 89  2  0  0  0  0
 89 90  1  0  0  0  0
 90 91  1  0  0  0  0
 89 92  1  0  0  0  0
 92 93  2  0  0  0  0
 85 94  1  0  0  0  0
 94 95  2  0  0  0  0
 95 96  1  0  0  0  0
 96 97  2  0  0  0  0
 97 98  1  0  0  0  0
 98 99  1  0  0  0  0
 97100  1  0  0  0  0
100101  2  0  0  0  0
 84102  1  0  0  0  0
102103  1  0  0  0  0
 83104  1  0  0  0  0
104105  1  0  0  0  0
105106  1  0  0  0  0
106107  1  0  0  0  0
107108  2  0  0  0  0
108109  1  0  0  0  0
109110  1  0  0  0  0
110111  2  0  0  0  0
110112  1  0  0  0  0
112113  1  0  0  0  0
108114  1  0  0  0  0
114115  2  0  0  0  0
115116  1  0  0  0  0
115117  1  0  0  0  0
117118  2  0  0  0  0
118119  1  0  0  0  0
119120  2  0  0  0  0
119121  1  0  0  0  0
121122  2  0  0  0  0
122123  1  0  0  0  0
123124  2  0  0  0  0
124125  1  0  0  0  0
125126  1  0  0  0  0
124127  1  0  0  0  0
127128  2  0  0  0  0
128129  1  0  0  0  0
129130  2  0  0  0  0
130131  1  0  0  0  0
131132  3  0  0  0  0
130133  1  0  0  0  0
133134  3  0  0  0  0
 11  2  1  0  0  0  0
 23 17  1  0  0  0  0
 61 24  1  0  0  0  0
103 62  1  0  0  0  0
113104  2  0  0  0  0
129118  1  0  0  0  0
 10  5  1  0  0  0  0
 22 18  1  0  0  0  0
 33 27  1  0  0  0  0
 40 34  1  0  0  0  0
 60 41  2  0  0  0  0
 72 65  1  0  0  0  0
 80 73  1  0  0  0  0
102 81  2  0  0  0  0
112106  2  0  0  0  0
128121  1  0  0  0  0
 23  7  1  0  0  0  0
 52 46  1  0  0  0  0
 59 53  1  0  0  0  0
 93 86  1  0  0  0  0
101 94  1  0  0  0  0
116107  1  0  0  0  0
  1135  1  0  0  0  0
  6136  1  0  0  0  0
  9137  1  0  0  0  0
 17138  1  0  0  0  0
 18139  1  0  0  0  0
 19140  1  0  0  0  0
 20141  1  0  0  0  0
 21142  1  0  0  0  0
 22143  1  0  0  0  0
 22144  1  0  0  0  0
 23145  1  0  0  0  0
 28146  1  0  0  0  0
 29147  1  0  0  0  0
 31148  1  0  0  0  0
 31149  1  0  0  0  0
 31150  1  0  0  0  0
 32151  1  0  0  0  0
 33152  1  0  0  0  0
 35153  1  0  0  0  0
 36154  1  0  0  0  0
 38155  1  0  0  0  0
 38156  1  0  0  0  0
 38157  1  0  0  0  0
 39158  1  0  0  0  0
 40159  1  0  0  0  0
 47160  1  0  0  0  0
 48161  1  0  0  0  0
 50162  1  0  0  0  0
 50163  1  0  0  0  0
 50164  1  0  0  0  0
 51165  1  0  0  0  0
 52166  1  0  0  0  0
 54167  1  0  0  0  0
 55168  1  0  0  0  0
 57169  1  0  0  0  0
 57170  1  0  0  0  0
 57171  1  0  0  0  0
 58172  1  0  0  0  0
 59173  1  0  0  0  0
 66174  1  0  0  0  0
 67175  1  0  0  0  0
 70176  1  0  0  0  0
 70177  1  0  0  0  0
 70178  1  0  0  0  0
 71179  1  0  0  0  0
 72180  1  0  0  0  0
 74181  1  0  0  0  0
 75182  1  0  0  0  0
 78183  1  0  0  0  0
 78184  1  0  0  0  0
 78185  1  0  0  0  0
 79186  1  0  0  0  0
 80187  1  0  0  0  0
 87188  1  0  0  0  0
 88189  1  0  0  0  0
 91190  1  0  0  0  0
 91191  1  0  0  0  0
 91192  1  0  0  0  0
 92193  1  0  0  0  0
 93194  1  0  0  0  0
 95195  1  0  0  0  0
 96196  1  0  0  0  0
 99197  1  0  0  0  0
 99198  1  0  0  0  0
 99199  1  0  0  0  0
100200  1  0  0  0  0
101201  1  0  0  0  0
113202  1  0  0  0  0
114203  1  0  0  0  0
117204  1  0  0  0  0
122205  1  0  0  0  0
123206  1  0  0  0  0
126207  1  0  0  0  0
126208  1  0  0  0  0
126209  1  0  0  0  0
127210  1  0  0  0  0
M  END
