
  xtb     02132214423D
 energy: -261.747697525729 gnorm: 0.000426339301 xtb: 6.4.1 (unknown)
160178  0     0  0            999 V2000
   -3.4352    2.3823    4.7724 C   0  0  0  0  0  0  0  0  0  0  0  0
   -3.3040    1.8496    6.0352 C   0  0  0  0  0  0  0  0  0  0  0  0
   -2.7862    0.5224    6.3711 C   0  0  0  0  0  0  0  0  0  0  0  0
   -2.2697   -0.2927    5.6244 O   0  0  0  0  0  0  0  0  0  0  0  0
   -3.0247    0.3396    7.8146 C   0  0  0  0  0  0  0  0  0  0  0  0
   -2.7172   -0.7816    8.5800 C   0  0  0  0  0  0  0  0  0  0  0  0
   -3.0626   -0.6652    9.9053 C   0  0  0  0  0  0  0  0  0  0  0  0
   -3.6728    0.4813   10.4286 C   0  0  0  0  0  0  0  0  0  0  0  0
   -3.9819    1.5947    9.6826 C   0  0  0  0  0  0  0  0  0  0  0  0
   -3.6351    1.4986    8.3330 C   0  0  0  0  0  0  0  0  0  0  0  0
   -3.7797    2.4702    7.2481 C   0  0  0  0  0  0  0  0  0  0  0  0
   -4.2544    3.7527    7.3908 C   0  0  0  0  0  0  0  0  0  0  0  0
   -4.7780    4.2825    8.5862 C   0  0  0  0  0  0  0  0  0  0  0  0
   -5.2378    4.7808    9.5140 N   0  0  0  0  0  0  0  0  0  0  0  0
   -4.2557    4.7418    6.3892 C   0  0  0  0  0  0  0  0  0  0  0  0
   -4.2588    5.6204    5.6469 N   0  0  0  0  0  0  0  0  0  0  0  0
   -3.7244   -0.0861   11.8251 C   0  0  0  0  0  0  0  0  0  0  0  0
   -2.6793    0.4240   12.8479 C   0  0  0  0  0  0  0  0  0  0  0  0
   -1.4786    0.8667   12.0493 C   0  0  0  0  0  0  0  0  0  0  0  0
   -0.8991   -0.2187   11.5542 C   0  0  0  0  0  0  0  0  0  0  0  0
   -1.6980   -1.4150   12.0089 C   0  0  0  0  0  0  0  0  0  0  0  0
   -2.1651   -0.9204   13.3871 C   0  0  0  0  0  0  0  0  0  0  0  0
   -3.0427   -1.3640   11.2420 C   0  0  0  0  0  0  0  0  0  0  0  0
   -3.0355    1.8841    3.5343 C   0  0  0  0  0  0  0  0  0  0  0  0
   -3.2864    2.5553    2.3097 C   0  0  0  0  0  0  0  0  0  0  0  0
   -4.0940    3.6479    2.1448 N   0  0  0  0  0  0  0  0  0  0  0  0
   -3.7798    4.5634    1.1200 C   0  0  0  0  0  0  0  0  0  0  0  0
   -4.7654    5.0294    0.2574 C   0  0  0  0  0  0  0  0  0  0  0  0
   -4.4383    5.9193   -0.7472 C   0  0  0  0  0  0  0  0  0  0  0  0
   -3.1328    6.3620   -0.9170 C   0  0  0  0  0  0  0  0  0  0  0  0
   -2.7689    7.3099   -2.0174 C   0  0  0  0  0  0  0  0  0  0  0  0
   -2.1565    5.8975   -0.0417 C   0  0  0  0  0  0  0  0  0  0  0  0
   -2.4701    5.0120    0.9681 C   0  0  0  0  0  0  0  0  0  0  0  0
   -5.2854    3.8334    2.8694 C   0  0  0  0  0  0  0  0  0  0  0  0
   -6.0825    2.7472    3.2231 C   0  0  0  0  0  0  0  0  0  0  0  0
   -7.2410    2.9475    3.9465 C   0  0  0  0  0  0  0  0  0  0  0  0
   -7.6452    4.2251    4.3169 C   0  0  0  0  0  0  0  0  0  0  0  0
   -8.8863    4.4436    5.1258 C   0  0  0  0  0  0  0  0  0  0  0  0
   -6.8597    5.3044    3.9296 C   0  0  0  0  0  0  0  0  0  0  0  0
   -5.6907    5.1190    3.2193 C   0  0  0  0  0  0  0  0  0  0  0  0
   -2.5839    1.9473    1.2548 C   0  0  0  0  0  0  0  0  0  0  0  0
   -2.4827    2.2477   -0.4509 S   0  0  0  0  0  0  0  0  0  0  0  0
   -1.4206    0.8566   -0.6397 C   0  0  0  0  0  0  0  0  0  0  0  0
   -1.2242    0.1623    0.5503 C   0  0  0  0  0  0  0  0  0  0  0  0
   -0.5652   -1.0410    0.6850 N   0  0  0  0  0  0  0  0  0  0  0  0
    0.0418   -1.3396    1.9192 C   0  0  0  0  0  0  0  0  0  0  0  0
    0.7874   -0.3720    2.5860 C   0  0  0  0  0  0  0  0  0  0  0  0
    1.3285   -0.6489    3.8250 C   0  0  0  0  0  0  0  0  0  0  0  0
    1.1511   -1.8907    4.4222 C   0  0  0  0  0  0  0  0  0  0  0  0
    1.6907   -2.1600    5.7925 C   0  0  0  0  0  0  0  0  0  0  0  0
    0.4358   -2.8612    3.7317 C   0  0  0  0  0  0  0  0  0  0  0  0
   -0.1162   -2.5956    2.4948 C   0  0  0  0  0  0  0  0  0  0  0  0
   -0.5451   -1.9875   -0.3472 C   0  0  0  0  0  0  0  0  0  0  0  0
    0.6083   -2.7362   -0.5811 C   0  0  0  0  0  0  0  0  0  0  0  0
    0.6767   -3.5844   -1.6668 C   0  0  0  0  0  0  0  0  0  0  0  0
   -0.3910   -3.7116   -2.5493 C   0  0  0  0  0  0  0  0  0  0  0  0
   -0.2729   -4.5901   -3.7564 C   0  0  0  0  0  0  0  0  0  0  0  0
   -1.5555   -3.0047   -2.2778 C   0  0  0  0  0  0  0  0  0  0  0  0
   -1.6422   -2.1610   -1.1878 C   0  0  0  0  0  0  0  0  0  0  0  0
   -1.8713    0.8160    1.6291 C   0  0  0  0  0  0  0  0  0  0  0  0
   -2.0354    0.4463    3.3080 S   0  0  0  0  0  0  0  0  0  0  0  0
   -0.8992    0.5501   -1.9274 C   0  0  0  0  0  0  0  0  0  0  0  0
    0.7242   -0.0325   -2.1571 S   0  0  0  0  0  0  0  0  0  0  0  0
    0.4753   -0.3385   -3.8561 C   0  0  0  0  0  0  0  0  0  0  0  0
   -0.7829    0.1105   -4.2433 C   0  0  0  0  0  0  0  0  0  0  0  0
   -1.5229    0.2024   -5.4566 C   0  0  0  0  0  0  0  0  0  0  0  0
   -2.7602    0.7257   -5.2890 C   0  0  0  0  0  0  0  0  0  0  0  0
   -3.8098    0.9363   -6.3240 C   0  0  0  0  0  0  0  0  0  0  0  0
   -4.9269   -0.1018   -6.1961 C   0  0  0  0  0  0  0  0  0  0  0  0
   -3.1145    1.1435   -3.6199 S   0  0  0  0  0  0  0  0  0  0  0  0
   -1.5293    0.6246   -3.1495 C   0  0  0  0  0  0  0  0  0  0  0  0
    1.4609   -1.0388   -4.6207 C   0  0  0  0  0  0  0  0  0  0  0  0
    2.8111   -1.1002   -4.2373 C   0  0  0  0  0  0  0  0  0  0  0  0
    3.1952   -0.4872   -3.0976 F   0  0  0  0  0  0  0  0  0  0  0  0
    3.7720   -1.7497   -4.9702 C   0  0  0  0  0  0  0  0  0  0  0  0
    3.4164   -2.4241   -6.1444 C   0  0  0  0  0  0  0  0  0  0  0  0
    2.0570   -2.4523   -6.4976 C   0  0  0  0  0  0  0  0  0  0  0  0
    1.1164   -1.7644   -5.7742 C   0  0  0  0  0  0  0  0  0  0  0  0
    4.3553   -3.1374   -6.9617 C   0  0  0  0  0  0  0  0  0  0  0  0
    5.6677   -2.8599   -7.1847 C   0  0  0  0  0  0  0  0  0  0  0  0
    6.3608   -1.5736   -6.8998 C   0  0  0  0  0  0  0  0  0  0  0  0
    5.9621   -0.6299   -6.2532 O   0  0  0  0  0  0  0  0  0  0  0  0
    7.6300   -1.6340   -7.6493 C   0  0  0  0  0  0  0  0  0  0  0  0
    8.5853   -0.6233   -7.7412 C   0  0  0  0  0  0  0  0  0  0  0  0
    9.6694   -0.9479   -8.5200 C   0  0  0  0  0  0  0  0  0  0  0  0
    9.7917   -2.1841   -9.1702 C   0  0  0  0  0  0  0  0  0  0  0  0
    8.8561   -3.1874   -9.0918 C   0  0  0  0  0  0  0  0  0  0  0  0
    7.7472   -2.8806   -8.2955 C   0  0  0  0  0  0  0  0  0  0  0  0
    6.5700   -3.6797   -7.9781 C   0  0  0  0  0  0  0  0  0  0  0  0
    6.3860   -4.9993   -8.2983 C   0  0  0  0  0  0  0  0  0  0  0  0
    7.2971   -5.7733   -9.0467 C   0  0  0  0  0  0  0  0  0  0  0  0
    7.9909   -6.4581   -9.6535 N   0  0  0  0  0  0  0  0  0  0  0  0
    5.2843   -5.7840   -7.8959 C   0  0  0  0  0  0  0  0  0  0  0  0
    4.4340   -6.4951   -7.5947 N   0  0  0  0  0  0  0  0  0  0  0  0
   11.1241   -1.8227   -9.7778 C   0  0  0  0  0  0  0  0  0  0  0  0
   12.3737   -2.4394   -9.1142 C   0  0  0  0  0  0  0  0  0  0  0  0
   13.5064   -1.5571   -9.5871 C   0  0  0  0  0  0  0  0  0  0  0  0
   13.3921   -0.3881   -8.9696 C   0  0  0  0  0  0  0  0  0  0  0  0
   12.1802   -0.4607   -8.0689 C   0  0  0  0  0  0  0  0  0  0  0  0
   12.2364   -1.9409   -7.6697 C   0  0  0  0  0  0  0  0  0  0  0  0
   10.9891   -0.4463   -9.0507 C   0  0  0  0  0  0  0  0  0  0  0  0
   -3.9308    3.3429    4.7192 H   0  0  0  0  0  0  0  0  0  0  0  0
   -2.2490   -1.6454    8.1342 H   0  0  0  0  0  0  0  0  0  0  0  0
   -4.4527    2.4682   10.1014 H   0  0  0  0  0  0  0  0  0  0  0  0
   -4.7154   -0.1913   12.2623 H   0  0  0  0  0  0  0  0  0  0  0  0
   -3.0657    1.1389   13.5694 H   0  0  0  0  0  0  0  0  0  0  0  0
   -1.2166    1.8951   11.8827 H   0  0  0  0  0  0  0  0  0  0  0  0
   -0.0558   -0.2782   10.8912 H   0  0  0  0  0  0  0  0  0  0  0  0
   -1.1904   -2.3754   11.9675 H   0  0  0  0  0  0  0  0  0  0  0  0
   -2.9464   -1.5383   13.8278 H   0  0  0  0  0  0  0  0  0  0  0  0
   -1.3446   -0.8050   14.0938 H   0  0  0  0  0  0  0  0  0  0  0  0
   -3.5889   -2.3038   11.2993 H   0  0  0  0  0  0  0  0  0  0  0  0
   -5.7824    4.6858    0.3745 H   0  0  0  0  0  0  0  0  0  0  0  0
   -5.2119    6.2689   -1.4152 H   0  0  0  0  0  0  0  0  0  0  0  0
   -2.2131    8.1589   -1.6229 H   0  0  0  0  0  0  0  0  0  0  0  0
   -3.6563    7.6775   -2.5259 H   0  0  0  0  0  0  0  0  0  0  0  0
   -2.1346    6.8085   -2.7481 H   0  0  0  0  0  0  0  0  0  0  0  0
   -1.1379    6.2395   -0.1517 H   0  0  0  0  0  0  0  0  0  0  0  0
   -1.7069    4.6657    1.6496 H   0  0  0  0  0  0  0  0  0  0  0  0
   -5.7858    1.7488    2.9367 H   0  0  0  0  0  0  0  0  0  0  0  0
   -7.8452    2.0948    4.2213 H   0  0  0  0  0  0  0  0  0  0  0  0
   -8.6216    4.7458    6.1392 H   0  0  0  0  0  0  0  0  0  0  0  0
   -9.4927    5.2365    4.6919 H   0  0  0  0  0  0  0  0  0  0  0  0
   -9.4816    3.5357    5.1825 H   0  0  0  0  0  0  0  0  0  0  0  0
   -7.1559    6.3048    4.2065 H   0  0  0  0  0  0  0  0  0  0  0  0
   -5.0799    5.9648    2.9460 H   0  0  0  0  0  0  0  0  0  0  0  0
    0.9346    0.5957    2.1285 H   0  0  0  0  0  0  0  0  0  0  0  0
    1.8954    0.1136    4.3392 H   0  0  0  0  0  0  0  0  0  0  0  0
    2.6428   -1.6553    5.9430 H   0  0  0  0  0  0  0  0  0  0  0  0
    1.8239   -3.2263    5.9588 H   0  0  0  0  0  0  0  0  0  0  0  0
    0.9890   -1.7836    6.5375 H   0  0  0  0  0  0  0  0  0  0  0  0
    0.2930   -3.8355    4.1762 H   0  0  0  0  0  0  0  0  0  0  0  0
   -0.6855   -3.3517    1.9741 H   0  0  0  0  0  0  0  0  0  0  0  0
    1.4567   -2.6191    0.0759 H   0  0  0  0  0  0  0  0  0  0  0  0
    1.5849   -4.1396   -1.8508 H   0  0  0  0  0  0  0  0  0  0  0  0
   -1.1841   -4.5628   -4.3487 H   0  0  0  0  0  0  0  0  0  0  0  0
   -0.0817   -5.6209   -3.4610 H   0  0  0  0  0  0  0  0  0  0  0  0
    0.5591   -4.2642   -4.3807 H   0  0  0  0  0  0  0  0  0  0  0  0
   -2.4098   -3.1098   -2.9315 H   0  0  0  0  0  0  0  0  0  0  0  0
   -2.5568   -1.6195   -0.9944 H   0  0  0  0  0  0  0  0  0  0  0  0
   -1.1387   -0.0731   -6.4219 H   0  0  0  0  0  0  0  0  0  0  0  0
   -3.3524    0.8664   -7.3131 H   0  0  0  0  0  0  0  0  0  0  0  0
   -4.2368    1.9357   -6.2111 H   0  0  0  0  0  0  0  0  0  0  0  0
   -4.5276   -1.1056   -6.3225 H   0  0  0  0  0  0  0  0  0  0  0  0
   -5.6871    0.0681   -6.9541 H   0  0  0  0  0  0  0  0  0  0  0  0
   -5.3918   -0.0346   -5.2152 H   0  0  0  0  0  0  0  0  0  0  0  0
    4.7867   -1.7473   -4.6113 H   0  0  0  0  0  0  0  0  0  0  0  0
    1.7537   -3.0119   -7.3705 H   0  0  0  0  0  0  0  0  0  0  0  0
    0.0800   -1.8126   -6.0639 H   0  0  0  0  0  0  0  0  0  0  0  0
    3.9270   -3.9745   -7.5016 H   0  0  0  0  0  0  0  0  0  0  0  0
    8.4461    0.3168   -7.2306 H   0  0  0  0  0  0  0  0  0  0  0  0
    8.9581   -4.1277   -9.6073 H   0  0  0  0  0  0  0  0  0  0  0  0
   11.1690   -1.8358  -10.8651 H   0  0  0  0  0  0  0  0  0  0  0  0
   12.4887   -3.5089   -9.2671 H   0  0  0  0  0  0  0  0  0  0  0  0
   14.2176   -1.8452  -10.3387 H   0  0  0  0  0  0  0  0  0  0  0  0
   13.9887    0.4953   -9.1025 H   0  0  0  0  0  0  0  0  0  0  0  0
   12.1202    0.2726   -7.2692 H   0  0  0  0  0  0  0  0  0  0  0  0
   11.3435   -2.2976   -7.1598 H   0  0  0  0  0  0  0  0  0  0  0  0
   13.1150   -2.1720   -7.0697 H   0  0  0  0  0  0  0  0  0  0  0  0
   10.9451    0.4595   -9.6527 H   0  0  0  0  0  0  0  0  0  0  0  0
  1  2  2  0  0  0  0
  2  3  1  0  0  0  0
  3  4  2  0  0  0  0
  3  5  1  0  0  0  0
  5  6  2  0  0  0  0
  6  7  1  0  0  0  0
  7  8  2  0  0  0  0
  8  9  1  0  0  0  0
  9 10  2  0  0  0  0
 10 11  1  0  0  0  0
 11 12  2  0  0  0  0
 12 13  1  0  0  0  0
 13 14  3  0  0  0  0
 12 15  1  0  0  0  0
 15 16  3  0  0  0  0
  8 17  1  0  0  0  0
 17 18  1  0  0  0  0
 18 19  1  0  0  0  0
 19 20  2  0  0  0  0
 20 21  1  0  0  0  0
 21 22  1  0  0  0  0
 21 23  1  0  0  0  0
  1 24  1  0  0  0  0
 24 25  2  0  0  0  0
 25 26  1  0  0  0  0
 26 27  1  0  0  0  0
 27 28  2  0  0  0  0
 28 29  1  0  0  0  0
 29 30  2  0  0  0  0
 30 31  1  0  0  0  0
 30 32  1  0  0  0  0
 32 33  2  0  0  0  0
 26 34  1  0  0  0  0
 34 35  2  0  0  0  0
 35 36  1  0  0  0  0
 36 37  2  0  0  0  0
 37 38  1  0  0  0  0
 37 39  1  0  0  0  0
 39 40  2  0  0  0  0
 25 41  1  0  0  0  0
 41 42  1  0  0  0  0
 42 43  1  0  0  0  0
 43 44  2  0  0  0  0
 44 45  1  0  0  0  0
 45 46  1  0  0  0  0
 46 47  2  0  0  0  0
 47 48  1  0  0  0  0
 48 49  2  0  0  0  0
 49 50  1  0  0  0  0
 49 51  1  0  0  0  0
 51 52  2  0  0  0  0
 45 53  1  0  0  0  0
 53 54  2  0  0  0  0
 54 55  1  0  0  0  0
 55 56  2  0  0  0  0
 56 57  1  0  0  0  0
 56 58  1  0  0  0  0
 58 59  2  0  0  0  0
 44 60  1  0  0  0  0
 60 61  1  0  0  0  0
 43 62  1  0  0  0  0
 62 63  1  0  0  0  0
 63 64  1  0  0  0  0
 64 65  2  0  0  0  0
 65 66  1  0  0  0  0
 66 67  2  0  0  0  0
 67 68  1  0  0  0  0
 68 69  1  0  0  0  0
 67 70  1  0  0  0  0
 70 71  1  0  0  0  0
 64 72  1  0  0  0  0
 72 73  2  0  0  0  0
 73 74  1  0  0  0  0
 73 75  1  0  0  0  0
 75 76  2  0  0  0  0
 76 77  1  0  0  0  0
 77 78  2  0  0  0  0
 76 79  1  0  0  0  0
 79 80  2  0  0  0  0
 80 81  1  0  0  0  0
 81 82  2  0  0  0  0
 81 83  1  0  0  0  0
 83 84  2  0  0  0  0
 84 85  1  0  0  0  0
 85 86  2  0  0  0  0
 86 87  1  0  0  0  0
 87 88  2  0  0  0  0
 88 89  1  0  0  0  0
 89 90  2  0  0  0  0
 90 91  1  0  0  0  0
 91 92  3  0  0  0  0
 90 93  1  0  0  0  0
 93 94  3  0  0  0  0
 86 95  1  0  0  0  0
 95 96  1  0  0  0  0
 96 97  1  0  0  0  0
 97 98  2  0  0  0  0
 98 99  1  0  0  0  0
 99100  1  0  0  0  0
 99101  1  0  0  0  0
 11  2  1  0  0  0  0
 23 17  1  0  0  0  0
 61 24  1  0  0  0  0
 71 62  2  0  0  0  0
 78 72  1  0  0  0  0
 89 80  1  0  0  0  0
101 95  1  0  0  0  0
 10  5  1  0  0  0  0
 22 18  1  0  0  0  0
 33 27  1  0  0  0  0
 40 34  1  0  0  0  0
 60 41  2  0  0  0  0
 71 65  1  0  0  0  0
 88 83  1  0  0  0  0
100 96  1  0  0  0  0
 23  7  1  0  0  0  0
 52 46  1  0  0  0  0
 59 53  1  0  0  0  0
101 85  1  0  0  0  0
  1102  1  0  0  0  0
  6103  1  0  0  0  0
  9104  1  0  0  0  0
 17105  1  0  0  0  0
 18106  1  0  0  0  0
 19107  1  0  0  0  0
 20108  1  0  0  0  0
 21109  1  0  0  0  0
 22110  1  0  0  0  0
 22111  1  0  0  0  0
 23112  1  0  0  0  0
 28113  1  0  0  0  0
 29114  1  0  0  0  0
 31115  1  0  0  0  0
 31116  1  0  0  0  0
 31117  1  0  0  0  0
 32118  1  0  0  0  0
 33119  1  0  0  0  0
 35120  1  0  0  0  0
 36121  1  0  0  0  0
 38122  1  0  0  0  0
 38123  1  0  0  0  0
 38124  1  0  0  0  0
 39125  1  0  0  0  0
 40126  1  0  0  0  0
 47127  1  0  0  0  0
 48128  1  0  0  0  0
 50129  1  0  0  0  0
 50130  1  0  0  0  0
 50131  1  0  0  0  0
 51132  1  0  0  0  0
 52133  1  0  0  0  0
 54134  1  0  0  0  0
 55135  1  0  0  0  0
 57136  1  0  0  0  0
 57137  1  0  0  0  0
 57138  1  0  0  0  0
 58139  1  0  0  0  0
 59140  1  0  0  0  0
 66141  1  0  0  0  0
 68142  1  0  0  0  0
 68143  1  0  0  0  0
 69144  1  0  0  0  0
 69145  1  0  0  0  0
 69146  1  0  0  0  0
 75147  1  0  0  0  0
 77148  1  0  0  0  0
 78149  1  0  0  0  0
 79150  1  0  0  0  0
 84151  1  0  0  0  0
 87152  1  0  0  0  0
 95153  1  0  0  0  0
 96154  1  0  0  0  0
 97155  1  0  0  0  0
 98156  1  0  0  0  0
 99157  1  0  0  0  0
100158  1  0  0  0  0
100159  1  0  0  0  0
101160  1  0  0  0  0
M  END
