160

C         -4.46580       -0.43670       -6.95280
C         -5.63360       -1.12700       -7.03340
C         -6.56850       -0.83770       -8.16210
O         -6.31370       -0.22280       -9.17120
C         -7.86340       -1.41160       -7.74990
C         -9.08830       -1.28960       -8.40330
C        -10.13030       -1.91410       -7.76020
C         -9.97200       -2.60850       -6.55240
C         -8.76960       -2.74550       -5.90090
C         -7.69620       -2.12040       -6.54110
C         -6.28690       -2.07930       -6.16770
C         -5.66420       -2.95740       -5.31870
C         -6.32610       -3.92600       -4.53850
N         -6.79960       -4.72940       -3.86860
C         -4.26800       -3.05920       -5.19930
N         -3.13440       -3.21340       -5.08920
C        -11.43590       -2.96180       -6.47070
C        -12.29070       -2.13390       -5.48770
C        -13.70790       -2.35840       -5.96320
C        -13.85810       -1.70340       -7.10740
C        -12.54500       -1.02470       -7.42430
C        -12.06240       -0.70700       -6.00300
C        -11.61230       -2.19020       -7.81790
C         -3.60320       -0.22360       -5.83980
C         -2.31600        0.28840       -6.01620
F         -1.89130        0.54720       -7.26020
C         -1.41660        0.55240       -4.97870
F         -0.25510        1.14650       -5.31300
C         -1.70160        0.31840       -3.63470
C         -3.04590       -0.08880       -3.40500
C         -3.97290       -0.36470       -4.47450
N         -5.11970       -0.69300       -3.91530
O         -4.92400       -0.64210       -2.59240
N         -3.67850       -0.28410       -2.27030
C         -0.81000        0.50270       -2.54670
C          0.59040        0.44430       -2.50870
N          1.41610       -0.00530       -3.50690
C          1.05120       -1.06360       -4.35370
C          0.24560       -2.10240       -3.89510
C         -0.09840       -3.14780       -4.72670
C          0.35130       -3.16710       -6.04220
S         -0.02650       -4.43720       -7.19460
C         -1.14920       -5.53450       -6.28570
C          1.16650       -2.13110       -6.50220
C          1.51640       -1.09420       -5.67000
C          2.72530        0.49700       -3.54940
C          2.94710        1.85850       -3.35130
C          4.23020        2.36150       -3.29970
C          5.31640        1.50750       -3.45130
S          6.98990        2.03760       -3.34410
C          6.86730        3.61760       -2.45710
C          5.09480        0.15440       -3.71000
C          3.81550       -0.34910       -3.75650
C          1.06040        0.79500       -1.21620
S          2.63450        0.93480       -0.52030
C          1.92960        1.28430        1.04830
C          0.53570        1.36890        1.00830
N         -0.27770        1.83030        2.01240
C         -1.62040        1.42210        2.04820
C         -1.96020        0.09670        1.79030
C         -3.28460       -0.28750        1.73090
C         -4.28880        0.65000        1.93780
S         -6.00370        0.27110        1.81730
C         -6.01870       -1.23390        0.80160
C         -3.94780        1.96120        2.26970
C         -2.62770        2.34670        2.32280
C          0.21220        2.68790        3.00810
C         -0.14810        2.49160        4.33920
C          0.48030        3.19910        5.34560
C          1.47230        4.12180        5.03510
S          2.44520        4.95930        6.24270
C          2.28150        3.89160        7.70140
C          1.73720        4.41250        3.69650
C          1.11250        3.70700        2.69350
C          0.06110        1.05080       -0.29200
S         -1.51610        0.86960       -0.97890
C          2.78830        1.46180        2.18130
C          3.99360        2.14540        2.14000
F          4.43080        2.64720        0.96960
C          4.76510        2.43300        3.28040
F          5.87370        3.16410        3.09820
C          4.44830        1.99930        4.55530
C          3.25530        1.23630        4.63250
C          2.44990        0.96680        3.47090
N          1.42440        0.24120        3.86710
O          1.56230        0.08650        5.17900
N          2.64460        0.69160        5.66530
C          5.22260        2.33620        5.72090
C          5.49310        1.45130        6.70940
C          5.37710       -0.02810        6.54610
O          5.03720       -0.62940        5.55130
C          5.90540       -0.60700        7.79100
C          5.99990       -1.96240        8.10320
C          6.56150       -2.21660        9.33070
C          7.00660       -1.19770       10.18560
C          6.92350        0.14150        9.89000
C          6.34860        0.42430        8.64570
C          6.09530        1.71020        8.00630
C          6.31100        2.94260        8.56150
C          5.99150        4.17300        7.94700
N          5.74210        5.21210        7.52760
C          6.86230        3.16010        9.84230
N          7.30330        3.41180       10.87160
C          7.47450       -2.17350       11.23580
C          8.99480       -2.42980       11.30890
C          9.10540       -3.73840       12.05780
C          8.68320       -4.70260       11.24980
C          8.28020       -4.06210        9.94120
C          9.29730       -2.91490        9.88520
C          6.97700       -3.30860       10.28430
H         -4.18800        0.09280       -7.85970
H         -9.17030       -0.74770       -9.33240
H         -8.65620       -3.27650       -4.97010
H        -11.66640       -4.02500       -6.44410
H        -12.09030       -2.32610       -4.43720
H        -14.41470       -2.99450       -5.46360
H        -14.71540       -1.68310       -7.75430
H        -12.57700       -0.20590       -8.13790
H        -12.70340        0.01770       -5.50380
H        -11.02720       -0.37550       -5.94870
H        -11.96100       -2.73890       -8.69070
H         -0.10380       -2.10240       -2.87310
H         -0.71960       -3.93540       -4.33780
H         -0.61320       -6.02600       -5.47870
H         -1.99260       -4.96000       -5.91360
H         -1.48740       -6.27220       -7.00670
H          1.51150       -2.14900       -7.52420
H          2.13100       -0.28590       -6.03510
H          2.10310        2.52310       -3.24140
H          4.37230        3.41810       -3.14330
H          6.24670        3.48820       -1.57550
H          6.47380        4.39020       -3.11130
H          7.88170        3.86980       -2.16430
H          5.94270       -0.49830       -3.84750
H          3.65150       -1.40270       -3.92420
H         -1.17750       -0.63230        1.64470
H         -3.52250       -1.31750        1.52330
H         -7.04940       -1.36930        0.48950
H         -5.69990       -2.09060        1.38830
H         -5.38470       -1.08590       -0.06690
H         -4.73360        2.67590        2.45860
H         -2.36590        3.36910        2.55070
H         -0.88670        1.74400        4.58520
H          0.20950        3.00200        6.37000
H          1.30010        4.00960        8.15140
H          2.46580        2.85860        7.41750
H          3.04370        4.23420        8.39440
H          2.45500        5.18250        3.46040
H          1.33910        3.92110        1.65980
H          5.59720        3.35120        5.76410
H          5.64500       -2.71330        7.41510
H          7.27450        0.91190       10.55600
H          7.01190       -2.07340       12.21560
H          9.57860       -1.59660       11.69010
H          9.41730       -3.81850       13.08240
H          8.57170       -5.74910       11.46480
H          8.21360       -4.71610        9.07600
H         10.31910       -3.27610        9.78240
H          9.09280       -2.17730        9.11130
H          6.18230       -3.96750       10.62880
