
  xtb     02062219473D
 energy: -364.596589548705 gnorm: 0.000969486375 xtb: 6.4.1 (unknown)
222244  0     0  0            999 V2000
    2.6724   -0.7633   -9.5466 C   0  0  0  0  0  0  0  0  0  0  0  0
    1.4677   -1.0059  -10.1712 C   0  0  0  0  0  0  0  0  0  0  0  0
    0.3140   -1.6450   -9.5432 C   0  0  0  0  0  0  0  0  0  0  0  0
    0.2414   -2.0887   -8.4056 O   0  0  0  0  0  0  0  0  0  0  0  0
   -0.7467   -1.6858  -10.5606 C   0  0  0  0  0  0  0  0  0  0  0  0
   -2.0443   -2.1638  -10.4023 C   0  0  0  0  0  0  0  0  0  0  0  0
   -2.8318   -2.0181  -11.5193 C   0  0  0  0  0  0  0  0  0  0  0  0
   -2.3584   -1.4517  -12.7088 C   0  0  0  0  0  0  0  0  0  0  0  0
   -1.0758   -0.9853  -12.8806 C   0  0  0  0  0  0  0  0  0  0  0  0
   -0.2625   -1.1114  -11.7526 C   0  0  0  0  0  0  0  0  0  0  0  0
    1.1180   -0.6779  -11.5315 C   0  0  0  0  0  0  0  0  0  0  0  0
    1.8889    0.0051  -12.4424 C   0  0  0  0  0  0  0  0  0  0  0  0
    1.4846    0.3292  -13.7522 C   0  0  0  0  0  0  0  0  0  0  0  0
    1.2324    0.6342  -14.8309 N   0  0  0  0  0  0  0  0  0  0  0  0
    3.1757    0.5207  -12.1949 C   0  0  0  0  0  0  0  0  0  0  0  0
    4.2092    1.0056  -12.0556 N   0  0  0  0  0  0  0  0  0  0  0  0
   -3.6913   -1.5930  -13.4010 C   0  0  0  0  0  0  0  0  0  0  0  0
   -4.5336   -0.3057  -13.5274 C   0  0  0  0  0  0  0  0  0  0  0  0
   -5.9337   -0.8135  -13.7856 C   0  0  0  0  0  0  0  0  0  0  0  0
   -6.3830   -1.3487  -12.6577 C   0  0  0  0  0  0  0  0  0  0  0  0
   -5.2936   -1.2117  -11.6187 C   0  0  0  0  0  0  0  0  0  0  0  0
   -4.6727    0.1203  -12.0599 C   0  0  0  0  0  0  0  0  0  0  0  0
   -4.2199   -2.2235  -12.0729 C   0  0  0  0  0  0  0  0  0  0  0  0
    2.9728   -0.8026   -8.1850 C   0  0  0  0  0  0  0  0  0  0  0  0
    4.1920   -0.3534   -7.6588 C   0  0  0  0  0  0  0  0  0  0  0  0
    4.1788   -0.1930   -6.2862 C   0  0  0  0  0  0  0  0  0  0  0  0
    5.1572    0.2533   -5.4717 O   0  0  0  0  0  0  0  0  0  0  0  0
    6.4431    0.4860   -6.0195 C   0  0  0  0  0  0  0  0  0  0  0  0
    7.3415    0.9445   -4.8834 C   0  0  0  0  0  0  0  0  0  0  0  0
    2.9252   -0.4944   -5.7201 C   0  0  0  0  0  0  0  0  0  0  0  0
    1.8412   -1.1482   -6.9022 S   0  0  0  0  0  0  0  0  0  0  0  0
    2.5991   -0.3068   -4.3625 C   0  0  0  0  0  0  0  0  0  0  0  0
    1.3473   -0.2469   -3.7373 C   0  0  0  0  0  0  0  0  0  0  0  0
    0.1065   -0.1619   -4.3361 N   0  0  0  0  0  0  0  0  0  0  0  0
   -0.1449    0.4497   -5.5640 C   0  0  0  0  0  0  0  0  0  0  0  0
   -1.2187   -0.0021   -6.3359 C   0  0  0  0  0  0  0  0  0  0  0  0
   -1.4074    0.4775   -7.6102 C   0  0  0  0  0  0  0  0  0  0  0  0
   -0.5328    1.4209   -8.1460 C   0  0  0  0  0  0  0  0  0  0  0  0
   -0.7703    1.8490   -9.8431 S   0  0  0  0  0  0  0  0  0  0  0  0
    0.7670    2.7069  -10.2861 C   0  0  0  0  0  0  0  0  0  0  0  0
    0.4693    1.9524   -7.3462 C   0  0  0  0  0  0  0  0  0  0  0  0
    0.6555    1.4755   -6.0633 C   0  0  0  0  0  0  0  0  0  0  0  0
   -1.0034   -0.5336   -3.5335 C   0  0  0  0  0  0  0  0  0  0  0  0
   -1.1878   -1.8625   -3.1637 C   0  0  0  0  0  0  0  0  0  0  0  0
   -2.1430   -2.1925   -2.2260 C   0  0  0  0  0  0  0  0  0  0  0  0
   -2.9236   -1.1953   -1.6479 C   0  0  0  0  0  0  0  0  0  0  0  0
   -4.0012   -1.6549   -0.3254 S   0  0  0  0  0  0  0  0  0  0  0  0
   -3.9936   -0.1533    0.7022 C   0  0  0  0  0  0  0  0  0  0  0  0
   -2.8235    0.1125   -2.1066 C   0  0  0  0  0  0  0  0  0  0  0  0
   -1.8685    0.4412   -3.0480 C   0  0  0  0  0  0  0  0  0  0  0  0
    1.5071   -0.2494   -2.3306 C   0  0  0  0  0  0  0  0  0  0  0  0
    0.3870   -0.2507   -1.0188 S   0  0  0  0  0  0  0  0  0  0  0  0
    1.7065   -0.3211    0.1372 C   0  0  0  0  0  0  0  0  0  0  0  0
    2.9494   -0.2096   -0.4673 C   0  0  0  0  0  0  0  0  0  0  0  0
    4.1126    0.0024    0.2453 N   0  0  0  0  0  0  0  0  0  0  0  0
    5.3838   -0.1890   -0.3083 C   0  0  0  0  0  0  0  0  0  0  0  0
    6.4144    0.7096   -0.0222 C   0  0  0  0  0  0  0  0  0  0  0  0
    7.6622    0.5349   -0.5750 C   0  0  0  0  0  0  0  0  0  0  0  0
    7.9174   -0.5364   -1.4301 C   0  0  0  0  0  0  0  0  0  0  0  0
    9.5492   -0.6367   -2.1011 S   0  0  0  0  0  0  0  0  0  0  0  0
    9.4991   -2.1174   -3.1513 C   0  0  0  0  0  0  0  0  0  0  0  0
    6.9021   -1.4397   -1.7052 C   0  0  0  0  0  0  0  0  0  0  0  0
    5.6500   -1.2664   -1.1461 C   0  0  0  0  0  0  0  0  0  0  0  0
    3.9983    0.6580    1.4905 C   0  0  0  0  0  0  0  0  0  0  0  0
    4.6870    0.1843    2.6001 C   0  0  0  0  0  0  0  0  0  0  0  0
    4.4977    0.7666    3.8407 C   0  0  0  0  0  0  0  0  0  0  0  0
    3.6035    1.8191    3.9874 C   0  0  0  0  0  0  0  0  0  0  0  0
    3.2068    2.5446    5.5490 S   0  0  0  0  0  0  0  0  0  0  0  0
    3.4515    1.1590    6.6997 C   0  0  0  0  0  0  0  0  0  0  0  0
    2.9781    2.3487    2.8617 C   0  0  0  0  0  0  0  0  0  0  0  0
    3.1800    1.7792    1.6259 C   0  0  0  0  0  0  0  0  0  0  0  0
    2.8205   -0.2229   -1.8821 C   0  0  0  0  0  0  0  0  0  0  0  0
    3.9294   -0.1743   -3.2077 S   0  0  0  0  0  0  0  0  0  0  0  0
    1.3163   -0.4683    1.5121 C   0  0  0  0  0  0  0  0  0  0  0  0
    1.5924   -1.4850    2.4138 C   0  0  0  0  0  0  0  0  0  0  0  0
    2.4150   -2.5741    2.1893 N   0  0  0  0  0  0  0  0  0  0  0  0
    2.9949   -3.2402    3.2815 C   0  0  0  0  0  0  0  0  0  0  0  0
    3.5123   -2.5232    4.3599 C   0  0  0  0  0  0  0  0  0  0  0  0
    4.0723   -3.1815    5.4315 C   0  0  0  0  0  0  0  0  0  0  0  0
    4.1320   -4.5728    5.4543 C   0  0  0  0  0  0  0  0  0  0  0  0
    4.8753   -5.3038    6.8780 S   0  0  0  0  0  0  0  0  0  0  0  0
    4.6249   -7.0851    6.6376 C   0  0  0  0  0  0  0  0  0  0  0  0
    3.6232   -5.2918    4.3806 C   0  0  0  0  0  0  0  0  0  0  0  0
    3.0570   -4.6307    3.3089 C   0  0  0  0  0  0  0  0  0  0  0  0
    2.5778   -3.1068    0.9026 C   0  0  0  0  0  0  0  0  0  0  0  0
    3.8158   -3.6191    0.5161 C   0  0  0  0  0  0  0  0  0  0  0  0
    4.0044   -4.0882   -0.7650 C   0  0  0  0  0  0  0  0  0  0  0  0
    2.9737   -4.0280   -1.7023 C   0  0  0  0  0  0  0  0  0  0  0  0
    3.3790   -4.5266   -3.3483 S   0  0  0  0  0  0  0  0  0  0  0  0
    1.9409   -4.0158   -4.3264 C   0  0  0  0  0  0  0  0  0  0  0  0
    1.7222   -3.5821   -1.3019 C   0  0  0  0  0  0  0  0  0  0  0  0
    1.5237   -3.1442   -0.0064 C   0  0  0  0  0  0  0  0  0  0  0  0
    0.8410   -1.3159    3.6054 C   0  0  0  0  0  0  0  0  0  0  0  0
    0.6033   -2.2928    5.0097 S   0  0  0  0  0  0  0  0  0  0  0  0
   -0.6349   -1.1813    5.6176 C   0  0  0  0  0  0  0  0  0  0  0  0
   -0.8704   -0.1260    4.7168 C   0  0  0  0  0  0  0  0  0  0  0  0
   -1.8688    0.8092    4.7775 N   0  0  0  0  0  0  0  0  0  0  0  0
   -3.0992    0.5475    5.3856 C   0  0  0  0  0  0  0  0  0  0  0  0
   -3.7409    1.5381    6.1267 C   0  0  0  0  0  0  0  0  0  0  0  0
   -4.9206    1.2687    6.7936 C   0  0  0  0  0  0  0  0  0  0  0  0
   -5.4829    0.0006    6.7290 C   0  0  0  0  0  0  0  0  0  0  0  0
   -6.9339   -0.4848    7.5984 S   0  0  0  0  0  0  0  0  0  0  0  0
   -7.1996    0.8672    8.7799 C   0  0  0  0  0  0  0  0  0  0  0  0
   -4.8800   -0.9738    5.9300 C   0  0  0  0  0  0  0  0  0  0  0  0
   -3.7051   -0.7064    5.2687 C   0  0  0  0  0  0  0  0  0  0  0  0
   -1.6488    2.0730    4.1954 C   0  0  0  0  0  0  0  0  0  0  0  0
   -0.4543    2.7544    4.4246 C   0  0  0  0  0  0  0  0  0  0  0  0
   -0.2560    3.9968    3.8687 C   0  0  0  0  0  0  0  0  0  0  0  0
   -1.2349    4.5781    3.0630 C   0  0  0  0  0  0  0  0  0  0  0  0
   -0.8529    6.1653    2.3954 S   0  0  0  0  0  0  0  0  0  0  0  0
   -2.3845    6.6779    1.5657 C   0  0  0  0  0  0  0  0  0  0  0  0
   -2.4250    3.8999    2.8347 C   0  0  0  0  0  0  0  0  0  0  0  0
   -2.6306    2.6568    3.4029 C   0  0  0  0  0  0  0  0  0  0  0  0
   -0.0041   -0.2178    3.6038 C   0  0  0  0  0  0  0  0  0  0  0  0
    0.0949    0.6502    2.1133 S   0  0  0  0  0  0  0  0  0  0  0  0
   -1.2554   -1.5283    6.8233 C   0  0  0  0  0  0  0  0  0  0  0  0
   -1.9146   -0.6669    7.6720 C   0  0  0  0  0  0  0  0  0  0  0  0
   -1.6087    0.7674    7.7808 C   0  0  0  0  0  0  0  0  0  0  0  0
   -0.7827    1.3963    7.1449 O   0  0  0  0  0  0  0  0  0  0  0  0
   -2.4086    1.2632    8.9218 C   0  0  0  0  0  0  0  0  0  0  0  0
   -2.4574    2.5657    9.4100 C   0  0  0  0  0  0  0  0  0  0  0  0
   -3.3130    2.7341   10.4733 C   0  0  0  0  0  0  0  0  0  0  0  0
   -4.0549    1.6808   11.0210 C   0  0  0  0  0  0  0  0  0  0  0  0
   -4.0082    0.3873   10.5541 C   0  0  0  0  0  0  0  0  0  0  0  0
   -3.1528    0.1989    9.4655 C   0  0  0  0  0  0  0  0  0  0  0  0
   -2.8772   -1.0059    8.6842 C   0  0  0  0  0  0  0  0  0  0  0  0
   -3.5472   -2.2006    8.7845 C   0  0  0  0  0  0  0  0  0  0  0  0
   -4.5507   -2.4730    9.7332 C   0  0  0  0  0  0  0  0  0  0  0  0
   -5.3684   -2.7497   10.4912 N   0  0  0  0  0  0  0  0  0  0  0  0
   -3.3559   -3.2820    7.9020 C   0  0  0  0  0  0  0  0  0  0  0  0
   -3.2726   -4.1848    7.1965 N   0  0  0  0  0  0  0  0  0  0  0  0
   -4.6917    2.5643   12.0662 C   0  0  0  0  0  0  0  0  0  0  0  0
   -4.1280    2.4558   13.4982 C   0  0  0  0  0  0  0  0  0  0  0  0
   -4.5830    3.7343   14.1645 C   0  0  0  0  0  0  0  0  0  0  0  0
   -3.8786    4.7322   13.6461 C   0  0  0  0  0  0  0  0  0  0  0  0
   -2.9358    4.1449   12.6207 C   0  0  0  0  0  0  0  0  0  0  0  0
   -2.6469    2.7875   13.2746 C   0  0  0  0  0  0  0  0  0  0  0  0
   -3.8630    3.7400   11.4554 C   0  0  0  0  0  0  0  0  0  0  0  0
    3.4937   -0.4211  -10.1645 H   0  0  0  0  0  0  0  0  0  0  0  0
   -2.3663   -2.5941   -9.4666 H   0  0  0  0  0  0  0  0  0  0  0  0
   -0.7288   -0.5536  -13.8042 H   0  0  0  0  0  0  0  0  0  0  0  0
   -3.6992   -2.1986  -14.3052 H   0  0  0  0  0  0  0  0  0  0  0  0
   -4.1412    0.4273  -14.2267 H   0  0  0  0  0  0  0  0  0  0  0  0
   -6.4160   -0.7829  -14.7450 H   0  0  0  0  0  0  0  0  0  0  0  0
   -7.3152   -1.8547  -12.4868 H   0  0  0  0  0  0  0  0  0  0  0  0
   -5.5955   -1.3041  -10.5786 H   0  0  0  0  0  0  0  0  0  0  0  0
   -3.7278    0.3562  -11.5736 H   0  0  0  0  0  0  0  0  0  0  0  0
   -5.3616    0.9547  -11.9383 H   0  0  0  0  0  0  0  0  0  0  0  0
   -4.5814   -3.2502  -12.0909 H   0  0  0  0  0  0  0  0  0  0  0  0
    5.0209   -0.1082   -8.2985 H   0  0  0  0  0  0  0  0  0  0  0  0
    6.3839    1.2552   -6.8010 H   0  0  0  0  0  0  0  0  0  0  0  0
    6.8236   -0.4412   -6.4698 H   0  0  0  0  0  0  0  0  0  0  0  0
    8.3633    1.0546   -5.2337 H   0  0  0  0  0  0  0  0  0  0  0  0
    7.3099    0.2194   -4.0753 H   0  0  0  0  0  0  0  0  0  0  0  0
    6.9937    1.8964   -4.4922 H   0  0  0  0  0  0  0  0  0  0  0  0
   -1.8706   -0.7672   -5.9439 H   0  0  0  0  0  0  0  0  0  0  0  0
   -2.2106    0.0993   -8.2237 H   0  0  0  0  0  0  0  0  0  0  0  0
    1.6216    2.1029   -9.9931 H   0  0  0  0  0  0  0  0  0  0  0  0
    0.8002    3.6877   -9.8206 H   0  0  0  0  0  0  0  0  0  0  0  0
    0.7427    2.8184  -11.3661 H   0  0  0  0  0  0  0  0  0  0  0  0
    1.1226    2.7275   -7.7138 H   0  0  0  0  0  0  0  0  0  0  0  0
    1.4500    1.8826   -5.4560 H   0  0  0  0  0  0  0  0  0  0  0  0
   -0.5585   -2.6215   -3.6020 H   0  0  0  0  0  0  0  0  0  0  0  0
   -2.2717   -3.2148   -1.9053 H   0  0  0  0  0  0  0  0  0  0  0  0
   -2.9782    0.2267    0.7722 H   0  0  0  0  0  0  0  0  0  0  0  0
   -4.6655    0.5947    0.2913 H   0  0  0  0  0  0  0  0  0  0  0  0
   -4.3473   -0.4625    1.6813 H   0  0  0  0  0  0  0  0  0  0  0  0
   -3.4664    0.8831   -1.7124 H   0  0  0  0  0  0  0  0  0  0  0  0
   -1.7590    1.4627   -3.3810 H   0  0  0  0  0  0  0  0  0  0  0  0
    6.2272    1.5508    0.6283 H   0  0  0  0  0  0  0  0  0  0  0  0
    8.4554    1.2345   -0.3603 H   0  0  0  0  0  0  0  0  0  0  0  0
    8.7555   -1.9960   -3.9335 H   0  0  0  0  0  0  0  0  0  0  0  0
   10.4881   -2.1949   -3.5920 H   0  0  0  0  0  0  0  0  0  0  0  0
    9.2959   -2.9961   -2.5462 H   0  0  0  0  0  0  0  0  0  0  0  0
    7.0623   -2.2879   -2.3506 H   0  0  0  0  0  0  0  0  0  0  0  0
    4.8778   -1.9879   -1.3502 H   0  0  0  0  0  0  0  0  0  0  0  0
    5.3605   -0.6531    2.4918 H   0  0  0  0  0  0  0  0  0  0  0  0
    5.0440    0.3865    4.6903 H   0  0  0  0  0  0  0  0  0  0  0  0
    2.9974    0.2627    6.2874 H   0  0  0  0  0  0  0  0  0  0  0  0
    2.9390    1.4420    7.6139 H   0  0  0  0  0  0  0  0  0  0  0  0
    4.5088    1.0091    6.9005 H   0  0  0  0  0  0  0  0  0  0  0  0
    2.3214    3.1969    2.9688 H   0  0  0  0  0  0  0  0  0  0  0  0
    2.6802    2.1856    0.7591 H   0  0  0  0  0  0  0  0  0  0  0  0
    3.4747   -1.4456    4.3432 H   0  0  0  0  0  0  0  0  0  0  0  0
    4.4718   -2.6261    6.2664 H   0  0  0  0  0  0  0  0  0  0  0  0
    3.5644   -7.2979    6.5404 H   0  0  0  0  0  0  0  0  0  0  0  0
    5.0159   -7.5579    7.5332 H   0  0  0  0  0  0  0  0  0  0  0  0
    5.1803   -7.4279    5.7692 H   0  0  0  0  0  0  0  0  0  0  0  0
    3.6518   -6.3691    4.3675 H   0  0  0  0  0  0  0  0  0  0  0  0
    2.6534   -5.1997    2.4846 H   0  0  0  0  0  0  0  0  0  0  0  0
    4.6338   -3.6288    1.2206 H   0  0  0  0  0  0  0  0  0  0  0  0
    4.9638   -4.4817   -1.0650 H   0  0  0  0  0  0  0  0  0  0  0  0
    2.2094   -4.1844   -5.3647 H   0  0  0  0  0  0  0  0  0  0  0  0
    1.7511   -2.9581   -4.1685 H   0  0  0  0  0  0  0  0  0  0  0  0
    1.0781   -4.6242   -4.0695 H   0  0  0  0  0  0  0  0  0  0  0  0
    0.8867   -3.5764   -1.9819 H   0  0  0  0  0  0  0  0  0  0  0  0
    0.5373   -2.8306    0.3005 H   0  0  0  0  0  0  0  0  0  0  0  0
   -3.2982    2.5204    6.1942 H   0  0  0  0  0  0  0  0  0  0  0  0
   -5.3799    2.0514    7.3754 H   0  0  0  0  0  0  0  0  0  0  0  0
   -6.2859    1.0461    9.3398 H   0  0  0  0  0  0  0  0  0  0  0  0
   -7.5308    1.7629    8.2621 H   0  0  0  0  0  0  0  0  0  0  0  0
   -7.9808    0.5171    9.4473 H   0  0  0  0  0  0  0  0  0  0  0  0
   -5.3397   -1.9470    5.8508 H   0  0  0  0  0  0  0  0  0  0  0  0
   -3.2424   -1.4743    4.6673 H   0  0  0  0  0  0  0  0  0  0  0  0
    0.2901    2.3191    5.0715 H   0  0  0  0  0  0  0  0  0  0  0  0
    0.6532    4.5433    4.0687 H   0  0  0  0  0  0  0  0  0  0  0  0
   -2.5950    6.0202    0.7273 H   0  0  0  0  0  0  0  0  0  0  0  0
   -2.1972    7.6843    1.2046 H   0  0  0  0  0  0  0  0  0  0  0  0
   -3.2048    6.6882    2.2773 H   0  0  0  0  0  0  0  0  0  0  0  0
   -3.2000    4.3240    2.2169 H   0  0  0  0  0  0  0  0  0  0  0  0
   -3.5592    2.1324    3.2279 H   0  0  0  0  0  0  0  0  0  0  0  0
   -1.1759   -2.5717    7.1041 H   0  0  0  0  0  0  0  0  0  0  0  0
   -1.8684    3.3496    8.9595 H   0  0  0  0  0  0  0  0  0  0  0  0
   -4.5771   -0.4173   10.9904 H   0  0  0  0  0  0  0  0  0  0  0  0
   -5.7788    2.6251   12.0410 H   0  0  0  0  0  0  0  0  0  0  0  0
   -4.3624    1.5266   14.0103 H   0  0  0  0  0  0  0  0  0  0  0  0
   -5.3822    3.7862   14.8805 H   0  0  0  0  0  0  0  0  0  0  0  0
   -3.9719    5.7843   13.8425 H   0  0  0  0  0  0  0  0  0  0  0  0
   -2.0831    4.7546   12.3338 H   0  0  0  0  0  0  0  0  0  0  0  0
   -2.1277    2.0842   12.6262 H   0  0  0  0  0  0  0  0  0  0  0  0
   -2.1021    2.8896   14.2116 H   0  0  0  0  0  0  0  0  0  0  0  0
   -4.3980    4.5850   11.0247 H   0  0  0  0  0  0  0  0  0  0  0  0
  1  2  2  0  0  0  0
  2  3  1  0  0  0  0
  3  4  2  0  0  0  0
  3  5  1  0  0  0  0
  5  6  2  0  0  0  0
  6  7  1  0  0  0  0
  7  8  2  0  0  0  0
  8  9  1  0  0  0  0
  9 10  2  0  0  0  0
 10 11  1  0  0  0  0
 11 12  2  0  0  0  0
 12 13  1  0  0  0  0
 13 14  3  0  0  0  0
 12 15  1  0  0  0  0
 15 16  3  0  0  0  0
  8 17  1  0  0  0  0
 17 18  1  0  0  0  0
 18 19  1  0  0  0  0
 19 20  2  0  0  0  0
 20 21  1  0  0  0  0
 21 22  1  0  0  0  0
 21 23  1  0  0  0  0
  1 24  1  0  0  0  0
 24 25  2  0  0  0  0
 25 26  1  0  0  0  0
 26 27  1  0  0  0  0
 27 28  1  0  0  0  0
 28 29  1  0  0  0  0
 26 30  2  0  0  0  0
 30 31  1  0  0  0  0
 30 32  1  0  0  0  0
 32 33  2  0  0  0  0
 33 34  1  0  0  0  0
 34 35  1  0  0  0  0
 35 36  2  0  0  0  0
 36 37  1  0  0  0  0
 37 38  2  0  0  0  0
 38 39  1  0  0  0  0
 39 40  1  0  0  0  0
 38 41  1  0  0  0  0
 41 42  2  0  0  0  0
 34 43  1  0  0  0  0
 43 44  2  0  0  0  0
 44 45  1  0  0  0  0
 45 46  2  0  0  0  0
 46 47  1  0  0  0  0
 47 48  1  0  0  0  0
 46 49  1  0  0  0  0
 49 50  2  0  0  0  0
 33 51  1  0  0  0  0
 51 52  1  0  0  0  0
 52 53  1  0  0  0  0
 53 54  2  0  0  0  0
 54 55  1  0  0  0  0
 55 56  1  0  0  0  0
 56 57  2  0  0  0  0
 57 58  1  0  0  0  0
 58 59  2  0  0  0  0
 59 60  1  0  0  0  0
 60 61  1  0  0  0  0
 59 62  1  0  0  0  0
 62 63  2  0  0  0  0
 55 64  1  0  0  0  0
 64 65  2  0  0  0  0
 65 66  1  0  0  0  0
 66 67  2  0  0  0  0
 67 68  1  0  0  0  0
 68 69  1  0  0  0  0
 67 70  1  0  0  0  0
 70 71  2  0  0  0  0
 54 72  1  0  0  0  0
 72 73  1  0  0  0  0
 53 74  1  0  0  0  0
 74 75  2  0  0  0  0
 75 76  1  0  0  0  0
 76 77  1  0  0  0  0
 77 78  2  0  0  0  0
 78 79  1  0  0  0  0
 79 80  2  0  0  0  0
 80 81  1  0  0  0  0
 81 82  1  0  0  0  0
 80 83  1  0  0  0  0
 83 84  2  0  0  0  0
 76 85  1  0  0  0  0
 85 86  2  0  0  0  0
 86 87  1  0  0  0  0
 87 88  2  0  0  0  0
 88 89  1  0  0  0  0
 89 90  1  0  0  0  0
 88 91  1  0  0  0  0
 91 92  2  0  0  0  0
 75 93  1  0  0  0  0
 93 94  1  0  0  0  0
 94 95  1  0  0  0  0
 95 96  2  0  0  0  0
 96 97  1  0  0  0  0
 97 98  1  0  0  0  0
 98 99  2  0  0  0  0
 99100  1  0  0  0  0
100101  2  0  0  0  0
101102  1  0  0  0  0
102103  1  0  0  0  0
101104  1  0  0  0  0
104105  2  0  0  0  0
 97106  1  0  0  0  0
106107  2  0  0  0  0
107108  1  0  0  0  0
108109  2  0  0  0  0
109110  1  0  0  0  0
110111  1  0  0  0  0
109112  1  0  0  0  0
112113  2  0  0  0  0
 96114  1  0  0  0  0
114115  1  0  0  0  0
 95116  1  0  0  0  0
116117  2  0  0  0  0
117118  1  0  0  0  0
118119  2  0  0  0  0
118120  1  0  0  0  0
120121  2  0  0  0  0
121122  1  0  0  0  0
122123  2  0  0  0  0
123124  1  0  0  0  0
124125  2  0  0  0  0
125126  1  0  0  0  0
126127  2  0  0  0  0
127128  1  0  0  0  0
128129  3  0  0  0  0
127130  1  0  0  0  0
130131  3  0  0  0  0
123132  1  0  0  0  0
132133  1  0  0  0  0
133134  1  0  0  0  0
134135  2  0  0  0  0
135136  1  0  0  0  0
136137  1  0  0  0  0
136138  1  0  0  0  0
 11  2  1  0  0  0  0
 23 17  1  0  0  0  0
 31 24  1  0  0  0  0
 73 32  1  0  0  0  0
115 74  1  0  0  0  0
126117  1  0  0  0  0
138132  1  0  0  0  0
 10  5  1  0  0  0  0
 22 18  1  0  0  0  0
 42 35  1  0  0  0  0
 50 43  1  0  0  0  0
 72 51  2  0  0  0  0
 84 77  1  0  0  0  0
 92 85  1  0  0  0  0
114 93  2  0  0  0  0
125120  1  0  0  0  0
137133  1  0  0  0  0
 23  7  1  0  0  0  0
 63 56  1  0  0  0  0
 71 64  1  0  0  0  0
105 98  1  0  0  0  0
113106  1  0  0  0  0
138122  1  0  0  0  0
  1139  1  0  0  0  0
  6140  1  0  0  0  0
  9141  1  0  0  0  0
 17142  1  0  0  0  0
 18143  1  0  0  0  0
 19144  1  0  0  0  0
 20145  1  0  0  0  0
 21146  1  0  0  0  0
 22147  1  0  0  0  0
 22148  1  0  0  0  0
 23149  1  0  0  0  0
 25150  1  0  0  0  0
 28151  1  0  0  0  0
 28152  1  0  0  0  0
 29153  1  0  0  0  0
 29154  1  0  0  0  0
 29155  1  0  0  0  0
 36156  1  0  0  0  0
 37157  1  0  0  0  0
 40158  1  0  0  0  0
 40159  1  0  0  0  0
 40160  1  0  0  0  0
 41161  1  0  0  0  0
 42162  1  0  0  0  0
 44163  1  0  0  0  0
 45164  1  0  0  0  0
 48165  1  0  0  0  0
 48166  1  0  0  0  0
 48167  1  0  0  0  0
 49168  1  0  0  0  0
 50169  1  0  0  0  0
 57170  1  0  0  0  0
 58171  1  0  0  0  0
 61172  1  0  0  0  0
 61173  1  0  0  0  0
 61174  1  0  0  0  0
 62175  1  0  0  0  0
 63176  1  0  0  0  0
 65177  1  0  0  0  0
 66178  1  0  0  0  0
 69179  1  0  0  0  0
 69180  1  0  0  0  0
 69181  1  0  0  0  0
 70182  1  0  0  0  0
 71183  1  0  0  0  0
 78184  1  0  0  0  0
 79185  1  0  0  0  0
 82186  1  0  0  0  0
 82187  1  0  0  0  0
 82188  1  0  0  0  0
 83189  1  0  0  0  0
 84190  1  0  0  0  0
 86191  1  0  0  0  0
 87192  1  0  0  0  0
 90193  1  0  0  0  0
 90194  1  0  0  0  0
 90195  1  0  0  0  0
 91196  1  0  0  0  0
 92197  1  0  0  0  0
 99198  1  0  0  0  0
100199  1  0  0  0  0
103200  1  0  0  0  0
103201  1  0  0  0  0
103202  1  0  0  0  0
104203  1  0  0  0  0
105204  1  0  0  0  0
107205  1  0  0  0  0
108206  1  0  0  0  0
111207  1  0  0  0  0
111208  1  0  0  0  0
111209  1  0  0  0  0
112210  1  0  0  0  0
113211  1  0  0  0  0
116212  1  0  0  0  0
121213  1  0  0  0  0
124214  1  0  0  0  0
132215  1  0  0  0  0
133216  1  0  0  0  0
134217  1  0  0  0  0
135218  1  0  0  0  0
136219  1  0  0  0  0
137220  1  0  0  0  0
137221  1  0  0  0  0
138222  1  0  0  0  0
M  END
