257

C          3.95110        4.81280       -5.93400
C          3.35830        5.80660       -6.68420
C          2.00020        5.71570       -7.24060
O          1.19680        4.81280       -7.08970
C          1.86220        6.88370       -8.13860
C          0.75740        7.22100       -8.91370
C          0.91840        8.37290       -9.64780
C          2.09520        9.12970       -9.62090
C          3.19580        8.80550       -8.86220
C          3.04910        7.64150       -8.10540
C          3.97820        6.99990       -7.17780
C          5.15870        7.52810       -6.70790
C          5.92230        6.93170       -5.68660
N          6.56670        6.51230       -4.83170
C          5.69390        8.76170       -7.11640
N          6.16950        9.76800       -7.40400
C          1.56510       10.13950      -10.60940
C          2.07770       10.02030      -12.05990
C          1.05770       10.78850      -12.86900
C         -0.05980       10.07350      -12.89270
C          0.18660        8.80990      -12.10040
C          1.67070        8.58490      -12.41700
C          0.24990        9.29640      -10.63720
C          3.28060        3.88990       -5.13340
C          2.02080        3.94220       -4.49910
N          1.17000        5.00510       -4.41910
C          1.57470        6.34120       -4.55180
C          2.77570        6.79370       -4.01050
C          3.15920        8.10780       -4.17330
C          2.37100        9.00610       -4.88850
C          2.83520       10.41150       -5.10740
C          1.15800        8.55690       -5.39350
C          0.75570        7.24520       -5.22560
C         -0.18920        4.76580       -4.11900
C         -0.82000        5.49930       -3.11910
C         -2.14010        5.24400       -2.80540
C         -2.86320        4.26920       -3.48350
C         -4.30250        4.02050       -3.15590
C         -2.23040        3.56390       -4.50060
C         -0.90850        3.80420       -4.82160
C          1.78360        2.73740       -3.79910
S          0.49270        2.18580       -2.79620
C          1.43150        0.77550       -2.31590
C          2.59560        0.65210       -3.05840
N          3.42550       -0.46630       -3.08100
C          4.80760       -0.19160       -3.07420
C          5.30840        0.62160       -2.06150
C          6.64590        0.95840       -2.03430
C          7.51980        0.49460       -3.01050
C          8.96330        0.89260       -2.98930
C          7.01220       -0.32050       -4.01450
C          5.67410       -0.66070       -4.05590
C          2.93020       -1.65810       -3.62830
C          3.65400       -2.84160       -3.49170
C          3.22910       -3.99420       -4.11830
C          2.05360       -4.02210       -4.86100
C          1.63230       -5.25910       -5.59360
C          1.30120       -2.85880       -4.93250
C          1.73170       -1.68930       -4.33770
C          2.81510        1.81080       -3.84070
S          4.15380        2.39100       -4.75670
C          0.95290        0.02670       -1.20410
C          0.26120        0.59580       -0.14150
N          0.09850        1.96000        0.09770
C         -1.19730        2.41830        0.37830
C         -2.27450        1.93130       -0.35910
C         -3.55080        2.37200       -0.09290
C         -3.77680        3.31790        0.90470
S         -5.45070        3.84210        1.12020
C         -5.40140        4.85970        2.62150
C         -2.70540        3.80580        1.64070
C         -1.42650        3.35240        1.38280
C          1.15790        2.85270       -0.06610
C          0.91650        4.17850       -0.43890
C          1.96220        5.02430       -0.73210
C          3.27590        4.57360       -0.65960
S          4.56620        5.69450       -1.12460
C          5.76700        4.59700       -1.94230
C          3.52710        3.28310       -0.21550
C          2.48020        2.43050        0.07440
C         -0.19920       -0.39320        0.74970
S         -1.17970       -0.31840        2.15920
C         -1.06810       -2.06920        2.33530
C         -0.20880       -2.64870        1.41030
N          0.24480       -3.94640        1.49030
C          0.17440       -4.67780        2.69530
C          0.49630       -4.12400        3.93030
C          0.41590       -4.87940        5.08640
C          0.04940       -6.21680        5.02340
S         -0.07640       -7.30420        6.40640
C          0.18380       -6.25660        7.86330
C         -0.22410       -6.78710        3.78010
C         -0.17700       -6.02580        2.63460
C          0.94380       -4.58830        0.45110
C          0.48430       -4.60760       -0.86300
C          1.12220       -5.38360       -1.80760
C          2.23470       -6.14780       -1.46600
S          2.90490       -7.20390       -2.71220
C          4.29810       -8.03290       -1.89640
C          2.73830       -6.07610       -0.17460
C          2.09750       -5.30250        0.76990
C          0.22350       -1.68240        0.45980
S          1.17910       -1.70450       -0.99410
C         -1.84840       -2.65980        3.38370
C         -2.80820       -3.66280        3.32030
N         -3.23980       -4.26050        2.15310
C         -3.89510       -5.50350        2.16660
C         -4.99180       -5.72180        1.33440
C         -5.63350       -6.94280        1.33520
C         -5.21290       -7.97780        2.16360
C         -5.93680       -9.28890        2.17640
C         -4.12270       -7.75150        2.99160
C         -3.46810       -6.53440        2.99750
C         -3.20840       -3.53130        0.94940
C         -2.83430       -4.15900       -0.23410
C         -2.75720       -3.43570       -1.40920
C         -3.03400       -2.07370       -1.43550
C         -2.85620       -1.28290       -2.69550
C         -3.45820       -1.46760       -0.25980
C         -3.55610       -2.18400        0.91600
C         -3.34940       -3.91440        4.60580
S         -4.58080       -4.96820        5.19620
C         -4.36180       -4.35030        6.84120
C         -3.45250       -3.26970        6.87910
N         -3.25130       -2.41880        7.92690
C         -2.05990       -1.66830        8.00870
C         -0.82560       -2.27830        7.81470
C          0.33470       -1.53700        7.90960
C          0.29470       -0.17860        8.20150
C          1.55530        0.62600        8.27650
C         -0.94410        0.41810        8.40610
C         -2.11240       -0.31220        8.31310
C         -4.20580       -2.22730        8.93900
C         -3.79280       -2.10770       10.26410
C         -4.72620       -1.96400       11.27380
C         -6.08610       -1.93120       10.99540
C         -7.09950       -1.83870       12.09190
C         -6.48680       -2.00420        9.66330
C         -5.56620       -2.14710        8.64660
C         -2.86160       -3.08530        5.60940
S         -1.71210       -1.95500        4.98860
C         -5.09560       -4.97130        7.85040
C         -4.77440       -4.98950        9.19390
C         -3.40240       -4.84520        9.70970
O         -2.38210       -4.66020        9.06440
C         -3.50860       -5.08790       11.15280
C         -4.87650       -5.34870       11.48880
C         -5.06300       -5.55190       12.81750
S         -3.56630       -5.42850       13.67590
C         -2.66250       -5.09440       12.21390
C         -1.20130       -4.85180       12.23300
C         -5.67260       -5.27700       10.27930
C         -7.04620       -5.31800       10.23730
C         -7.81760       -5.11200        9.08090
N         -8.49740       -4.91970        8.17430
C         -7.80500       -5.49940       11.40620
N         -8.42920       -5.62590       12.36270
H          5.02700        4.69520       -5.98700
H         -0.13280        6.61130       -8.90720
H          4.10010        9.39150       -8.85450
H          1.51680       11.16890      -10.25880
H          3.11980       10.29500      -12.19850
H          1.23020       11.76610      -13.27980
H         -1.00710       10.33460      -13.32710
H         -0.49440        7.98130      -12.27660
H          2.14460        7.82330      -11.80070
H          1.83780        8.35900      -13.46900
H         -0.67500        9.76450      -10.30420
H          3.40600        6.11800       -3.45520
H          4.09250        8.43970       -3.74250
H          3.71950       10.42140       -5.74480
H          3.10810       10.87570       -4.16150
H          2.06200       11.00850       -5.58390
H          0.52210        9.23730       -5.94130
H         -0.18630        6.90710       -5.63110
H         -0.26810        6.26230       -2.59070
H         -2.61840        5.80750       -2.01710
H         -4.57570        2.98940       -3.36670
H         -4.50680        4.23610       -2.11000
H         -4.93790        4.66640       -3.76320
H         -2.78260        2.81840       -5.05420
H         -0.42630        3.27540       -5.62940
H          4.63030        0.98070       -1.30230
H          7.02390        1.58740       -1.24100
H          9.56450        0.21220       -3.58700
H          9.07660        1.89670       -3.39920
H          9.34760        0.90250       -1.97130
H          7.67260       -0.68580       -4.78770
H          5.29490       -1.27840       -4.85610
H          4.56420       -2.84310       -2.91070
H          3.82140       -4.89230       -4.03420
H          0.55830       -5.26360       -5.76620
H          2.12830       -5.30040       -6.56410
H          1.90970       -6.15320       -5.04020
H          0.37390       -2.85440       -5.48800
H          1.14420       -0.79050       -4.45150
H         -2.09120        1.21830       -1.14820
H         -4.39170        2.00260       -0.66030
H         -6.43420        5.11900        2.83300
H         -4.98910        4.28120        3.44290
H         -4.82510        5.76330        2.44460
H         -2.85120        4.53570        2.42050
H         -0.59550        3.72790        1.96110
H         -0.10010        4.52300       -0.54800
H          1.77370        6.03950       -1.04690
H          6.48040        4.21690       -1.21730
H          6.27740        5.20650       -2.68320
H          5.24050        3.78180       -2.42920
H          4.54420        2.94350       -0.09400
H          2.68570        1.42380        0.40870
H          0.82230       -3.09650        3.99210
H          0.65660       -4.41230        6.02750
H         -0.65900       -5.58480        7.99820
H          0.23190       -6.94450        8.70250
H          1.12430       -5.72070        7.77850
H         -0.48860       -7.83240        3.72980
H         -0.41540       -6.47090        1.68040
H         -0.39530       -4.04680       -1.13030
H          0.74470       -5.42150       -2.81640
H          3.94340       -8.61140       -1.04840
H          4.71850       -8.69740       -2.64500
H          5.04170       -7.30100       -1.59460
H          3.61970       -6.62420        0.11590
H          2.48310       -5.26900        1.77820
H         -5.34090       -4.92740        0.69110
H         -6.48430       -7.09290        0.68620
H         -6.81170       -9.22330        2.82400
H         -6.27910       -9.55300        1.17810
H         -5.29650      -10.08280        2.55310
H         -3.77340       -8.53780        3.64490
H         -2.61370       -6.38630        3.63760
H         -2.59810       -5.21310       -0.22340
H         -2.46600       -3.93560       -2.32270
H         -3.46240       -0.38000       -2.67920
H         -3.12680       -1.87460       -3.56720
H         -1.81000       -0.98980       -2.80420
H         -3.71970       -0.42070       -0.25590
H         -3.90280       -1.69670        1.81530
H         -0.79690       -3.33750        7.61960
H          1.29020       -2.02040        7.76360
H          1.80620        1.01230        7.28810
H          2.38720        0.01500        8.61920
H          1.43760        1.47280        8.94840
H         -0.99540        1.47190        8.63870
H         -3.06940        0.16270        8.47340
H         -2.73870       -2.13960       10.49650
H         -4.38940       -1.88960       12.29780
H         -7.93900       -1.21600       11.79140
H         -6.65860       -1.42990       12.99760
H         -7.49030       -2.83070       12.32400
H         -7.53800       -1.95480        9.42010
H         -5.90100       -2.20310        7.62170
H         -5.97170       -5.52010        7.52570
H         -5.96030       -5.77190       13.36020
H         -0.86390       -4.64280       11.22000
H         -0.67080       -5.72410       12.61430
H         -0.95810       -4.00660       12.87650
