273

C          9.74360        0.69470        0.13610
C         10.10480        1.73580       -0.69300
C          9.21310        2.85180       -1.04220
O          8.05040        3.00500       -0.71290
C         10.05630        3.82720       -1.76500
C          9.66110        5.05780       -2.27970
C         10.66920        5.75200       -2.90630
C         11.97720        5.26380       -3.00420
C         12.38060        4.05010       -2.49770
C         11.36830        3.32650       -1.86400
C         11.40670        2.01010       -1.22970
C         12.44820        1.11490       -1.28870
C         13.67310        1.36180       -1.93300
N         14.68810        1.49730       -2.45540
C         12.37880       -0.20120       -0.79210
N         12.37940       -1.29660       -0.44450
C         12.46610        6.48940       -3.73710
C         13.27110        7.51350       -2.90980
C         13.19240        8.78240       -3.72770
C         11.95150        9.24370       -3.63830
C         11.17090        8.29430       -2.75850
C         12.27930        7.85870       -1.79140
C         11.00480        7.03240       -3.63130
C          8.43940        0.24160        0.34300
C          7.28920        0.33270       -0.46760
N          7.22690        0.70260       -1.77570
C          5.97310        1.06750       -2.32730
C          5.47950        0.37710       -3.42700
C          4.24600        0.71270       -3.95250
C          3.49430        1.74380       -3.40420
C          2.15730        2.11390       -3.96920
C          4.01190        2.44310       -2.31830
C          5.23810        2.11260       -1.77720
C          8.32720        0.70310       -2.64450
C          8.47470        1.74280       -3.55950
C          9.57580        1.78480       -4.39410
C         10.54610        0.79290       -4.35150
C         11.76690        0.85880       -5.21380
C         10.36200       -0.27130       -3.47150
C          9.27340       -0.32050       -2.62680
C          6.16160       -0.16160        0.23260
S          4.47810       -0.24220       -0.12960
C          4.15270       -1.02580        1.41660
C          5.29910       -1.23030        2.15630
N          5.37470       -1.90890        3.35510
C          4.36700       -1.75880        4.32290
C          3.82120       -2.87610        4.94740
C          2.86800       -2.71950        5.93300
C          2.43680       -1.45550        6.32060
C          1.44380       -1.29340        7.42850
C          2.97670       -0.34700        5.68150
C          3.93200       -0.49030        4.69330
C          6.46030       -2.76020        3.60720
C          6.91030       -2.95730        4.90950
C          7.97350       -3.80310        5.15870
C          8.63110       -4.45540        4.12480
C          9.78290       -5.37660        4.38340
C          8.18600       -4.24040        2.82640
C          7.10970       -3.41890        2.56490
C          6.43490       -0.71130        1.47430
S          8.11290       -0.61680        1.85970
C          2.75270       -1.31090        1.62040
C          2.03450       -2.09720        0.74360
N          2.61500       -2.91430       -0.22170
C          3.61660       -3.81690        0.13860
C          3.63450       -4.37920        1.41720
C          4.59130       -5.30790        1.75530
C          5.55490       -5.70410        0.82980
S          6.69060       -6.94320        1.36820
C          7.83900       -7.11950       -0.02790
C          5.56350       -5.12230       -0.43040
C          4.60740       -4.18270       -0.76820
C          2.07370       -2.84830       -1.51110
C          1.92400       -3.98560       -2.30450
C          1.29900       -3.89830       -3.52950
C          0.79930       -2.68120       -3.98490
S         -0.03250       -2.66570       -5.54660
C         -1.14610       -1.23710       -5.39030
C          0.98160       -1.53950       -3.21760
C          1.61780       -1.62330       -1.99670
C          0.64070       -1.92570        0.90450
S         -0.74350       -2.52300        0.06190
C         -1.77610       -1.47490        1.00780
C         -1.07280       -0.67810        1.89640
N         -1.62020        0.39940        2.60210
C         -2.47120        1.26980        1.91280
C         -2.28450        1.48780        0.54400
C         -3.22500        2.16950       -0.19290
C         -4.37620        2.66870        0.41220
S         -5.60100        3.36350       -0.65540
C         -6.96710        3.77220        0.46550
C         -4.50050        2.57660        1.78960
C         -3.55310        1.89530        2.52920
C         -1.59480        0.35930        4.00380
C         -1.71410       -0.85440        4.67390
C         -1.78280       -0.89640        6.05280
C         -1.72750        0.28000        6.78660
S         -1.84060        0.35390        8.54720
C         -2.34300       -1.32510        9.01310
C         -1.55210        1.49290        6.12160
C         -1.48140        1.53420        4.74750
C          0.30730       -0.98000        1.86150
S          1.70620       -0.35380        2.66150
C         -3.17610       -1.33870        0.73920
C         -4.16020       -1.14680        1.65990
C         -5.39020       -0.71680        1.10410
C         -6.59050       -0.39390        1.77510
C         -6.71760       -0.51660        3.21300
C         -5.77060       -0.26800        4.17160
C         -6.25250       -0.50470        5.46570
S         -5.59410       -0.37520        7.05410
C         -7.10550       -0.89940        7.76870
Si        -7.27780       -1.02150        9.64720
C         -6.69610        0.61860       10.44730
C         -5.18380        0.82110       10.43690
C         -6.20090       -2.49860       10.21900
C         -6.23240       -2.72470       11.72690
C         -9.11750       -1.33390       10.05400
C        -10.01930       -0.13800        9.76630
C         -8.04600       -1.16150        6.81460
C         -7.57260       -0.93950        5.51040
S         -8.23560       -1.05760        3.91870
C         -7.63500        0.06450        0.97480
C         -7.52710        0.20390       -0.43160
C         -6.35420       -0.18890       -1.10810
C         -6.26210       -0.18300       -2.54840
S         -7.63700       -0.72820       -3.50150
C         -6.73890       -0.52750       -4.95940
C         -7.00720       -0.71820       -6.32410
C         -5.93630       -0.40810       -7.11050
Si        -5.81240       -0.44310       -8.99430
C         -6.95090       -1.83780       -9.63230
C         -6.93990       -1.96320      -11.15240
C         -6.38110        1.27380       -9.62720
C         -7.78820        1.63750       -9.16260
C         -3.97680       -0.73720       -9.43620
C         -3.46600       -2.10250       -8.98460
S         -4.57000        0.13890       -6.16190
C         -5.45360       -0.06290       -4.69410
C         -5.18060        0.12290       -3.33060
C         -5.30680       -0.62010       -0.30690
S         -3.74510       -1.10850       -0.89770
C         -8.67210        0.79490       -0.99710
C         -9.66610        1.06510       -0.09420
S         -9.18570        0.63130        1.53500
C        -10.91410        1.69290       -0.34030
C        -11.54460        1.83060       -1.53580
C        -12.58220        2.89450       -1.70540
O        -13.14540        3.49570       -0.81980
C        -12.69920        3.08200       -3.15920
C        -13.41280        4.03000       -3.87620
C        -13.32660        4.02190       -5.25250
C        -12.52610        3.08470       -5.92450
O        -12.51280        3.18660       -7.26850
C        -11.74990        2.26650       -8.02050
C        -11.80890        2.12610       -5.20450
C        -11.91210        2.12640       -3.82550
C        -11.32750        1.22550       -2.83460
C        -10.91160       -0.05530       -3.08650
C        -10.80830       -0.60120       -4.38140
N        -10.68860       -1.06490       -5.42540
C        -10.60780       -0.98400       -2.06850
N        -10.39720       -1.78120       -1.27090
H         10.51250        0.20400        0.72080
H          8.64250        5.40010       -2.18170
H         13.39250        3.68770       -2.57320
H         12.88750        6.31640       -4.72580
H         14.26310        7.18190       -2.61540
H         14.00540        9.17080       -4.31280
H         11.52090       10.09420       -4.13390
H         10.24910        8.67390       -2.32570
H         12.01030        7.01370       -1.16050
H         12.62970        8.68100       -1.16960
H         10.45210        7.22020       -4.55030
H          6.06020       -0.42550       -3.85800
H          3.86170        0.15920       -4.79680
H          1.38680        2.03270       -3.20330
H          2.16600        3.14540       -4.31950
H          1.89670        1.46780       -4.80360
H          3.44470        3.25810       -1.89260
H          5.65230        2.66080       -0.94540
H          7.73140        2.52490       -3.59620
H          9.68760        2.61310       -5.07860
H         12.64900        1.05400       -4.60310
H         11.68030        1.65170       -5.95210
H         11.92610       -0.08770       -5.72720
H         11.09090       -1.06820       -3.44150
H          9.15670       -1.15090       -1.94660
H          4.15970       -3.86030        4.65900
H          2.45240       -3.59450        6.41250
H          0.77450       -2.14970        7.47200
H          1.96200       -1.22190        8.38560
H          0.85840       -0.38760        7.29460
H          2.64860        0.64250        5.96440
H          4.35350        0.37880        4.20950
H          6.42370       -2.44430        5.72590
H          8.30320       -3.94740        6.17760
H         10.03710       -5.39740        5.43990
H          9.53100       -6.38830        4.06620
H         10.65850       -5.05880        3.81920
H          8.68980       -4.73290        2.00860
H          6.76040       -3.29350        1.55080
H          2.88320       -4.09260        2.13800
H          4.59900       -5.75350        2.73830
H          7.31090       -7.48880       -0.90230
H          8.57630       -7.84970        0.29070
H          8.32520       -6.17020       -0.23300
H          6.30900       -5.38830       -1.16260
H          4.62220       -3.73130       -1.74940
H          2.27520       -4.94040       -1.94340
H          1.16800       -4.78030       -4.13740
H         -1.87140       -1.33320       -6.19190
H         -0.59670       -0.30780       -5.50930
H         -1.64760       -1.27630       -4.42810
H          0.63290       -0.57970       -3.56240
H          1.76680       -0.72850       -1.40980
H         -1.41080        1.08590        0.05310
H         -3.09050        2.30450       -1.25530
H         -7.78210        4.10300       -0.17100
H         -7.26690        2.88830        1.02040
H         -6.67280        4.57590        1.13430
H         -5.34200        3.00810        2.30640
H         -3.67670        1.83610        3.59910
H         -1.77290       -1.77310        4.10780
H         -1.89480       -1.85200        6.53800
H         -3.24800       -1.59280        8.47510
H         -1.53810       -2.02740        8.81710
H         -2.54070       -1.28470       10.07950
H         -1.47810        2.40110        6.69980
H         -1.34870        2.47570        4.23640
H         -3.99840       -1.31950        2.70620
H         -4.79070        0.11540        3.96970
H         -7.16380        1.45830        9.93020
H         -7.04900        0.65860       11.47950
H         -4.79870        0.80860        9.42070
H         -4.68600        0.03580       10.99940
H         -4.91990        1.77690       10.88540
H         -6.53150       -3.41030        9.71830
H         -5.16880       -2.33540        9.90680
H         -7.24320       -2.94500       12.05990
H         -5.59400       -3.56120       12.00630
H         -5.88640       -1.84110       12.25730
H         -9.21320       -1.59610       11.10760
H         -9.47650       -2.19680        9.49220
H         -9.94320        0.16220        8.72420
H         -9.73610        0.71060       10.38340
H        -11.05970       -0.37900        9.97740
H         -9.03890       -1.49990        7.04380
H         -7.94620       -1.07300       -6.70620
H         -6.64930       -2.79030       -9.19480
H         -7.97450       -1.66110       -9.30070
H         -7.27910       -1.04050      -11.61670
H         -7.59590       -2.76820      -11.47870
H         -5.93690       -2.17540      -11.51380
H         -5.68650        2.04000       -9.27950
H         -6.34810        1.30020      -10.71640
H         -8.06780        2.62950       -9.51360
H         -7.84110        1.62930       -8.07610
H         -8.51530        0.92430       -9.54280
H         -3.36870        0.03850       -8.96770
H         -3.82600       -0.63920      -10.51150
H         -3.61620       -2.23390       -7.91550
H         -3.99490       -2.90070       -9.49880
H         -2.40330       -2.20900       -9.19410
H         -4.25390        0.50430       -2.94550
H         -8.73330        1.08410       -2.02970
H        -11.38440        2.19140        0.50070
H        -14.02260        4.75350       -3.35810
H        -13.86860        4.73770       -5.84990
H        -10.68190        2.35710       -7.80200
H        -11.92690        2.52520       -9.06270
H        -12.07270        1.23710       -7.84100
H        -11.18050        1.41070       -5.70650
