169

C          0.74300       -2.61720        4.99340
C          1.57600       -2.36320        6.05980
C          2.88560       -1.70970        6.00490
O          3.43440       -1.20650        5.03860
C          3.44890       -1.79830        7.36440
C          4.67780       -1.30550        7.79580
C          4.93030       -1.52420        9.12890
C          4.02920       -2.19070        9.96850
C          2.81420       -2.68380        9.55400
C          2.53430       -2.46570        8.20220
C          1.34660       -2.80200        7.41570
C          0.20860       -3.38990        7.91510
C         -0.99330       -3.58270        7.20840
N         -2.02480       -3.74180        6.72450
C          0.06470       -3.85760        9.23610
N         -0.12590       -4.27710       10.28880
C          4.91880       -2.03840       11.17760
C          4.51870       -0.94480       12.19030
C          5.78550       -0.69890       12.97760
C          6.63810       -0.06530       12.18250
C          5.96200        0.12730       10.84420
C          4.51030        0.30880       11.30600
C          5.92310       -1.29300       10.24120
C          0.82780       -2.20430        3.66450
C         -0.13250       -2.55370        2.67960
N         -1.12030       -3.49140        2.83520
C         -0.90000       -4.68840        3.54200
C         -1.92200       -5.25720        4.29890
C         -1.69310       -6.42430        4.99930
C         -0.45130       -7.04890        4.97330
C         -0.21660       -8.29640        5.76790
C          0.55500       -6.48440        4.19840
C          0.33790       -5.32410        3.48260
C         -2.37230       -3.27830        2.23220
C         -2.96290       -2.01800        2.27520
C         -4.22260       -1.82570        1.74510
C         -4.92550       -2.87550        1.16440
C         -6.32430       -2.67600        0.66690
C         -4.31490       -4.12200        1.09910
C         -3.05400       -4.32710        1.62230
C          0.06830       -1.82150        1.49650
S         -0.77550       -1.70950       -0.01970
C          0.45740       -0.62330       -0.62210
C          1.38830       -0.25630        0.34860
N          2.30140        0.76440        0.22340
C          2.00460        1.90470       -0.54210
C          0.71540        2.43360       -0.56090
C          0.41940        3.51120       -1.37000
C          1.39230        4.10030       -2.17060
C          1.06560        5.27460       -3.03830
C          2.68290        3.58770       -2.12100
C          2.99180        2.50660       -1.31850
C          3.50210        0.69350        0.94830
C          4.19010       -0.51400        1.03680
C          5.33680       -0.60090        1.79770
C          5.83060        0.50640        2.47780
C          7.04860        0.37890        3.33900
C          5.15700        1.71440        2.35340
C          4.00410        1.81470        1.59970
C          1.17430       -0.98050        1.54730
S          2.02100       -1.06070        3.04820
C          0.39840       -0.14080       -1.96730
C          1.53060        0.15940       -2.71470
F          2.74340       -0.22020       -2.27240
C          1.45410        0.80400       -3.94860
F          2.59970        1.06140       -4.59990
C          0.24460        1.14980       -4.52810
C         -0.93790        0.78770       -3.82440
N         -2.14050        1.15070       -4.29800
C         -3.22570        0.75240       -3.68270
C         -4.52240        1.25100       -4.24460
C         -4.98360        2.49900       -3.48810
C         -3.14080       -0.08060       -2.53150
N         -1.97350       -0.34120       -1.99720
C         -0.85720        0.09550       -2.59300
C         -4.31910       -0.75780       -1.90630
C         -4.59230       -2.07080       -2.64540
C          0.15640        1.89920       -5.75510
S          1.11350        3.31930       -5.98360
C          0.29280        3.73080       -7.47850
C         -0.66300        2.75730       -7.74990
S         -1.79150        2.56450       -9.04070
C         -2.35520        1.03610       -8.35660
C         -3.40770        0.30630       -8.98080
C         -4.06910        0.59410      -10.16560
C         -5.09910       -0.30230      -10.47820
C         -5.23840       -1.28330       -9.53230
C         -6.20680       -2.37780       -9.52810
O         -7.03760       -2.55810      -10.38380
O         -6.03920       -3.15480       -8.44840
C         -6.93090       -4.25930       -8.30020
C         -8.22840       -3.83650       -7.62630
S         -4.09270       -1.11780       -8.25140
Cl        -3.68180        1.92440      -11.17600
C         -1.67920        0.72100       -7.20070
C         -0.74080        1.71140       -6.80290
Cl        -1.87220       -0.77340       -6.39470
C          0.54030        4.84690       -8.29120
C          1.44120        5.85820       -8.12280
C          1.57540        6.96430       -9.09230
O          0.95010        7.11630      -10.11840
C          2.63450        7.84820       -8.54160
C          3.15520        9.02350       -9.04690
C          4.15190        9.66490       -8.32080
C          4.61240        9.14140       -7.12100
C          4.09140        7.95930       -6.60980
C          3.10120        7.31930       -7.33070
C          2.38040        6.06240       -7.02600
O          2.54310        5.35570       -6.04450
H         -0.12950       -3.21930        5.21200
H          5.34100       -0.79730        7.11330
H          2.13380       -3.19510       10.21400
H          5.23860       -2.96340       11.65360
H          3.62050       -1.16110       12.76220
H          5.94610       -1.04860       13.98050
H          7.65320        0.21980       12.38850
H          6.37870        0.88890       10.19040
H          3.78060        0.27790       10.49900
H          4.37380        1.22030       11.88560
H          6.91340       -1.72030       10.09410
H         -2.88430       -4.77340        4.34970
H         -2.48860       -6.84670        5.59430
H         -0.36000       -8.09800        6.82960
H         -0.92450       -9.07180        5.47820
H          0.79250       -8.67180        5.61810
H          1.52290       -6.96200        4.14790
H          1.12860       -4.90070        2.88080
H         -2.44060       -1.20050        2.74960
H         -4.67860       -0.84780        1.80520
H         -6.44660       -1.69000        0.22470
H         -7.02460       -2.75710        1.49910
H         -6.58910       -3.43320       -0.06710
H         -4.83640       -4.94760        0.63700
H         -2.59400       -5.30260        1.57000
H         -0.05450        1.99170        0.05510
H         -0.58720        3.90490       -1.37800
H          1.70850        5.29830       -3.91410
H          0.02700        5.24090       -3.36030
H          1.21530        6.20050       -2.48130
H          3.45110        4.02870       -2.73810
H          3.99260        2.10150       -1.30620
H          3.82020       -1.37530        0.50060
H          5.85770       -1.54430        1.86940
H          7.84630       -0.13680        2.80690
H          7.40940        1.35410        3.65620
H          6.80640       -0.20640        4.22570
H          5.52930        2.58920        2.86710
H          3.47870        2.75570        1.52450
H         -5.28720        0.47650       -4.18810
H         -4.35800        1.50730       -5.29200
H         -5.92230        2.86110       -3.89970
H         -4.23810        3.28520       -3.57930
H         -5.12740        2.28350       -2.43130
H         -4.06940       -0.98210       -0.86880
H         -5.20100       -0.11820       -1.93960
H         -4.77060       -1.89360       -3.70450
H         -5.46230       -2.56490       -2.22280
H         -3.73520       -2.73180       -2.54570
H         -5.71380       -0.23530      -11.35640
H         -6.38610       -4.98290       -7.69040
H         -7.13780       -4.68140       -9.28900
H         -8.75740       -3.12400       -8.25450
H         -8.01930       -3.37460       -6.66430
H         -8.85950       -4.70720       -7.47390
H         -0.08060        4.90900       -9.18150
H          2.79180        9.42490       -9.98040
H          4.57520       10.58520       -8.69530
H          5.38760        9.66110       -6.57740
H          4.44400        7.54440       -5.67800
