
  xtb     02062213213D
 energy: -370.582755337843 gnorm: 0.000531945983 xtb: 6.4.1 (unknown)
238261  0     0  0            999 V2000
   -6.6746    6.3919    4.2559 C   0  0  0  0  0  0  0  0  0  0  0  0
   -7.9539    6.0535    4.6014 C   0  0  0  0  0  0  0  0  0  0  0  0
   -8.5531    4.6987    4.6358 C   0  0  0  0  0  0  0  0  0  0  0  0
   -8.1092    3.6574    4.1956 O   0  0  0  0  0  0  0  0  0  0  0  0
   -9.8147    4.8374    5.3869 C   0  0  0  0  0  0  0  0  0  0  0  0
  -10.6934    3.8106    5.7270 C   0  0  0  0  0  0  0  0  0  0  0  0
  -11.7902    4.2275    6.4412 C   0  0  0  0  0  0  0  0  0  0  0  0
  -11.9945    5.5666    6.8006 C   0  0  0  0  0  0  0  0  0  0  0  0
  -11.1349    6.5881    6.4737 C   0  0  0  0  0  0  0  0  0  0  0  0
  -10.0156    6.1861    5.7374 C   0  0  0  0  0  0  0  0  0  0  0  0
   -8.9032    6.9698    5.2088 C   0  0  0  0  0  0  0  0  0  0  0  0
   -8.8236    8.3385    5.2127 C   0  0  0  0  0  0  0  0  0  0  0  0
   -7.8053    9.1019    4.6029 C   0  0  0  0  0  0  0  0  0  0  0  0
   -7.0385    9.8048    4.1157 N   0  0  0  0  0  0  0  0  0  0  0  0
   -9.7865    9.1908    5.7916 C   0  0  0  0  0  0  0  0  0  0  0  0
  -10.5251    9.9452    6.2435 N   0  0  0  0  0  0  0  0  0  0  0  0
  -13.2920    5.2618    7.5078 C   0  0  0  0  0  0  0  0  0  0  0  0
  -14.5892    5.6273    6.7559 C   0  0  0  0  0  0  0  0  0  0  0  0
  -15.6509    4.7982    7.4418 C   0  0  0  0  0  0  0  0  0  0  0  0
  -15.4587    3.5312    7.0974 C   0  0  0  0  0  0  0  0  0  0  0  0
  -14.2634    3.4827    6.1734 C   0  0  0  0  0  0  0  0  0  0  0  0
  -14.4298    4.8284    5.4558 C   0  0  0  0  0  0  0  0  0  0  0  0
  -13.0656    3.7696    7.1037 C   0  0  0  0  0  0  0  0  0  0  0  0
   -5.6861    5.6201    3.6081 C   0  0  0  0  0  0  0  0  0  0  0  0
   -5.7824    4.4821    2.8436 C   0  0  0  0  0  0  0  0  0  0  0  0
   -4.5477    4.0103    2.3644 C   0  0  0  0  0  0  0  0  0  0  0  0
   -4.3133    2.8606    1.5727 C   0  0  0  0  0  0  0  0  0  0  0  0
   -5.3692    1.9258    1.2586 C   0  0  0  0  0  0  0  0  0  0  0  0
   -6.3970    1.5062    2.0649 C   0  0  0  0  0  0  0  0  0  0  0  0
   -7.1924    0.5178    1.4660 C   0  0  0  0  0  0  0  0  0  0  0  0
   -6.8023    0.1701    0.2021 C   0  0  0  0  0  0  0  0  0  0  0  0
   -7.5375   -1.1319   -0.9499 Si  0  0  0  0  0  4  0  0  0  0  0  0
   -8.5471   -0.2398   -2.3120 C   0  0  0  0  0  0  0  0  0  0  0  0
   -7.7060    0.5971   -3.2684 C   0  0  0  0  0  0  0  0  0  0  0  0
   -8.7641   -2.1979    0.0605 C   0  0  0  0  0  0  0  0  0  0  0  0
   -8.1120   -3.0842    1.1154 C   0  0  0  0  0  0  0  0  0  0  0  0
   -6.1194   -2.1841   -1.6986 C   0  0  0  0  0  0  0  0  0  0  0  0
   -4.9604   -2.4653   -0.7442 C   0  0  0  0  0  0  0  0  0  0  0  0
   -5.4127    1.0915   -0.2686 S   0  0  0  0  0  0  0  0  0  0  0  0
   -2.9998    2.6490    1.1771 C   0  0  0  0  0  0  0  0  0  0  0  0
   -1.9225    3.4941    1.5449 C   0  0  0  0  0  0  0  0  0  0  0  0
   -2.1560    4.6370    2.3384 C   0  0  0  0  0  0  0  0  0  0  0  0
   -1.0718    5.5254    2.7039 C   0  0  0  0  0  0  0  0  0  0  0  0
   -0.0621    5.9976    1.9087 C   0  0  0  0  0  0  0  0  0  0  0  0
    0.8240    6.8463    2.5925 C   0  0  0  0  0  0  0  0  0  0  0  0
    0.5168    7.0302    3.9113 C   0  0  0  0  0  0  0  0  0  0  0  0
    1.4314    8.0373    5.2169 Si  0  0  0  0  0  4  0  0  0  0  0  0
    0.1801    9.0633    6.2378 C   0  0  0  0  0  0  0  0  0  0  0  0
   -0.6969    8.2325    7.1692 C   0  0  0  0  0  0  0  0  0  0  0  0
    2.4423    6.8502    6.3385 C   0  0  0  0  0  0  0  0  0  0  0  0
    1.8673    5.4393    6.4273 C   0  0  0  0  0  0  0  0  0  0  0  0
    2.6329    9.1984    4.2867 C   0  0  0  0  0  0  0  0  0  0  0  0
    3.4455   10.0828    5.2239 C   0  0  0  0  0  0  0  0  0  0  0  0
   -0.9113    6.1408    4.3186 S   0  0  0  0  0  0  0  0  0  0  0  0
   -3.4672    4.8532    2.7410 C   0  0  0  0  0  0  0  0  0  0  0  0
   -4.0203    6.1871    3.7085 S   0  0  0  0  0  0  0  0  0  0  0  0
   -0.6837    2.9963    1.0872 C   0  0  0  0  0  0  0  0  0  0  0  0
   -0.7842    1.8315    0.3749 C   0  0  0  0  0  0  0  0  0  0  0  0
   -2.4417    1.2815    0.2522 S   0  0  0  0  0  0  0  0  0  0  0  0
    0.2913    1.0502   -0.1244 C   0  0  0  0  0  0  0  0  0  0  0  0
    0.2677   -0.0457   -0.9779 C   0  0  0  0  0  0  0  0  0  0  0  0
   -0.8018   -0.4826   -1.7353 N   0  0  0  0  0  0  0  0  0  0  0  0
   -0.8093   -1.8592   -2.0514 C   0  0  0  0  0  0  0  0  0  0  0  0
   -0.7435   -2.2876   -3.3735 C   0  0  0  0  0  0  0  0  0  0  0  0
   -0.5959   -3.6290   -3.6609 C   0  0  0  0  0  0  0  0  0  0  0  0
   -0.5130   -4.5579   -2.6301 C   0  0  0  0  0  0  0  0  0  0  0  0
   -0.2113   -6.2740   -2.9261 S   0  0  0  0  0  0  0  0  0  0  0  0
    0.8507   -6.2080   -4.3996 C   0  0  0  0  0  0  0  0  0  0  0  0
   -0.6587   -4.1386   -1.3110 C   0  0  0  0  0  0  0  0  0  0  0  0
   -0.8025   -2.7984   -1.0226 C   0  0  0  0  0  0  0  0  0  0  0  0
   -1.6502    0.3876   -2.4229 C   0  0  0  0  0  0  0  0  0  0  0  0
   -2.9157   -0.0603   -2.8073 C   0  0  0  0  0  0  0  0  0  0  0  0
   -3.7939    0.7927   -3.4320 C   0  0  0  0  0  0  0  0  0  0  0  0
   -3.4392    2.1154   -3.6876 C   0  0  0  0  0  0  0  0  0  0  0  0
   -4.6708    3.1258   -4.4477 S   0  0  0  0  0  0  0  0  0  0  0  0
   -3.9673    4.7979   -4.3664 C   0  0  0  0  0  0  0  0  0  0  0  0
   -2.1671    2.5537   -3.3486 C   0  0  0  0  0  0  0  0  0  0  0  0
   -1.2802    1.6947   -2.7296 C   0  0  0  0  0  0  0  0  0  0  0  0
    1.5389   -0.6721   -1.0223 C   0  0  0  0  0  0  0  0  0  0  0  0
    2.1418   -2.0768   -1.8214 S   0  0  0  0  0  0  0  0  0  0  0  0
    3.7335   -1.8046   -1.1418 C   0  0  0  0  0  0  0  0  0  0  0  0
    3.8038   -0.6416   -0.3909 C   0  0  0  0  0  0  0  0  0  0  0  0
    4.9611   -0.0872    0.1308 N   0  0  0  0  0  0  0  0  0  0  0  0
    4.8931    0.6645    1.3117 C   0  0  0  0  0  0  0  0  0  0  0  0
    5.6755    1.8060    1.4603 C   0  0  0  0  0  0  0  0  0  0  0  0
    5.5958    2.5728    2.6057 C   0  0  0  0  0  0  0  0  0  0  0  0
    4.7243    2.2128    3.6258 C   0  0  0  0  0  0  0  0  0  0  0  0
    4.5207    3.1166    5.1271 S   0  0  0  0  0  0  0  0  0  0  0  0
    5.5195    4.6114    4.8791 C   0  0  0  0  0  0  0  0  0  0  0  0
    3.9530    1.0609    3.4897 C   0  0  0  0  0  0  0  0  0  0  0  0
    4.0379    0.2929    2.3502 C   0  0  0  0  0  0  0  0  0  0  0  0
    6.1993   -0.3451   -0.4747 C   0  0  0  0  0  0  0  0  0  0  0  0
    7.3254   -0.6117    0.3050 C   0  0  0  0  0  0  0  0  0  0  0  0
    8.4915   -1.0415   -0.2868 C   0  0  0  0  0  0  0  0  0  0  0  0
    8.5636   -1.2087   -1.6680 C   0  0  0  0  0  0  0  0  0  0  0  0
   10.0563   -1.8960   -2.3126 S   0  0  0  0  0  0  0  0  0  0  0  0
    9.5716   -2.4666   -3.9667 C   0  0  0  0  0  0  0  0  0  0  0  0
    7.4817   -0.8395   -2.4551 C   0  0  0  0  0  0  0  0  0  0  0  0
    6.3126   -0.4073   -1.8610 C   0  0  0  0  0  0  0  0  0  0  0  0
    2.5286   -0.0258   -0.3018 C   0  0  0  0  0  0  0  0  0  0  0  0
    1.9116    1.3838    0.4894 S   0  0  0  0  0  0  0  0  0  0  0  0
    4.7868   -2.7458   -1.4473 C   0  0  0  0  0  0  0  0  0  0  0  0
    5.6675   -3.2226   -0.4611 C   0  0  0  0  0  0  0  0  0  0  0  0
    5.6267   -2.9976    0.9447 C   0  0  0  0  0  0  0  0  0  0  0  0
    6.6299   -3.5963    1.6226 C   0  0  0  0  0  0  0  0  0  0  0  0
    6.8899   -3.5783    3.0878 C   0  0  0  0  0  0  0  0  0  0  0  0
    6.6479   -4.9531    3.7131 C   0  0  0  0  0  0  0  0  0  0  0  0
    7.6854   -4.5011    0.5651 S   0  0  0  0  0  0  0  0  0  0  0  0
    6.7438   -4.0573   -0.8196 C   0  0  0  0  0  0  0  0  0  0  0  0
    6.9462   -4.5396   -2.1152 C   0  0  0  0  0  0  0  0  0  0  0  0
    6.0538   -4.0697   -3.1029 C   0  0  0  0  0  0  0  0  0  0  0  0
    4.9957   -3.2113   -2.7444 C   0  0  0  0  0  0  0  0  0  0  0  0
    4.0482   -2.7665   -4.1377 S   0  0  0  0  0  0  0  0  0  0  0  0
    5.0870   -3.6894   -5.1883 C   0  0  0  0  0  0  0  0  0  0  0  0
    4.7865   -3.7760   -6.6438 C   0  0  0  0  0  0  0  0  0  0  0  0
    3.4858   -4.5434   -6.8914 C   0  0  0  0  0  0  0  0  0  0  0  0
    6.0862   -4.2992   -4.5083 C   0  0  0  0  0  0  0  0  0  0  0  0
    8.0025   -5.4731   -2.3765 C   0  0  0  0  0  0  0  0  0  0  0  0
    7.9928   -6.5356   -3.2205 C   0  0  0  0  0  0  0  0  0  0  0  0
    9.2676   -7.1837   -3.6307 C   0  0  0  0  0  0  0  0  0  0  0  0
   10.3599   -7.0138   -3.1388 O   0  0  0  0  0  0  0  0  0  0  0  0
    8.9239   -8.0155   -4.8018 C   0  0  0  0  0  0  0  0  0  0  0  0
    9.8003   -8.7453   -5.6014 C   0  0  0  0  0  0  0  0  0  0  0  0
    9.1921   -9.4105   -6.6387 C   0  0  0  0  0  0  0  0  0  0  0  0
    7.8099   -9.3591   -6.8673 C   0  0  0  0  0  0  0  0  0  0  0  0
    6.9316   -8.6509   -6.0829 C   0  0  0  0  0  0  0  0  0  0  0  0
    7.5310   -7.9642   -5.0231 C   0  0  0  0  0  0  0  0  0  0  0  0
    6.9203   -7.1572   -3.9716 C   0  0  0  0  0  0  0  0  0  0  0  0
    5.5859   -7.1339   -3.6561 C   0  0  0  0  0  0  0  0  0  0  0  0
    5.0620   -6.6212   -2.4505 C   0  0  0  0  0  0  0  0  0  0  0  0
    4.5715   -6.3001   -1.4636 N   0  0  0  0  0  0  0  0  0  0  0  0
    4.5613   -7.6575   -4.4651 C   0  0  0  0  0  0  0  0  0  0  0  0
    3.6647   -7.9873   -5.1042 N   0  0  0  0  0  0  0  0  0  0  0  0
    7.8965  -10.2516   -8.0797 C   0  0  0  0  0  0  0  0  0  0  0  0
    7.8018   -9.5866   -9.4752 C   0  0  0  0  0  0  0  0  0  0  0  0
    8.2907   -8.1693   -9.3083 C   0  0  0  0  0  0  0  0  0  0  0  0
    9.5985   -8.2149   -9.0918 C   0  0  0  0  0  0  0  0  0  0  0  0
   10.0177   -9.6640   -9.1092 C   0  0  0  0  0  0  0  0  0  0  0  0
    9.0303  -10.2191  -10.1483 C   0  0  0  0  0  0  0  0  0  0  0  0
    9.4359  -10.3078   -7.8260 C   0  0  0  0  0  0  0  0  0  0  0  0
   -6.3333    7.3781    4.5494 H   0  0  0  0  0  0  0  0  0  0  0  0
  -10.4922    2.7912    5.4367 H   0  0  0  0  0  0  0  0  0  0  0  0
  -11.3006    7.6112    6.7669 H   0  0  0  0  0  0  0  0  0  0  0  0
  -13.3268    5.5155    8.5656 H   0  0  0  0  0  0  0  0  0  0  0  0
  -14.7800    6.6934    6.6693 H   0  0  0  0  0  0  0  0  0  0  0  0
  -16.3739    5.1979    8.1284 H   0  0  0  0  0  0  0  0  0  0  0  0
  -15.9889    2.6614    7.4388 H   0  0  0  0  0  0  0  0  0  0  0  0
  -14.1581    2.5948    5.5556 H   0  0  0  0  0  0  0  0  0  0  0  0
  -15.3281    4.8589    4.8414 H   0  0  0  0  0  0  0  0  0  0  0  0
  -13.5694    5.1219    4.8573 H   0  0  0  0  0  0  0  0  0  0  0  0
  -12.9520    3.0276    7.8920 H   0  0  0  0  0  0  0  0  0  0  0  0
   -6.7215    4.0233    2.6056 H   0  0  0  0  0  0  0  0  0  0  0  0
   -6.5533    1.8625    3.0668 H   0  0  0  0  0  0  0  0  0  0  0  0
   -8.0349    0.0670    1.9585 H   0  0  0  0  0  0  0  0  0  0  0  0
   -9.2820    0.4082   -1.8318 H   0  0  0  0  0  0  0  0  0  0  0  0
   -9.1144   -0.9713   -2.8886 H   0  0  0  0  0  0  0  0  0  0  0  0
   -7.0850    1.3036   -2.7232 H   0  0  0  0  0  0  0  0  0  0  0  0
   -8.3383    1.1596   -3.9527 H   0  0  0  0  0  0  0  0  0  0  0  0
   -7.0579   -0.0415   -3.8632 H   0  0  0  0  0  0  0  0  0  0  0  0
   -9.3341   -2.8288   -0.6225 H   0  0  0  0  0  0  0  0  0  0  0  0
   -9.4906   -1.5446    0.5451 H   0  0  0  0  0  0  0  0  0  0  0  0
   -7.5041   -2.4917    1.7947 H   0  0  0  0  0  0  0  0  0  0  0  0
   -7.4735   -3.8279    0.6461 H   0  0  0  0  0  0  0  0  0  0  0  0
   -8.8659   -3.6090    1.7003 H   0  0  0  0  0  0  0  0  0  0  0  0
   -5.7233   -1.6776   -2.5794 H   0  0  0  0  0  0  0  0  0  0  0  0
   -6.5256   -3.1348   -2.0489 H   0  0  0  0  0  0  0  0  0  0  0  0
   -4.2079   -3.0901   -1.2251 H   0  0  0  0  0  0  0  0  0  0  0  0
   -4.4837   -1.5383   -0.4347 H   0  0  0  0  0  0  0  0  0  0  0  0
   -5.3056   -2.9804    0.1479 H   0  0  0  0  0  0  0  0  0  0  0  0
    0.0140    5.7733    0.8591 H   0  0  0  0  0  0  0  0  0  0  0  0
    1.6694    7.3177    2.1238 H   0  0  0  0  0  0  0  0  0  0  0  0
   -0.4633    9.6302    5.5627 H   0  0  0  0  0  0  0  0  0  0  0  0
    0.7229    9.7977    6.8352 H   0  0  0  0  0  0  0  0  0  0  0  0
   -1.3848    8.8716    7.7200 H   0  0  0  0  0  0  0  0  0  0  0  0
   -1.2832    7.5126    6.6037 H   0  0  0  0  0  0  0  0  0  0  0  0
   -0.0892    7.6885    7.8880 H   0  0  0  0  0  0  0  0  0  0  0  0
    2.5085    7.2690    7.3441 H   0  0  0  0  0  0  0  0  0  0  0  0
    3.4662    6.7865    5.9659 H   0  0  0  0  0  0  0  0  0  0  0  0
    2.4674    4.8167    7.0885 H   0  0  0  0  0  0  0  0  0  0  0  0
    0.8486    5.4605    6.8056 H   0  0  0  0  0  0  0  0  0  0  0  0
    1.8524    4.9697    5.4471 H   0  0  0  0  0  0  0  0  0  0  0  0
    3.3203    8.6060    3.6819 H   0  0  0  0  0  0  0  0  0  0  0  0
    2.0788    9.8321    3.5944 H   0  0  0  0  0  0  0  0  0  0  0  0
    4.0122    9.4779    5.9276 H   0  0  0  0  0  0  0  0  0  0  0  0
    2.7923   10.7403    5.7911 H   0  0  0  0  0  0  0  0  0  0  0  0
    4.1460   10.7021    4.6660 H   0  0  0  0  0  0  0  0  0  0  0  0
    0.2624    3.4623    1.2959 H   0  0  0  0  0  0  0  0  0  0  0  0
   -0.7800   -1.5608   -4.1716 H   0  0  0  0  0  0  0  0  0  0  0  0
   -0.5263   -3.9444   -4.6898 H   0  0  0  0  0  0  0  0  0  0  0  0
    1.3750   -7.1576   -4.4453 H   0  0  0  0  0  0  0  0  0  0  0  0
    1.5642   -5.3986   -4.2784 H   0  0  0  0  0  0  0  0  0  0  0  0
    0.2543   -6.0755   -5.2976 H   0  0  0  0  0  0  0  0  0  0  0  0
   -0.6292   -4.8707   -0.5194 H   0  0  0  0  0  0  0  0  0  0  0  0
   -0.8815   -2.4625    0.0007 H   0  0  0  0  0  0  0  0  0  0  0  0
   -3.2053   -1.0761   -2.5923 H   0  0  0  0  0  0  0  0  0  0  0  0
   -4.7773    0.4539   -3.7148 H   0  0  0  0  0  0  0  0  0  0  0  0
   -3.1014    4.8748   -5.0178 H   0  0  0  0  0  0  0  0  0  0  0  0
   -4.7500    5.4628   -4.7181 H   0  0  0  0  0  0  0  0  0  0  0  0
   -3.7119    5.0384   -3.3386 H   0  0  0  0  0  0  0  0  0  0  0  0
   -1.8477    3.5612   -3.5620 H   0  0  0  0  0  0  0  0  0  0  0  0
   -0.2924    2.0504   -2.4773 H   0  0  0  0  0  0  0  0  0  0  0  0
    6.3468    2.0955    0.6653 H   0  0  0  0  0  0  0  0  0  0  0  0
    6.2122    3.4536    2.6842 H   0  0  0  0  0  0  0  0  0  0  0  0
    6.5693    4.3510    4.7791 H   0  0  0  0  0  0  0  0  0  0  0  0
    5.3748    5.2075    5.7746 H   0  0  0  0  0  0  0  0  0  0  0  0
    5.1600    5.1546    4.0101 H   0  0  0  0  0  0  0  0  0  0  0  0
    3.2870    0.7773    4.2899 H   0  0  0  0  0  0  0  0  0  0  0  0
    3.4356   -0.5993    2.2610 H   0  0  0  0  0  0  0  0  0  0  0  0
    7.2649   -0.5208    1.3791 H   0  0  0  0  0  0  0  0  0  0  0  0
    9.3512   -1.2884    0.3166 H   0  0  0  0  0  0  0  0  0  0  0  0
    8.6337   -3.0097   -3.9018 H   0  0  0  0  0  0  0  0  0  0  0  0
    9.4923   -1.6262   -4.6509 H   0  0  0  0  0  0  0  0  0  0  0  0
   10.3650   -3.1325   -4.2921 H   0  0  0  0  0  0  0  0  0  0  0  0
    7.5323   -0.8943   -3.5310 H   0  0  0  0  0  0  0  0  0  0  0  0
    5.4693   -0.1375   -2.4797 H   0  0  0  0  0  0  0  0  0  0  0  0
    4.8583   -2.4224    1.4270 H   0  0  0  0  0  0  0  0  0  0  0  0
    6.2344   -2.8379    3.5517 H   0  0  0  0  0  0  0  0  0  0  0  0
    7.9263   -3.2808    3.2683 H   0  0  0  0  0  0  0  0  0  0  0  0
    6.8316   -4.9166    4.7837 H   0  0  0  0  0  0  0  0  0  0  0  0
    5.6210   -5.2688    3.5450 H   0  0  0  0  0  0  0  0  0  0  0  0
    7.3130   -5.6904    3.2695 H   0  0  0  0  0  0  0  0  0  0  0  0
    5.6162   -4.2792   -7.1453 H   0  0  0  0  0  0  0  0  0  0  0  0
    4.6918   -2.7694   -7.0594 H   0  0  0  0  0  0  0  0  0  0  0  0
    3.2894   -4.6136   -7.9580 H   0  0  0  0  0  0  0  0  0  0  0  0
    2.6530   -4.0285   -6.4176 H   0  0  0  0  0  0  0  0  0  0  0  0
    3.5487   -5.5497   -6.4821 H   0  0  0  0  0  0  0  0  0  0  0  0
    6.8487   -4.8765   -5.0017 H   0  0  0  0  0  0  0  0  0  0  0  0
    8.9303   -5.3083   -1.8354 H   0  0  0  0  0  0  0  0  0  0  0  0
   10.8578   -8.7643   -5.3891 H   0  0  0  0  0  0  0  0  0  0  0  0
    5.8703   -8.6166   -6.2674 H   0  0  0  0  0  0  0  0  0  0  0  0
    7.3365  -11.1829   -8.0251 H   0  0  0  0  0  0  0  0  0  0  0  0
    6.8415   -9.7083   -9.9691 H   0  0  0  0  0  0  0  0  0  0  0  0
    7.6459   -7.3098   -9.3083 H   0  0  0  0  0  0  0  0  0  0  0  0
   10.2654   -7.4011   -8.8741 H   0  0  0  0  0  0  0  0  0  0  0  0
   11.0752   -9.8554   -9.2709 H   0  0  0  0  0  0  0  0  0  0  0  0
    9.2093   -9.8298  -11.1494 H   0  0  0  0  0  0  0  0  0  0  0  0
    8.9971  -11.3072  -10.1770 H   0  0  0  0  0  0  0  0  0  0  0  0
    9.8820  -11.2764   -7.6094 H   0  0  0  0  0  0  0  0  0  0  0  0
  1  2  2  0  0  0  0
  2  3  1  0  0  0  0
  3  4  2  0  0  0  0
  3  5  1  0  0  0  0
  5  6  2  0  0  0  0
  6  7  1  0  0  0  0
  7  8  2  0  0  0  0
  8  9  1  0  0  0  0
  9 10  2  0  0  0  0
 10 11  1  0  0  0  0
 11 12  2  0  0  0  0
 12 13  1  0  0  0  0
 13 14  3  0  0  0  0
 12 15  1  0  0  0  0
 15 16  3  0  0  0  0
  8 17  1  0  0  0  0
 17 18  1  0  0  0  0
 18 19  1  0  0  0  0
 19 20  2  0  0  0  0
 20 21  1  0  0  0  0
 21 22  1  0  0  0  0
 21 23  1  0  0  0  0
  1 24  1  0  0  0  0
 24 25  2  0  0  0  0
 25 26  1  0  0  0  0
 26 27  2  0  0  0  0
 27 28  1  0  0  0  0
 28 29  2  0  0  0  0
 29 30  1  0  0  0  0
 30 31  2  0  0  0  0
 31 32  1  0  0  0  0
 32 33  1  0  0  0  0
 33 34  1  0  0  0  0
 32 35  1  0  0  0  0
 35 36  1  0  0  0  0
 32 37  1  0  0  0  0
 37 38  1  0  0  0  0
 31 39  1  0  0  0  0
 27 40  1  0  0  0  0
 40 41  2  0  0  0  0
 41 42  1  0  0  0  0
 42 43  1  0  0  0  0
 43 44  2  0  0  0  0
 44 45  1  0  0  0  0
 45 46  2  0  0  0  0
 46 47  1  0  0  0  0
 47 48  1  0  0  0  0
 48 49  1  0  0  0  0
 47 50  1  0  0  0  0
 50 51  1  0  0  0  0
 47 52  1  0  0  0  0
 52 53  1  0  0  0  0
 46 54  1  0  0  0  0
 42 55  2  0  0  0  0
 55 56  1  0  0  0  0
 41 57  1  0  0  0  0
 57 58  2  0  0  0  0
 58 59  1  0  0  0  0
 58 60  1  0  0  0  0
 60 61  2  0  0  0  0
 61 62  1  0  0  0  0
 62 63  1  0  0  0  0
 63 64  2  0  0  0  0
 64 65  1  0  0  0  0
 65 66  2  0  0  0  0
 66 67  1  0  0  0  0
 67 68  1  0  0  0  0
 66 69  1  0  0  0  0
 69 70  2  0  0  0  0
 62 71  1  0  0  0  0
 71 72  2  0  0  0  0
 72 73  1  0  0  0  0
 73 74  2  0  0  0  0
 74 75  1  0  0  0  0
 75 76  1  0  0  0  0
 74 77  1  0  0  0  0
 77 78  2  0  0  0  0
 61 79  1  0  0  0  0
 79 80  1  0  0  0  0
 80 81  1  0  0  0  0
 81 82  2  0  0  0  0
 82 83  1  0  0  0  0
 83 84  1  0  0  0  0
 84 85  2  0  0  0  0
 85 86  1  0  0  0  0
 86 87  2  0  0  0  0
 87 88  1  0  0  0  0
 88 89  1  0  0  0  0
 87 90  1  0  0  0  0
 90 91  2  0  0  0  0
 83 92  1  0  0  0  0
 92 93  2  0  0  0  0
 93 94  1  0  0  0  0
 94 95  2  0  0  0  0
 95 96  1  0  0  0  0
 96 97  1  0  0  0  0
 95 98  1  0  0  0  0
 98 99  2  0  0  0  0
 82100  1  0  0  0  0
100101  1  0  0  0  0
 81102  1  0  0  0  0
102103  2  0  0  0  0
103104  1  0  0  0  0
104105  2  0  0  0  0
105106  1  0  0  0  0
106107  1  0  0  0  0
105108  1  0  0  0  0
108109  1  0  0  0  0
109110  2  0  0  0  0
110111  1  0  0  0  0
111112  2  0  0  0  0
112113  1  0  0  0  0
113114  1  0  0  0  0
114115  1  0  0  0  0
115116  1  0  0  0  0
114117  2  0  0  0  0
110118  1  0  0  0  0
118119  2  0  0  0  0
119120  1  0  0  0  0
120121  2  0  0  0  0
120122  1  0  0  0  0
122123  2  0  0  0  0
123124  1  0  0  0  0
124125  2  0  0  0  0
125126  1  0  0  0  0
126127  2  0  0  0  0
127128  1  0  0  0  0
128129  2  0  0  0  0
129130  1  0  0  0  0
130131  3  0  0  0  0
129132  1  0  0  0  0
132133  3  0  0  0  0
125134  1  0  0  0  0
134135  1  0  0  0  0
135136  1  0  0  0  0
136137  2  0  0  0  0
137138  1  0  0  0  0
138139  1  0  0  0  0
138140  1  0  0  0  0
 11  2  1  0  0  0  0
 23 17  1  0  0  0  0
 56 24  1  0  0  0  0
101 60  1  0  0  0  0
112102  1  0  0  0  0
128119  1  0  0  0  0
140134  1  0  0  0  0
 10  5  1  0  0  0  0
 22 18  1  0  0  0  0
 55 26  1  0  0  0  0
 70 63  1  0  0  0  0
 78 71  1  0  0  0  0
100 79  2  0  0  0  0
109103  1  0  0  0  0
117111  1  0  0  0  0
127122  1  0  0  0  0
139135  1  0  0  0  0
 23  7  1  0  0  0  0
 39 28  1  0  0  0  0
 59 40  1  0  0  0  0
 91 84  1  0  0  0  0
 99 92  1  0  0  0  0
140124  1  0  0  0  0
 54 43  1  0  0  0  0
  1141  1  0  0  0  0
  6142  1  0  0  0  0
  9143  1  0  0  0  0
 17144  1  0  0  0  0
 18145  1  0  0  0  0
 19146  1  0  0  0  0
 20147  1  0  0  0  0
 21148  1  0  0  0  0
 22149  1  0  0  0  0
 22150  1  0  0  0  0
 23151  1  0  0  0  0
 25152  1  0  0  0  0
 29153  1  0  0  0  0
 30154  1  0  0  0  0
 33155  1  0  0  0  0
 33156  1  0  0  0  0
 34157  1  0  0  0  0
 34158  1  0  0  0  0
 34159  1  0  0  0  0
 35160  1  0  0  0  0
 35161  1  0  0  0  0
 36162  1  0  0  0  0
 36163  1  0  0  0  0
 36164  1  0  0  0  0
 37165  1  0  0  0  0
 37166  1  0  0  0  0
 38167  1  0  0  0  0
 38168  1  0  0  0  0
 38169  1  0  0  0  0
 44170  1  0  0  0  0
 45171  1  0  0  0  0
 48172  1  0  0  0  0
 48173  1  0  0  0  0
 49174  1  0  0  0  0
 49175  1  0  0  0  0
 49176  1  0  0  0  0
 50177  1  0  0  0  0
 50178  1  0  0  0  0
 51179  1  0  0  0  0
 51180  1  0  0  0  0
 51181  1  0  0  0  0
 52182  1  0  0  0  0
 52183  1  0  0  0  0
 53184  1  0  0  0  0
 53185  1  0  0  0  0
 53186  1  0  0  0  0
 57187  1  0  0  0  0
 64188  1  0  0  0  0
 65189  1  0  0  0  0
 68190  1  0  0  0  0
 68191  1  0  0  0  0
 68192  1  0  0  0  0
 69193  1  0  0  0  0
 70194  1  0  0  0  0
 72195  1  0  0  0  0
 73196  1  0  0  0  0
 76197  1  0  0  0  0
 76198  1  0  0  0  0
 76199  1  0  0  0  0
 77200  1  0  0  0  0
 78201  1  0  0  0  0
 85202  1  0  0  0  0
 86203  1  0  0  0  0
 89204  1  0  0  0  0
 89205  1  0  0  0  0
 89206  1  0  0  0  0
 90207  1  0  0  0  0
 91208  1  0  0  0  0
 93209  1  0  0  0  0
 94210  1  0  0  0  0
 97211  1  0  0  0  0
 97212  1  0  0  0  0
 97213  1  0  0  0  0
 98214  1  0  0  0  0
 99215  1  0  0  0  0
104216  1  0  0  0  0
106217  1  0  0  0  0
106218  1  0  0  0  0
107219  1  0  0  0  0
107220  1  0  0  0  0
107221  1  0  0  0  0
115222  1  0  0  0  0
115223  1  0  0  0  0
116224  1  0  0  0  0
116225  1  0  0  0  0
116226  1  0  0  0  0
117227  1  0  0  0  0
118228  1  0  0  0  0
123229  1  0  0  0  0
126230  1  0  0  0  0
134231  1  0  0  0  0
135232  1  0  0  0  0
136233  1  0  0  0  0
137234  1  0  0  0  0
138235  1  0  0  0  0
139236  1  0  0  0  0
139237  1  0  0  0  0
140238  1  0  0  0  0
M  END
