
  xtb     02122215143D
 energy: -275.339853217808 gnorm: 0.000557006042 xtb: 6.4.1 (unknown)
166183  0     0  0            999 V2000
   -2.7652    5.1289   -5.1025 C   0  0  0  0  0  0  0  0  0  0  0  0
   -3.2858    6.0093   -4.2125 C   0  0  0  0  0  0  0  0  0  0  0  0
   -3.3992    7.4593   -4.5403 C   0  0  0  0  0  0  0  0  0  0  0  0
   -3.3290    7.9603   -5.6382 O   0  0  0  0  0  0  0  0  0  0  0  0
   -3.5523    8.1361   -3.2372 C   0  0  0  0  0  0  0  0  0  0  0  0
   -3.5560    9.5078   -2.9922 C   0  0  0  0  0  0  0  0  0  0  0  0
   -3.6936    9.8406   -1.6658 C   0  0  0  0  0  0  0  0  0  0  0  0
   -3.8069    8.8828   -0.6476 C   0  0  0  0  0  0  0  0  0  0  0  0
   -3.8112    7.5273   -0.8728 C   0  0  0  0  0  0  0  0  0  0  0  0
   -3.6845    7.1692   -2.2170 C   0  0  0  0  0  0  0  0  0  0  0  0
   -3.6937    5.8465   -2.8291 C   0  0  0  0  0  0  0  0  0  0  0  0
   -4.2560    4.7249   -2.2809 C   0  0  0  0  0  0  0  0  0  0  0  0
   -4.7360    4.6245   -0.9608 C   0  0  0  0  0  0  0  0  0  0  0  0
   -5.1337    4.4455    0.1019 N   0  0  0  0  0  0  0  0  0  0  0  0
   -4.5042    3.5354   -2.9987 C   0  0  0  0  0  0  0  0  0  0  0  0
   -4.7914    2.5606   -3.5329 N   0  0  0  0  0  0  0  0  0  0  0  0
   -3.9054    9.9281    0.4344 C   0  0  0  0  0  0  0  0  0  0  0  0
   -5.3051   10.2112    1.0332 C   0  0  0  0  0  0  0  0  0  0  0  0
   -6.3076    9.8516   -0.0355 C   0  0  0  0  0  0  0  0  0  0  0  0
   -6.2115   10.7560   -1.0009 C   0  0  0  0  0  0  0  0  0  0  0  0
   -5.1425   11.7436   -0.6026 C   0  0  0  0  0  0  0  0  0  0  0  0
   -5.3294   11.7441    0.9231 C   0  0  0  0  0  0  0  0  0  0  0  0
   -3.7898   10.9946   -0.7000 C   0  0  0  0  0  0  0  0  0  0  0  0
   -2.2454    3.8380   -4.8061 C   0  0  0  0  0  0  0  0  0  0  0  0
   -2.2292    2.7278   -5.6178 C   0  0  0  0  0  0  0  0  0  0  0  0
   -1.7175    1.5788   -4.9841 C   0  0  0  0  0  0  0  0  0  0  0  0
   -1.6035    0.3390   -5.4985 O   0  0  0  0  0  0  0  0  0  0  0  0
   -2.0093    0.1543   -6.8446 C   0  0  0  0  0  0  0  0  0  0  0  0
   -1.7401   -1.2950   -7.2126 C   0  0  0  0  0  0  0  0  0  0  0  0
   -1.2622    1.8324   -3.7043 C   0  0  0  0  0  0  0  0  0  0  0  0
   -1.5146    3.4916   -3.2678 S   0  0  0  0  0  0  0  0  0  0  0  0
   -0.7380    0.9373   -2.7043 C   0  0  0  0  0  0  0  0  0  0  0  0
    0.5099    1.0125   -2.1196 C   0  0  0  0  0  0  0  0  0  0  0  0
    1.5289    1.7908   -2.6436 N   0  0  0  0  0  0  0  0  0  0  0  0
    1.5584    1.9576   -4.0413 C   0  0  0  0  0  0  0  0  0  0  0  0
    1.4693    0.8438   -4.8703 C   0  0  0  0  0  0  0  0  0  0  0  0
    1.4123    0.9893   -6.2413 C   0  0  0  0  0  0  0  0  0  0  0  0
    1.4422    2.2574   -6.8049 C   0  0  0  0  0  0  0  0  0  0  0  0
    1.2875    2.5636   -8.5389 S   0  0  0  0  0  0  0  0  0  0  0  0
    1.5473    0.9293   -9.2901 C   0  0  0  0  0  0  0  0  0  0  0  0
    1.5685    3.3734   -5.9800 C   0  0  0  0  0  0  0  0  0  0  0  0
    1.6343    3.2270   -4.6118 C   0  0  0  0  0  0  0  0  0  0  0  0
    2.4235    2.4728   -1.8193 C   0  0  0  0  0  0  0  0  0  0  0  0
    2.0516    2.8884   -0.5437 C   0  0  0  0  0  0  0  0  0  0  0  0
    2.9567    3.5263    0.2824 C   0  0  0  0  0  0  0  0  0  0  0  0
    4.2488    3.7710   -0.1588 C   0  0  0  0  0  0  0  0  0  0  0  0
    5.4849    4.5808    0.8101 S   0  0  0  0  0  0  0  0  0  0  0  0
    4.8134    4.5121    2.4962 C   0  0  0  0  0  0  0  0  0  0  0  0
    4.6158    3.3865   -1.4469 C   0  0  0  0  0  0  0  0  0  0  0  0
    3.7183    2.7419   -2.2666 C   0  0  0  0  0  0  0  0  0  0  0  0
    0.5896    0.1699   -0.9823 C   0  0  0  0  0  0  0  0  0  0  0  0
    1.8082   -0.1839    0.1938 S   0  0  0  0  0  0  0  0  0  0  0  0
    0.6692   -1.1646    1.0990 C   0  0  0  0  0  0  0  0  0  0  0  0
   -0.5575   -1.2876    0.4628 C   0  0  0  0  0  0  0  0  0  0  0  0
   -1.5994   -2.0909    0.8973 N   0  0  0  0  0  0  0  0  0  0  0  0
   -1.3045   -3.3027    1.5389 C   0  0  0  0  0  0  0  0  0  0  0  0
   -0.2354   -4.0786    1.0990 C   0  0  0  0  0  0  0  0  0  0  0  0
    0.1906   -5.1742    1.8215 C   0  0  0  0  0  0  0  0  0  0  0  0
   -0.4543   -5.5188    3.0013 C   0  0  0  0  0  0  0  0  0  0  0  0
    0.0959   -6.8016    4.0817 S   0  0  0  0  0  0  0  0  0  0  0  0
    1.6578   -7.3514    3.3382 C   0  0  0  0  0  0  0  0  0  0  0  0
   -1.5899   -4.8100    3.3893 C   0  0  0  0  0  0  0  0  0  0  0  0
   -2.0140   -3.7158    2.6672 C   0  0  0  0  0  0  0  0  0  0  0  0
   -2.9167   -1.6491    0.7207 C   0  0  0  0  0  0  0  0  0  0  0  0
   -3.2157   -0.2895    0.7909 C   0  0  0  0  0  0  0  0  0  0  0  0
   -4.4930    0.1688    0.5384 C   0  0  0  0  0  0  0  0  0  0  0  0
   -5.5021   -0.7327    0.2291 C   0  0  0  0  0  0  0  0  0  0  0  0
   -7.1592   -0.2379   -0.1263 S   0  0  0  0  0  0  0  0  0  0  0  0
   -6.9579    1.4712   -0.7052 C   0  0  0  0  0  0  0  0  0  0  0  0
   -5.2212   -2.0974    0.2134 C   0  0  0  0  0  0  0  0  0  0  0  0
   -3.9432   -2.5533    0.4492 C   0  0  0  0  0  0  0  0  0  0  0  0
   -0.5904   -0.5118   -0.7220 C   0  0  0  0  0  0  0  0  0  0  0  0
   -1.8045   -0.2028   -1.9129 S   0  0  0  0  0  0  0  0  0  0  0  0
    1.0065   -1.7476    2.3626 C   0  0  0  0  0  0  0  0  0  0  0  0
    0.1716   -1.7345    3.4633 C   0  0  0  0  0  0  0  0  0  0  0  0
    0.6621   -2.5010    4.5183 C   0  0  0  0  0  0  0  0  0  0  0  0
    0.0994   -2.7367    5.7099 O   0  0  0  0  0  0  0  0  0  0  0  0
   -1.0985   -2.0627    6.0565 C   0  0  0  0  0  0  0  0  0  0  0  0
   -0.8465   -0.6159    6.4645 C   0  0  0  0  0  0  0  0  0  0  0  0
    1.8949   -3.1231    4.2212 C   0  0  0  0  0  0  0  0  0  0  0  0
    2.4258   -2.7024    2.6117 S   0  0  0  0  0  0  0  0  0  0  0  0
    2.5200   -3.9554    5.1508 C   0  0  0  0  0  0  0  0  0  0  0  0
    3.6419   -4.7349    5.0228 C   0  0  0  0  0  0  0  0  0  0  0  0
    4.3905   -4.9445    3.7835 C   0  0  0  0  0  0  0  0  0  0  0  0
    4.2373   -4.3726    2.7149 O   0  0  0  0  0  0  0  0  0  0  0  0
    5.3566   -6.0226    4.0634 C   0  0  0  0  0  0  0  0  0  0  0  0
    6.2546   -6.5998    3.1695 C   0  0  0  0  0  0  0  0  0  0  0  0
    7.0242   -7.5982    3.7167 C   0  0  0  0  0  0  0  0  0  0  0  0
    6.9119   -7.9906    5.0565 C   0  0  0  0  0  0  0  0  0  0  0  0
    6.0330   -7.4257    5.9503 C   0  0  0  0  0  0  0  0  0  0  0  0
    5.2369   -6.4114    5.4132 C   0  0  0  0  0  0  0  0  0  0  0  0
    4.2020   -5.5917    6.0440 C   0  0  0  0  0  0  0  0  0  0  0  0
    3.8736   -5.6080    7.3756 C   0  0  0  0  0  0  0  0  0  0  0  0
    4.4576   -6.4649    8.3304 C   0  0  0  0  0  0  0  0  0  0  0  0
    4.8855   -7.1325    9.1614 N   0  0  0  0  0  0  0  0  0  0  0  0
    2.9430   -4.7509    8.0002 C   0  0  0  0  0  0  0  0  0  0  0  0
    2.2283   -4.0815    8.6011 N   0  0  0  0  0  0  0  0  0  0  0  0
    7.9729   -9.0534    4.9179 C   0  0  0  0  0  0  0  0  0  0  0  0
    7.5060  -10.5261    4.8096 C   0  0  0  0  0  0  0  0  0  0  0  0
    6.1156  -10.4923    4.2259 C   0  0  0  0  0  0  0  0  0  0  0  0
    6.2185  -10.1218    2.9565 C   0  0  0  0  0  0  0  0  0  0  0  0
    7.6807   -9.8991    2.6589 C   0  0  0  0  0  0  0  0  0  0  0  0
    8.3082  -10.9631    3.5736 C   0  0  0  0  0  0  0  0  0  0  0  0
    8.0964   -8.6178    3.4238 C   0  0  0  0  0  0  0  0  0  0  0  0
   -2.6915    5.4636   -6.1319 H   0  0  0  0  0  0  0  0  0  0  0  0
   -3.4597   10.2162   -3.8000 H   0  0  0  0  0  0  0  0  0  0  0  0
   -3.8906    6.7940   -0.0864 H   0  0  0  0  0  0  0  0  0  0  0  0
   -3.1251    9.9041    1.1924 H   0  0  0  0  0  0  0  0  0  0  0  0
   -5.4728    9.7760    2.0146 H   0  0  0  0  0  0  0  0  0  0  0  0
   -6.9234    8.9718   -0.0065 H   0  0  0  0  0  0  0  0  0  0  0  0
   -6.7317   10.7833   -1.9404 H   0  0  0  0  0  0  0  0  0  0  0  0
   -5.1632   12.7043   -1.1099 H   0  0  0  0  0  0  0  0  0  0  0  0
   -4.5164   12.2309    1.4600 H   0  0  0  0  0  0  0  0  0  0  0  0
   -6.2819   12.1728    1.2302 H   0  0  0  0  0  0  0  0  0  0  0  0
   -2.9387   11.6725   -0.6795 H   0  0  0  0  0  0  0  0  0  0  0  0
   -2.6330    2.7470   -6.6132 H   0  0  0  0  0  0  0  0  0  0  0  0
   -1.4428    0.8333   -7.4970 H   0  0  0  0  0  0  0  0  0  0  0  0
   -3.0788    0.3800   -6.9460 H   0  0  0  0  0  0  0  0  0  0  0  0
   -0.6857   -1.5247   -7.0836 H   0  0  0  0  0  0  0  0  0  0  0  0
   -2.3146   -1.9524   -6.5663 H   0  0  0  0  0  0  0  0  0  0  0  0
   -2.0239   -1.4731   -8.2461 H   0  0  0  0  0  0  0  0  0  0  0  0
    1.4210   -0.1423   -4.4339 H   0  0  0  0  0  0  0  0  0  0  0  0
    1.3372    0.1076   -6.8565 H   0  0  0  0  0  0  0  0  0  0  0  0
    1.6108    1.1069  -10.3591 H   0  0  0  0  0  0  0  0  0  0  0  0
    0.7075    0.2734   -9.0776 H   0  0  0  0  0  0  0  0  0  0  0  0
    2.4800    0.5062   -8.9296 H   0  0  0  0  0  0  0  0  0  0  0  0
    1.6002    4.3557   -6.4256 H   0  0  0  0  0  0  0  0  0  0  0  0
    1.7223    4.0937   -3.9738 H   0  0  0  0  0  0  0  0  0  0  0  0
    1.0413    2.7258   -0.1992 H   0  0  0  0  0  0  0  0  0  0  0  0
    2.6351    3.8365    1.2636 H   0  0  0  0  0  0  0  0  0  0  0  0
    4.5285    3.4912    2.7318 H   0  0  0  0  0  0  0  0  0  0  0  0
    5.6207    4.8325    3.1472 H   0  0  0  0  0  0  0  0  0  0  0  0
    3.9712    5.1909    2.5962 H   0  0  0  0  0  0  0  0  0  0  0  0
    5.6188    3.5894   -1.7894 H   0  0  0  0  0  0  0  0  0  0  0  0
    4.0151    2.4319   -3.2573 H   0  0  0  0  0  0  0  0  0  0  0  0
    0.2902   -3.8008    0.1977 H   0  0  0  0  0  0  0  0  0  0  0  0
    1.0386   -5.7328    1.4615 H   0  0  0  0  0  0  0  0  0  0  0  0
    2.0970   -8.0424    4.0516 H   0  0  0  0  0  0  0  0  0  0  0  0
    2.3189   -6.5024    3.1924 H   0  0  0  0  0  0  0  0  0  0  0  0
    1.4651   -7.8652    2.4006 H   0  0  0  0  0  0  0  0  0  0  0  0
   -2.1134   -5.1092    4.2844 H   0  0  0  0  0  0  0  0  0  0  0  0
   -2.8792   -3.1544    2.9892 H   0  0  0  0  0  0  0  0  0  0  0  0
   -2.4389    0.4172    1.0448 H   0  0  0  0  0  0  0  0  0  0  0  0
   -4.6901    1.2276    0.5909 H   0  0  0  0  0  0  0  0  0  0  0  0
   -7.9142    1.7494   -1.1372 H   0  0  0  0  0  0  0  0  0  0  0  0
   -6.1841    1.5035   -1.4669 H   0  0  0  0  0  0  0  0  0  0  0  0
   -6.7237    2.1360    0.1213 H   0  0  0  0  0  0  0  0  0  0  0  0
   -6.0153   -2.7934   -0.0085 H   0  0  0  0  0  0  0  0  0  0  0  0
   -3.7256   -3.6100    0.4058 H   0  0  0  0  0  0  0  0  0  0  0  0
   -0.7494   -1.1804    3.4769 H   0  0  0  0  0  0  0  0  0  0  0  0
   -1.8184   -2.1222    5.2323 H   0  0  0  0  0  0  0  0  0  0  0  0
   -1.4866   -2.6293    6.9062 H   0  0  0  0  0  0  0  0  0  0  0  0
   -1.7790   -0.1586    6.7827 H   0  0  0  0  0  0  0  0  0  0  0  0
   -0.4372   -0.0438    5.6350 H   0  0  0  0  0  0  0  0  0  0  0  0
   -0.1381   -0.5864    7.2884 H   0  0  0  0  0  0  0  0  0  0  0  0
    1.9829   -4.0013    6.0907 H   0  0  0  0  0  0  0  0  0  0  0  0
    6.3110   -6.2638    2.1457 H   0  0  0  0  0  0  0  0  0  0  0  0
    5.9584   -7.7408    6.9776 H   0  0  0  0  0  0  0  0  0  0  0  0
    8.8473   -8.9411    5.5558 H   0  0  0  0  0  0  0  0  0  0  0  0
    7.6305  -11.1071    5.7194 H   0  0  0  0  0  0  0  0  0  0  0  0
    5.2231  -10.6790    4.7942 H   0  0  0  0  0  0  0  0  0  0  0  0
    5.4287   -9.9362    2.2520 H   0  0  0  0  0  0  0  0  0  0  0  0
    7.9641   -9.9108    1.6096 H   0  0  0  0  0  0  0  0  0  0  0  0
    9.3849  -10.8515    3.6937 H   0  0  0  0  0  0  0  0  0  0  0  0
    8.0765  -11.9795    3.2585 H   0  0  0  0  0  0  0  0  0  0  0  0
    9.0528   -8.2241    3.0848 H   0  0  0  0  0  0  0  0  0  0  0  0
  1  2  2  0  0  0  0
  2  3  1  0  0  0  0
  3  4  2  0  0  0  0
  3  5  1  0  0  0  0
  5  6  2  0  0  0  0
  6  7  1  0  0  0  0
  7  8  2  0  0  0  0
  8  9  1  0  0  0  0
  9 10  2  0  0  0  0
 10 11  1  0  0  0  0
 11 12  2  0  0  0  0
 12 13  1  0  0  0  0
 13 14  3  0  0  0  0
 12 15  1  0  0  0  0
 15 16  3  0  0  0  0
  8 17  1  0  0  0  0
 17 18  1  0  0  0  0
 18 19  1  0  0  0  0
 19 20  2  0  0  0  0
 20 21  1  0  0  0  0
 21 22  1  0  0  0  0
 21 23  1  0  0  0  0
  1 24  1  0  0  0  0
 24 25  2  0  0  0  0
 25 26  1  0  0  0  0
 26 27  1  0  0  0  0
 27 28  1  0  0  0  0
 28 29  1  0  0  0  0
 26 30  2  0  0  0  0
 30 31  1  0  0  0  0
 30 32  1  0  0  0  0
 32 33  2  0  0  0  0
 33 34  1  0  0  0  0
 34 35  1  0  0  0  0
 35 36  2  0  0  0  0
 36 37  1  0  0  0  0
 37 38  2  0  0  0  0
 38 39  1  0  0  0  0
 39 40  1  0  0  0  0
 38 41  1  0  0  0  0
 41 42  2  0  0  0  0
 34 43  1  0  0  0  0
 43 44  2  0  0  0  0
 44 45  1  0  0  0  0
 45 46  2  0  0  0  0
 46 47  1  0  0  0  0
 47 48  1  0  0  0  0
 46 49  1  0  0  0  0
 49 50  2  0  0  0  0
 33 51  1  0  0  0  0
 51 52  1  0  0  0  0
 52 53  1  0  0  0  0
 53 54  2  0  0  0  0
 54 55  1  0  0  0  0
 55 56  1  0  0  0  0
 56 57  2  0  0  0  0
 57 58  1  0  0  0  0
 58 59  2  0  0  0  0
 59 60  1  0  0  0  0
 60 61  1  0  0  0  0
 59 62  1  0  0  0  0
 62 63  2  0  0  0  0
 55 64  1  0  0  0  0
 64 65  2  0  0  0  0
 65 66  1  0  0  0  0
 66 67  2  0  0  0  0
 67 68  1  0  0  0  0
 68 69  1  0  0  0  0
 67 70  1  0  0  0  0
 70 71  2  0  0  0  0
 54 72  1  0  0  0  0
 72 73  1  0  0  0  0
 53 74  1  0  0  0  0
 74 75  2  0  0  0  0
 75 76  1  0  0  0  0
 76 77  1  0  0  0  0
 77 78  1  0  0  0  0
 78 79  1  0  0  0  0
 76 80  2  0  0  0  0
 80 81  1  0  0  0  0
 80 82  1  0  0  0  0
 82 83  2  0  0  0  0
 83 84  1  0  0  0  0
 84 85  2  0  0  0  0
 84 86  1  0  0  0  0
 86 87  2  0  0  0  0
 87 88  1  0  0  0  0
 88 89  2  0  0  0  0
 89 90  1  0  0  0  0
 90 91  2  0  0  0  0
 91 92  1  0  0  0  0
 92 93  2  0  0  0  0
 93 94  1  0  0  0  0
 94 95  3  0  0  0  0
 93 96  1  0  0  0  0
 96 97  3  0  0  0  0
 89 98  1  0  0  0  0
 98 99  1  0  0  0  0
 99100  1  0  0  0  0
100101  2  0  0  0  0
101102  1  0  0  0  0
102103  1  0  0  0  0
102104  1  0  0  0  0
 11  2  1  0  0  0  0
 23 17  1  0  0  0  0
 31 24  1  0  0  0  0
 73 32  1  0  0  0  0
 81 74  1  0  0  0  0
 92 83  1  0  0  0  0
104 98  1  0  0  0  0
 10  5  1  0  0  0  0
 22 18  1  0  0  0  0
 42 35  1  0  0  0  0
 50 43  1  0  0  0  0
 72 51  2  0  0  0  0
 91 86  1  0  0  0  0
103 99  1  0  0  0  0
 23  7  1  0  0  0  0
 63 56  1  0  0  0  0
 71 64  1  0  0  0  0
104 88  1  0  0  0  0
  1105  1  0  0  0  0
  6106  1  0  0  0  0
  9107  1  0  0  0  0
 17108  1  0  0  0  0
 18109  1  0  0  0  0
 19110  1  0  0  0  0
 20111  1  0  0  0  0
 21112  1  0  0  0  0
 22113  1  0  0  0  0
 22114  1  0  0  0  0
 23115  1  0  0  0  0
 25116  1  0  0  0  0
 28117  1  0  0  0  0
 28118  1  0  0  0  0
 29119  1  0  0  0  0
 29120  1  0  0  0  0
 29121  1  0  0  0  0
 36122  1  0  0  0  0
 37123  1  0  0  0  0
 40124  1  0  0  0  0
 40125  1  0  0  0  0
 40126  1  0  0  0  0
 41127  1  0  0  0  0
 42128  1  0  0  0  0
 44129  1  0  0  0  0
 45130  1  0  0  0  0
 48131  1  0  0  0  0
 48132  1  0  0  0  0
 48133  1  0  0  0  0
 49134  1  0  0  0  0
 50135  1  0  0  0  0
 57136  1  0  0  0  0
 58137  1  0  0  0  0
 61138  1  0  0  0  0
 61139  1  0  0  0  0
 61140  1  0  0  0  0
 62141  1  0  0  0  0
 63142  1  0  0  0  0
 65143  1  0  0  0  0
 66144  1  0  0  0  0
 69145  1  0  0  0  0
 69146  1  0  0  0  0
 69147  1  0  0  0  0
 70148  1  0  0  0  0
 71149  1  0  0  0  0
 75150  1  0  0  0  0
 78151  1  0  0  0  0
 78152  1  0  0  0  0
 79153  1  0  0  0  0
 79154  1  0  0  0  0
 79155  1  0  0  0  0
 82156  1  0  0  0  0
 87157  1  0  0  0  0
 90158  1  0  0  0  0
 98159  1  0  0  0  0
 99160  1  0  0  0  0
100161  1  0  0  0  0
101162  1  0  0  0  0
102163  1  0  0  0  0
103164  1  0  0  0  0
103165  1  0  0  0  0
104166  1  0  0  0  0
M  END
