217

C          7.83660       -2.38580       -1.23490
C          8.32720       -2.20400       -2.50980
C          7.70920       -1.31400       -3.50450
O          6.68690       -0.66390       -3.38270
C          8.65790       -1.25990       -4.63720
C          8.51960       -0.52900       -5.81300
C          9.56480       -0.68230       -6.69340
C         10.67090       -1.49530       -6.42090
C         10.82150       -2.21900       -5.26090
C          9.76680       -2.08050       -4.35620
C          9.56320       -2.69720       -3.04670
C         10.32680       -3.69980       -2.49880
C         11.46980       -4.25160       -3.10380
N         12.39930       -4.75580       -3.55460
C         10.00820       -4.36200       -1.29710
N          9.79450       -4.96600       -0.34320
C         11.33960       -1.16480       -7.73300
C         12.50150       -0.15090       -7.67980
C         12.62700        0.33160       -9.10690
C         11.57750        1.10090       -9.36640
C         10.72510        1.15100       -8.11900
C         11.82000        1.06960       -7.04750
C         10.10350       -0.25920       -8.03840
C          6.50440       -2.22950       -0.84230
C          5.30110       -2.33490       -1.57120
N          5.15960       -2.78510       -2.85120
C          4.02040       -2.40610       -3.59410
C          3.61390       -1.07620       -3.63100
C          2.49370       -0.72060       -4.35510
C          1.76080       -1.67110       -5.05680
C          0.52670       -1.28080       -5.81020
C          2.18900       -2.99310       -5.02760
C          3.30660       -3.36390       -4.30600
C          6.08730       -3.63750       -3.46610
C          6.41730       -3.45010       -4.80660
C          7.35990       -4.26060       -5.41170
C          7.98920       -5.27810       -4.70790
C          9.04410       -6.12850       -5.34270
C          7.61980       -5.48740       -3.38080
C          6.68550       -4.68320       -2.76390
C          4.19460       -2.02360       -0.74380
S          2.47920       -2.01470       -0.99140
C          2.22460       -1.58510        0.68120
C          3.40060       -1.51120        1.40760
N          3.42470       -1.36310        2.78300
C          4.40100       -0.60350        3.41980
C          4.73540       -0.85150        4.75080
C          5.71110       -0.10150        5.37410
C          6.39180        0.90520        4.69780
C          7.47380        1.68780        5.37750
C          6.05500        1.14530        3.37250
C          5.07070        0.41150        2.73890
C          2.40250       -2.02130        3.49510
C          1.64720       -1.37390        4.46670
C          0.59650       -2.03270        5.07660
C          0.28030       -3.34490        4.74300
C         -0.88410       -4.04390        5.37120
C          1.05980       -3.99320        3.79320
C          2.10890       -3.34490        3.17730
C          4.52040       -1.75700        0.58000
S          6.21330       -1.88600        0.87060
C          0.90450       -1.27120        1.18790
C         -0.20260       -2.07360        1.02020
F         -0.08590       -3.27000        0.41810
C         -1.47210       -1.67850        1.45180
F         -2.47960       -2.54470        1.22230
C         -1.72570       -0.46980        2.08830
C         -0.57810        0.33340        2.37380
N         -0.68050        1.46140        3.09440
C          0.35930        2.24560        3.24010
C          0.21830        3.40530        4.17740
C          1.09840        3.21570        5.41530
C          1.57110        1.97170        2.54320
N          1.71610        0.82920        1.92260
C          0.69640       -0.03920        1.86740
C          2.72090        2.92880        2.43840
C          3.13160        3.12050        0.97850
C         -3.08400        0.00500        2.23380
C         -3.66580        0.90260        3.11610
N         -3.13630        1.39100        4.30230
C         -2.72770        0.52120        5.31430
C         -3.25880       -0.76240        5.41710
C         -2.93030       -1.57070        6.48830
C         -2.05200       -1.14030        7.47360
C         -1.70170       -2.00470        8.64720
C         -1.49580        0.12900        7.34530
C         -1.82720        0.95030        6.28820
C         -3.35570        2.75260        4.55650
C         -3.75690        3.21920        5.80530
C         -3.98960        4.56680        6.00050
C         -3.84540        5.48220        4.96570
C         -4.13510        6.93720        5.16920
C         -3.44890        5.00880        3.71970
C         -3.20290        3.66730        3.51380
C         -4.97790        1.24850        2.70210
S         -6.16100        2.34020        3.31820
C         -7.29790        1.86450        2.04580
C         -6.72160        0.95270        1.13680
N         -7.24030        0.53190       -0.05250
C         -8.17640        1.26800       -0.78870
C         -9.20240        0.60690       -1.46070
C        -10.15810        1.32600       -2.15370
C        -10.11660        2.71260       -2.20370
C        -11.17590        3.50070       -2.90820
C         -9.05890        3.36290       -1.57180
C         -8.10140        2.65820       -0.87380
C         -6.79360       -0.69960       -0.58430
C         -6.38830       -0.77990       -1.91110
C         -5.92310       -1.97950       -2.41540
C         -5.85310       -3.11400       -1.61630
C         -5.30660       -4.40290       -2.14570
C         -6.28770       -3.02580       -0.29790
C         -6.75590       -1.83540        0.21890
C         -5.41580        0.59980        1.55940
S         -4.20140       -0.46230        0.94980
C         -8.55860        2.46610        2.07520
C         -9.70650        1.96780        1.49710
C         -9.95410        0.53070        1.26610
O         -9.20000       -0.39270        1.51040
C        -11.35200        0.44270        0.80730
C        -12.09660       -0.66920        0.45870
C        -13.39860       -0.48750        0.03520
C        -13.96460        0.79200       -0.02660
O        -15.24600        0.84290       -0.45640
C        -15.88740        2.09620       -0.54890
C        -13.21680        1.91400        0.34030
C        -11.90940        1.72880        0.74950
C        -10.89150        2.69750        1.15470
C        -10.99410        4.06490        1.05130
C         -9.93830        4.95660        1.32170
N         -9.11520        5.73930        1.49590
C        -12.13710        4.73340        0.58030
N        -13.03960        5.32550        0.18380
H          8.53310       -2.63120       -0.44190
H          7.65020        0.08650       -5.98560
H         11.68140       -2.83600       -5.05940
H         11.54180       -2.00890       -8.38990
H         13.40720       -0.52060       -7.20670
H         13.41070        0.02840       -9.77620
H         11.30950        1.56860      -10.29570
H         10.01240        1.96830       -8.04580
H         12.46410        1.94750       -7.04920
H         11.44340        0.89550       -6.04140
H          9.48200       -0.50030       -8.89920
H          4.20080       -0.33330       -3.11420
H          2.18590        0.31450       -4.38160
H         -0.33500       -1.30260       -5.14220
H          0.61690       -0.27240       -6.20780
H          0.33570       -1.96940       -6.62970
H          1.63650       -3.74490       -5.57210
H          3.62870       -4.39480       -4.28580
H          5.93980       -2.65870       -5.36460
H          7.61930       -4.08600       -6.44590
H         10.02330       -5.88730       -4.92780
H          8.85580       -7.18260       -5.14800
H          9.08010       -5.96770       -6.41710
H          8.07860       -6.28940       -2.82130
H          6.41840       -4.86180       -1.73320
H          4.23180       -1.64040        5.28940
H          5.95830       -0.30870        6.40550
H          7.63710        2.64070        4.87940
H          7.22290        1.87230        6.42010
H          8.40970        1.12860        5.35280
H          6.56580        1.92460        2.82470
H          4.80880        0.63080        1.71630
H          1.87880       -0.35170        4.73040
H          0.00140       -1.51220        5.81170
H         -1.80430       -3.74990        4.86610
H         -0.97600       -3.77600        6.42000
H         -0.77910       -5.12290        5.28600
H          0.84160       -5.01790        3.53020
H          2.70370       -3.85800        2.43590
H          0.49170        4.33290        3.66950
H         -0.82830        3.47890        4.47110
H          0.93270        4.03100        6.11540
H          2.15300        3.19450        5.15150
H          0.85550        2.27830        5.91050
H          2.46600        3.89150        2.87860
H          3.56500        2.50490        2.98990
H          3.32580        2.15610        0.51810
H          2.33640        3.61180        0.42160
H          4.02830        3.73160        0.91640
H         -3.95950       -1.11540        4.67480
H         -3.38590       -2.54710        6.56940
H         -1.90770       -1.48110        9.57990
H         -0.63960       -2.25250        8.63630
H         -2.27450       -2.92890        8.63610
H         -0.79890        0.48000        8.09390
H         -1.40720        1.94030        6.21890
H         -3.90100        2.52290        6.61780
H         -4.30570        4.91040        6.97490
H         -3.39270        7.55390        4.66630
H         -5.11110        7.18270        4.74990
H         -4.14600        7.18930        6.22670
H         -3.33020        5.70330        2.90060
H         -2.88090        3.31080        2.54640
H         -9.25460       -0.47050       -1.41910
H        -10.95960        0.79630       -2.64770
H        -11.71610        4.12780       -2.19860
H        -11.88770        2.84260       -3.39980
H        -10.73120        4.15790       -3.65400
H         -8.99190        4.44020       -1.61990
H         -7.29400        3.18510       -0.38760
H         -6.43110        0.09940       -2.53760
H         -5.60020       -2.03070       -3.44520
H         -5.24570       -4.38760       -3.23090
H         -5.92830       -5.24110       -1.83760
H         -4.30540       -4.56690       -1.74700
H         -6.25660       -3.90310        0.33090
H         -7.11840       -1.77200        1.23290
H         -8.62240        3.38960        2.63870
H        -11.65850       -1.65390        0.50990
H        -14.01280       -1.32420       -0.25780
H        -16.88630        1.88530       -0.92670
H        -15.36900        2.76330       -1.24370
H        -15.96470        2.58050        0.42890
H        -13.64940        2.89890        0.31130
