235

C          2.79310       -8.01570        2.66820
C          3.16200       -8.95390        1.72440
C          2.74960       -8.89930        0.31830
O          2.07720       -8.03700       -0.22650
C          3.19970      -10.16840       -0.28680
C          3.03680      -10.57470       -1.60690
C          3.59870      -11.79750       -1.88980
C          4.25580      -12.56840       -0.92440
C          4.40920      -12.18480        0.38780
C          3.86160      -10.93750        0.68950
C          3.86500      -10.18490        1.94340
C          4.56520      -10.51470        3.07920
C          4.65620       -9.68540        4.21390
N          4.80220       -9.04770        5.15850
C          5.34770      -11.67380        3.22290
N          6.01770      -12.59240        3.39230
C          4.58650      -13.66370       -1.90730
C          6.03670      -13.72840       -2.44700
C          6.58670      -12.32600       -2.37040
C          5.96600      -11.59700       -3.28830
C          4.98340      -12.49320       -4.00010
C          5.74920      -13.82500       -3.95390
C          3.85500      -12.80320       -2.98520
C          2.45710       -6.68980        2.39700
C          2.80430       -5.84590        1.31950
N          3.77100       -6.06840        0.38750
C          3.77480       -5.32220       -0.81530
C          2.65090       -5.28600       -1.63190
C          2.67390       -4.54880       -2.80000
C          3.80890       -3.84100       -3.17730
C          3.84050       -3.05610       -4.45180
C          4.93320       -3.90180       -2.36170
C          4.92340       -4.63500       -1.19210
C          4.82030       -6.98400        0.56170
C          5.21730       -7.78060       -0.51050
C          6.22140       -8.71580       -0.34880
C          6.86380       -8.87290        0.87270
C          7.91050       -9.92520        1.06140
C          6.49520       -8.03800        1.92420
C          5.48820       -7.10660        1.77820
C          2.08110       -4.63370        1.40010
S          2.02470       -3.22420        0.40590
C          0.84130       -2.48950        1.48010
C          0.58970       -3.25680        2.60780
N         -0.16090       -2.84450        3.68730
C         -0.27940       -1.47760        3.99230
C          0.78500       -0.59750        3.81740
C          0.62980        0.74810        4.08980
C         -0.57070        1.24900        4.57440
C         -0.75550        2.71010        4.84830
C         -1.61270        0.35440        4.79860
C         -1.47900       -0.98780        4.50190
C         -0.69500       -3.78080        4.59290
C         -1.29950       -4.94870        4.14090
C         -1.82710       -5.85400        5.04190
C         -1.76860       -5.62280        6.40900
C         -2.32130       -6.61530        7.38490
C         -1.16040       -4.45330        6.85300
C         -0.62660       -3.54330        5.96410
C          1.28200       -4.49410        2.52790
S          1.40490       -5.86920        3.56280
C          0.31950       -1.21950        1.06230
C         -0.98230       -0.81350        0.82300
N         -2.13550       -1.55570        1.00230
C         -2.16820       -2.94400        0.81950
C         -1.31160       -3.59250       -0.06600
C         -1.32150       -4.96990       -0.17980
C         -2.22570       -5.72290        0.55610
S         -2.30620       -7.48520        0.53310
C         -1.08300       -7.97780       -0.71090
C         -3.13730       -5.07010        1.38690
C         -3.10020       -3.70120        1.52980
C         -3.35450       -0.84880        1.07100
C         -4.40080       -1.14670        0.20230
C         -5.53670       -0.36240        0.18040
C         -5.64650        0.73340        1.02790
S         -7.01920        1.84620        1.00230
C         -7.63480        1.66240       -0.69650
C         -4.63770        0.98680        1.95100
C         -3.50090        0.20760        1.96950
C         -1.00010        0.49800        0.28050
S         -2.25790        1.55170       -0.24540
C         -1.08740        2.76390       -0.74620
C          0.22250        2.36410       -0.49770
N          1.38980        3.06800       -0.74810
C          1.50780        4.43690       -0.50630
C          0.71820        5.06800        0.45700
C          0.79520        6.43150        0.63400
C          1.66870        7.19790       -0.13290
S          1.66220        8.94140        0.14330
C          3.26020        9.47320       -0.53570
C          2.47450        6.57420       -1.07640
C          2.39080        5.20930       -1.26180
C          2.49690        2.31540       -1.17910
C          3.76230        2.51390       -0.63720
C          4.82840        1.73190       -1.03730
C          4.64120        0.72710       -1.97700
S          5.92480       -0.34160       -2.54520
C          7.28490       -0.04980       -1.38000
C          3.37950        0.53540       -2.53500
C          2.32160        1.32480       -2.14680
C          0.24440        1.06360        0.07070
S          1.50330       -0.01050        0.56100
C         -1.64770        3.96260       -1.26430
C         -1.08380        5.01570       -1.92800
C         -1.98510        6.06850       -2.20040
C         -1.69580        7.31840       -2.78950
C         -0.38590        7.63410       -3.31000
C          0.47670        6.80010       -3.97250
C          1.69980        7.36660       -4.37220
C          1.85700        8.68280       -4.03730
S          3.30360        9.61070       -4.39690
C          2.62880       11.30510       -4.56580
C          2.57210       12.04780       -3.24610
Se         0.36160        9.34340       -3.10580
C         -2.73470        8.24420       -2.79840
C         -4.04620        7.96040       -2.32860
C         -4.36870        6.66090       -1.84120
C         -5.71070        6.30610       -1.46150
C         -6.87230        6.80260       -2.00130
C         -8.07260        6.36980       -1.41400
C         -7.91590        5.49060       -0.37800
S         -9.12310        4.78730        0.67060
C        -10.69100        5.14440       -0.20290
C        -10.86320        4.29930       -1.45020
Se        -6.11370        5.06380       -0.08300
C         -3.29670        5.78360       -1.74250
S         -3.37440        4.20060       -1.02410
C         -4.85270        9.10180       -2.36920
C         -4.23410       10.22530       -2.89900
S         -2.57860        9.88200       -3.35430
C         -4.90670       11.44720       -3.04530
C         -4.47460       12.65100       -3.54460
C         -3.11270       12.96880       -3.99490
O         -2.14720       12.23440       -4.07130
C         -3.13230       14.40550       -4.34750
C         -2.09080       15.18510       -4.80370
C         -2.36470       16.52090       -5.06400
Br        -0.96970       17.64780       -5.69410
C         -3.63200       17.05400       -4.87420
C         -4.67260       16.25890       -4.41660
C         -4.42470       14.92000       -4.15000
C         -5.29010       13.84190       -3.67310
C         -6.63720       13.96260       -3.43770
C         -7.36150       15.16220       -3.59620
N         -8.01010       16.10380       -3.70240
C         -7.50430       12.92750       -3.03180
N         -8.28520       12.14500       -2.71730
H          2.69980       -8.32570        3.70190
H          2.52060       -9.95210       -2.32160
H          4.90570      -12.79500        1.12400
H          4.18390      -14.64930       -1.68230
H          6.64960      -14.50780       -2.00250
H          7.30680      -12.00790       -1.63920
H          6.06280      -10.54460       -3.48430
H          4.63640      -12.14910       -4.97110
H          5.13920      -14.68570       -4.22450
H          6.65520      -13.81190       -4.55830
H          2.97330      -13.22720       -3.46250
H          1.78290       -5.85910       -1.34670
H          1.79730       -4.52590       -3.43150
H          4.51510       -2.20780       -4.36170
H          2.84700       -2.70110       -4.71530
H          4.19950       -3.68490       -5.26700
H          5.82150       -3.35730       -2.64430
H          5.79870       -4.67530       -0.56000
H          4.72210       -7.67060       -1.46380
H          6.49800       -9.34580       -1.18130
H          8.42950      -10.12830        0.12750
H          8.63560       -9.62230        1.81290
H          7.44830      -10.85350        1.40090
H          6.99860       -8.12480        2.87610
H          5.21470       -6.47470        2.60990
H          1.73920       -0.96840        3.47410
H          1.46350        1.41680        3.92950
H          0.16810        3.25810        4.67920
H         -1.52690        3.12180        4.19720
H         -1.07270        2.86920        5.87780
H         -2.54910        0.71870        5.19700
H         -2.30550       -1.66530        4.65740
H         -1.36800       -5.13930        3.08280
H         -2.29370       -6.75360        4.66810
H         -2.73140       -6.11390        8.25880
H         -1.52900       -7.28410        7.72260
H         -3.09930       -7.21970        6.92500
H         -1.09720       -4.25580        7.91340
H         -0.15190       -2.64350        6.32730
H         -0.63690       -3.01800       -0.68190
H         -0.62290       -5.44130       -0.85150
H         -1.31730       -7.50930       -1.66250
H         -1.18280       -9.05570       -0.79990
H         -0.07660       -7.73460       -0.38030
H         -3.85480       -5.65620        1.94020
H         -3.78820       -3.20660        2.19870
H         -4.30920       -1.98150       -0.47710
H         -6.32370       -0.60250       -0.51640
H         -8.18640        0.73310       -0.80480
H         -6.79730        1.70970       -1.38610
H         -8.30020        2.50400       -0.85990
H         -4.74140        1.82010        2.62840
H         -2.70020        0.42880        2.65740
H          0.04720        4.48240        1.06670
H          0.17760        6.91970        1.37220
H          4.04980        8.85160       -0.12500
H          3.38880       10.50110       -0.21140
H          3.24920        9.42730       -1.62120
H          3.15390        7.14230       -1.69110
H          3.00070        4.73720       -2.01780
H          3.90880        3.28010        0.10950
H          5.79670        1.91080       -0.59830
H          8.03860       -0.79540       -1.61360
H          7.69770        0.94460       -1.52370
H          6.92800       -0.18880       -0.36390
H          3.24070       -0.24020       -3.27130
H          1.34470        1.17440       -2.58210
H         -0.04850        5.05530       -2.19940
H          0.20670        5.79370       -4.24480
H          2.44680        6.81950       -4.92140
H          1.63800       11.20620       -5.01280
H          3.29920       11.80090       -5.26770
H          3.55910       12.09640       -2.79130
H          2.21290       13.06090       -3.41360
H          1.88770       11.55250       -2.55470
H         -6.87720        7.45270       -2.85970
H         -9.02700        6.72690       -1.75930
H        -10.72240        6.21140       -0.41670
H        -11.45750        4.91090        0.53540
H        -10.05730        4.48140       -2.15830
H        -10.86690        3.24260       -1.19240
H        -11.80850        4.54170       -1.93150
H         -5.85670        9.14520       -1.98700
H         -5.93390       11.40600       -2.70320
H         -1.10810       14.76420       -4.94910
H         -3.80900       18.09750       -5.08530
H         -5.64740       16.69560       -4.27600
