246

C         -6.65820       -5.88390        2.83620
C         -6.66670       -6.73790        3.91590
C         -5.97690       -6.52570        5.18910
O         -5.26690       -5.58470        5.50480
C         -6.33140       -7.66930        6.04810
C         -5.87960       -7.91940        7.34070
C         -6.36230       -9.08540        7.88520
C         -7.23170       -9.93860        7.19430
C         -7.68500       -9.70190        5.91750
C         -7.20620       -8.52110        5.34470
C         -7.42430       -7.96260        4.00910
C         -8.19090       -8.54120        3.02540
C         -8.29180       -8.09820        1.69280
N         -8.40060       -7.83900        0.57730
C         -8.97580       -9.69790        3.20210
N         -9.65580      -10.62160        3.27040
C         -7.30280      -10.92180        8.33630
C         -8.57160      -10.91390        9.22350
C         -9.14080       -9.51930        9.14330
C         -8.31950       -8.70870        9.79710
C         -7.18020       -9.54060       10.33170
C         -7.91680      -10.86000       10.61320
C         -6.33500       -9.96950        9.10700
C         -5.90610       -4.73410        2.60370
C         -5.98190       -4.00040        1.39120
N         -6.93610       -4.14320        0.42430
C         -8.28440       -4.42860        0.70710
C         -8.89110       -3.95260        1.86670
C        -10.21620       -4.24380        2.12130
C        -10.97200       -4.99380        1.22770
C        -12.40430       -5.32760        1.50940
C        -10.36370       -5.44000        0.06040
C         -9.03590       -5.16940       -0.20140
C         -6.58340       -3.82370       -0.90510
C         -7.36980       -2.96080       -1.65970
C         -6.99290       -2.63420       -2.94760
C         -5.83630       -3.15970       -3.50920
C         -5.42910       -2.80790       -4.90580
C         -5.06430       -4.03320       -2.75100
C         -5.42880       -4.36640       -1.46280
C         -4.91680       -3.08690        1.29640
S         -4.41490       -1.93400        0.10090
C         -3.07810       -1.43990        1.12800
C         -3.07000       -2.08580        2.34570
N         -2.24930       -1.71850        3.42550
C         -2.79250       -0.58420        4.10770
C         -3.62370       -0.76150        5.20990
C         -4.17610        0.33310        5.84390
C         -3.93110        1.62430        5.38880
C         -4.51940        2.80560        6.09760
C         -3.12120        1.78760        4.27380
C         -2.55750        0.69720        3.63550
C         -1.62060       -2.72010        4.16420
C         -1.39940       -3.98000        3.60780
C         -0.75350       -4.96050        4.33090
C         -0.29090       -4.72120        5.61880
C          0.39540       -5.80660        6.39460
C         -0.47060       -3.45130        6.14820
C         -1.11610       -2.46050        5.43630
C         -4.10920       -3.04550        2.42460
S         -4.61520       -4.14280        3.65610
C         -2.11170       -0.52900        0.58920
C         -0.73830       -0.64630        0.62160
N         -0.02690       -1.73970        1.15490
C          0.69750       -1.60370        2.33560
C          1.31540       -2.71350        2.91040
C          1.97480       -2.61480        4.11740
C          2.01010       -1.40560        4.79560
S          2.78700       -1.17470        6.36690
C          3.28140       -2.85250        6.85340
C          1.40050       -0.29230        4.22840
C          0.76240       -0.38600        3.01130
C          0.30360       -2.71500        0.19040
C          1.62670       -3.05690       -0.07420
C          1.93670       -4.00120       -1.03410
C          0.92460       -4.61140       -1.76210
S          1.19230       -5.82640       -3.01700
C          2.99160       -6.06170       -3.02530
C         -0.39970       -4.25490       -1.51870
C         -0.70740       -3.31830       -0.55690
C         -0.12380        0.39570       -0.10960
S          1.51160        0.83240       -0.42690
C          0.98820        2.20040       -1.40620
C         -0.39840        2.31780       -1.44700
N         -1.16770        3.25240       -2.12810
C         -0.93140        4.62340       -2.09020
C         -0.15600        5.19910       -1.08140
C          0.10230        6.55280       -1.08860
C         -0.42130        7.36700       -2.08710
S         -0.03320        9.09240       -2.04150
C         -1.53440        9.83880       -2.75100
C         -1.19920        6.80310       -3.08890
C         -1.44480        5.44650       -3.09480
C         -2.30740        2.73740       -2.78000
C         -3.56830        3.30040       -2.59570
C         -4.66280        2.77180       -3.24680
C         -4.51680        1.67430       -4.08850
S         -5.95450        1.04830       -4.91090
C         -5.28030        0.65180       -6.55690
C         -3.26710        1.09290       -4.25280
C         -2.17050        1.62450       -3.60650
C         -1.01080        1.27430       -0.70890
S         -2.65170        0.83850       -0.36700
C          2.01540        2.96710       -2.02500
C          1.94230        3.98010       -2.94040
C          3.20130        4.49900       -3.32040
C          3.46120        5.55900       -4.21270
C          2.38830        6.28320       -4.86440
C          1.23820        5.80090       -5.42430
C          0.43500        6.83330       -5.94070
F         -0.75140        6.58870       -6.53680
C          0.93280        8.09490       -5.79130
C          0.34210        9.38080       -6.26420
C          0.94630       10.59030       -5.56240
S          2.45340        8.01860       -4.98030
C          4.79740        5.89300       -4.40470
C          5.86920        5.21080       -3.77150
C          5.60920        4.14020       -2.88550
C          6.68730        3.39390       -2.27380
S          6.55550        2.81590       -0.63240
C          8.12230        2.08820       -0.68870
C          8.70960        1.38630        0.48640
C          8.98580        2.35530        1.63690
C          8.67610        2.29680       -1.91810
C          7.88630        3.02920       -2.82380
F          9.89250        1.82440       -2.24730
C          4.27200        3.83660       -2.66760
S          3.67820        2.59030       -1.60850
C          7.12320        5.74040       -4.13350
C          7.05430        6.74650       -5.06250
S          5.38670        7.13940       -5.46290
C          8.08000        7.50490       -5.67600
C          9.38930        7.16280       -5.84990
C          9.97960        5.80700       -5.71140
O          9.46720        4.80200       -5.26320
C         11.32270        5.89250       -6.30910
C         12.23530        4.84840       -6.44460
C         13.41580        5.21330       -7.04470
C         13.67010        6.52080       -7.48180
C         12.77980        7.55980       -7.35140
C         11.57140        7.21070       -6.74050
C         10.40500        8.02880       -6.42590
C         10.32010        9.38830       -6.57350
C         11.34010       10.19690       -7.11740
N         12.12270       10.91420       -7.55490
C          9.22640       10.18660       -6.17460
N          8.39230       10.91160       -5.86210
C         15.04180        6.16590       -7.99830
C         15.21470        5.98830       -9.52710
C         13.86710        5.57730      -10.06640
C         13.62510        4.34080       -9.65210
C         14.80520        3.89290       -8.82550
C         15.94030        4.63330       -9.55050
C         14.75860        4.71000       -7.51050
H         -7.30890       -6.15440        2.01450
H         -5.20290       -7.23790        7.83230
H         -8.34900      -10.37270        5.39840
H         -6.95680      -11.93020        8.11680
H         -9.26480      -11.72750        9.02740
H        -10.02350       -9.26440        8.58670
H         -8.37860       -7.64050        9.89550
H         -6.60710       -9.10360       11.14550
H         -8.64410      -10.77330       11.41900
H         -7.24770      -11.69670       10.81000
H         -5.35920      -10.35810        9.39300
H         -8.32130       -3.35910        2.56680
H        -10.67220       -3.87290        3.02800
H        -12.76880       -4.78680        2.37910
H        -12.50810       -6.39600        1.69830
H        -13.03030       -5.08070        0.65370
H        -10.93280       -6.02430       -0.64650
H         -8.57200       -5.53890       -1.10220
H         -8.26590       -2.54100       -1.22750
H         -7.60000       -1.94830       -3.51970
H         -5.55000       -3.66920       -5.56300
H         -6.03950       -1.99390       -5.28640
H         -4.38050       -2.51550       -4.93160
H         -4.16720       -4.45840       -3.17730
H         -4.82630       -5.04860       -0.88050
H         -3.83210       -1.76130        5.56290
H         -4.81710        0.18310        6.70070
H         -5.52880        2.58760        6.43990
H         -4.54650        3.67660        5.44740
H         -3.91630        3.05280        6.97170
H         -2.92600        2.78110        3.89610
H         -1.93790        0.84130        2.76600
H         -1.72290       -4.18770        2.59850
H         -0.60420       -5.93390        3.88490
H         -0.24790       -6.68230        6.47120
H          0.64200       -5.47230        7.40010
H          1.31460       -6.11520        5.89510
H         -0.10750       -3.22540        7.14140
H         -1.22340       -1.47800        5.86920
H          1.26670       -3.67080        2.41560
H          2.44250       -3.49730        4.52190
H          2.41620       -3.50760        6.83250
H          3.66070       -2.76490        7.86690
H          4.06720       -3.21590        6.19720
H          1.43340        0.65120        4.75170
H          0.30720        0.49540        2.58780
H          2.42170       -2.57070        0.47130
H          2.97340       -4.23840       -1.21120
H          3.18200       -6.82690       -3.77150
H          3.48740       -5.13820       -3.31020
H          3.32510       -6.40610       -2.05070
H         -1.18390       -4.72620       -2.09120
H         -1.73800       -3.05350       -0.38130
H          0.23820        4.58160       -0.28930
H          0.70760        6.99390       -0.31210
H         -2.40790        9.39930       -2.27990
H         -1.47800       10.89790       -2.52060
H         -1.56210        9.70030       -3.82720
H         -1.60700        7.41010       -3.88100
H         -2.02650        5.01810       -3.89700
H         -3.68140        4.15300       -1.94330
H         -5.64150        3.20420       -3.10830
H         -6.13770        0.53300       -7.21160
H         -4.66510        1.47940       -6.89540
H         -4.70890       -0.27090       -6.53020
H         -3.14250        0.22830       -4.88540
H         -1.19570        1.17740       -3.73840
H          1.02220        4.35510       -3.33780
H          0.98780        4.76080       -5.51860
H          0.50550        9.46820       -7.34410
H         -0.74140        9.34600       -6.11240
H          0.84610       10.50000       -4.48350
H          2.00520       10.66930       -5.79760
H          0.45080       11.50180       -5.88700
H          9.63950        0.90810        0.17120
H          8.02040        0.61000        0.82900
H          9.68170        3.12950        1.32210
H          9.41720        1.82230        2.48010
H          8.06130        2.82920        1.95910
H          8.19540        3.23540       -3.83180
H          8.04610        5.42410       -3.69070
H          7.74670        8.44880       -6.09110
H         11.99850        3.85690       -6.09140
H         12.98980        8.55870       -7.69530
H         15.87340        6.70270       -7.54640
H         15.69730        6.82400      -10.02650
H         13.22330        6.22850      -10.62820
H         12.73820        3.75250       -9.79820
H         14.91470        2.82050       -8.68690
H         16.10730        4.26250      -10.56060
H         16.87940        4.63430       -8.99890
H         15.40630        4.29490       -6.74090
