254

C         -3.16660        2.37890        9.39960
C         -2.22170        2.29270       10.39680
C         -0.78700        2.54400       10.25040
O         -0.17270        2.78880        9.22540
C         -0.21370        2.47020       11.60640
C          1.12090        2.64470       11.96340
C          1.36190        2.50170       13.30900
C          0.34930        2.20880       14.23090
C         -0.97270        2.03930       13.89130
C         -1.24020        2.18000       12.52670
C         -2.49900        2.04730       11.79150
C         -3.71100        1.71580       12.34960
C         -3.93840        1.56110       13.73110
N         -4.20790        1.43640       14.84120
C         -4.89650        1.45020       11.63840
N         -5.89840        1.17950       11.14260
C          1.30580        2.19150       15.39780
C          1.72060        0.80300       15.92880
C          2.98570        1.07750       16.70940
C          3.94550        1.35720       15.83690
C          3.34520        1.27600       14.45190
C          2.32050        0.15600       14.67370
C          2.43520        2.51980       14.36940
C         -3.01610        2.55760        8.02550
C         -4.11860        2.62010        7.13330
N         -5.43250        2.73890        7.49530
C         -5.85480        3.50970        8.59400
C         -5.19140        4.68500        8.93810
C         -5.61530        5.42430       10.02410
C         -6.71280        5.02750       10.77930
C         -7.16110        5.81350       11.97250
C         -7.38590        3.86940       10.40810
C         -6.96610        3.11210        9.33320
C         -6.41150        2.16640        6.65730
C         -6.24590        0.86710        6.18440
C         -7.19050        0.31110        5.34680
C         -8.32150        1.02590        4.96690
C         -9.32270        0.41650        4.03570
C         -8.48600        2.31430        5.46000
C         -7.54510        2.88520        6.29460
C         -3.68480        2.54000        5.79820
S         -4.49450        2.50640        4.25990
C         -2.95110        2.44490        3.44560
C         -1.87550        2.39190        4.32070
N         -0.55320        2.18030        3.92210
C         -0.32540        1.16090        2.98340
C         -1.05940       -0.02050        3.07330
C         -0.92990       -1.00120        2.11160
C         -0.06140       -0.84420        1.03900
C          0.07510       -1.90880       -0.00500
C          0.69310        0.31950        0.97240
C          0.56760        1.31080        1.92450
C          0.40060        3.17160        4.17700
C          0.00870        4.49230        4.38920
C          0.95510        5.48050        4.56530
C          2.31300        5.19010        4.52700
C          3.32290        6.28590        4.67630
C          2.69560        3.86560        4.35920
C          1.75880        2.86410        4.19880
C         -2.30200        2.47460        5.66340
S         -1.46880        2.53490        7.17140
C         -2.78650        2.43090        2.02300
C         -1.76990        3.07300        1.38470
C         -1.61780        2.70240        0.02850
C         -0.55260        3.03480       -0.82200
C          0.51540        3.93680       -0.36600
C          1.85010        3.55040       -0.45110
C          2.84060        4.36630        0.06820
C          2.51720        5.55830        0.68250
C          1.18580        5.96290        0.75520
S          0.89910        7.51360        1.55110
C         -0.87720        7.87190        1.31480
C         -1.76210        7.19850        2.34690
C          0.19260        5.15730        0.22340
C         -0.50750        2.36270       -2.03130
C         -1.46570        1.39420       -2.42450
C         -2.53720        1.07770       -1.57280
C         -3.49430        0.00870       -1.89150
C         -3.04020       -1.27860       -2.17000
C         -3.94750       -2.29300       -2.40730
C         -5.30870       -2.04090       -2.40520
C         -5.76550       -0.75360       -2.15810
S         -7.48230       -0.32570       -2.12230
C         -8.23120       -1.46750       -3.33960
C         -7.68650       -1.24890       -4.73740
C         -4.85840        0.26190       -1.88170
C         -2.58830        1.74760       -0.36230
S         -3.69730        1.39440        0.94160
C         -1.12260        0.79070       -3.65940
C          0.06590        1.23310       -4.17010
S          0.76210        2.51470       -3.20830
C          0.82350        0.62150       -5.21120
C          2.20230        0.63340       -5.34870
N          3.05950        1.46960       -4.60420
C          3.33830        2.73150       -5.15700
C          3.51720        2.85090       -6.53660
C          3.76810        4.07730       -7.11000
C          3.84710        5.22370       -6.32400
S          4.18760        6.73680       -7.16980
C          4.25880        7.97350       -5.84310
C          3.65030        5.11730       -4.95470
C          3.39250        3.88740       -4.38070
C          3.50140        1.03680       -3.35680
C          2.93610       -0.09660       -2.76350
C          3.30010       -0.48150       -1.49160
C          4.23230        0.25340       -0.77030
S          4.58570       -0.25240        0.89390
C          4.76600        1.35110        1.73500
C          4.87050        1.31970       -1.38740
C          4.51910        1.69890       -2.66760
C          2.62740       -0.34690       -6.26550
S          4.17280       -0.87700       -6.79690
C          3.43030       -2.17920       -7.73350
C          2.02260       -2.10010       -7.72470
N          1.15450       -2.84490       -8.48430
C          1.49380       -3.39400       -9.72970
C          2.44070       -2.80680      -10.56450
C          2.81750       -3.41630      -11.74380
C          2.24010       -4.62210      -12.12180
S          2.73360       -5.53090      -13.54520
C          4.35730       -4.81940      -13.94140
C          1.21680       -5.15970      -11.34310
C          0.85320       -4.56020      -10.15960
C         -0.21810       -2.88810       -8.12870
C         -1.18040       -2.51060       -9.06440
C         -2.51710       -2.57010       -8.74480
C         -2.92350       -3.01000       -7.48510
S         -4.65980       -3.04240       -7.19120
C         -4.81480       -3.95060       -5.62690
C         -1.96700       -3.38070       -6.55000
C         -0.62380       -3.32130       -6.87160
C          1.59650       -1.07420       -6.85070
S          0.05370       -0.53400       -6.27360
C          4.32920       -3.08160       -8.32190
C          4.14110       -4.37100       -8.74810
C          5.03830       -4.94390       -9.77750
O          6.03170       -4.43010      -10.24960
C          4.41180       -6.21640      -10.18480
C          4.84190       -7.08660      -11.18300
C          4.02700       -8.17740      -11.36640
C          2.87350       -8.39730      -10.60280
C          2.44730       -7.55710       -9.60200
C          3.25420       -6.43420       -9.41150
C          3.12410       -5.34010       -8.45210
C          2.32030       -5.34780       -7.33290
C          2.49110       -4.46970       -6.25040
N          2.60700       -3.80670       -5.31790
C          1.27320       -6.25780       -7.10770
N          0.36150       -6.92120       -6.88320
C          2.54600       -9.68150      -11.32190
C          2.86160      -11.01310      -10.59740
C          3.99610      -10.72520       -9.64540
C          5.08870      -10.51860      -10.36850
C          4.71250      -10.66230      -11.82250
C          3.62430      -11.74250      -11.71480
C          3.83240       -9.43690      -12.17230
H         -4.19620        2.27620        9.71740
H          1.86860        2.86810       11.21850
H         -1.73930        1.81760       14.61460
H          1.10000        2.90660       16.19210
H          0.93430        0.25980       16.44590
H          3.03710        1.09470       17.78230
H          4.95860        1.65470       16.03540
H          4.03940        1.16320       13.62340
H          2.79550       -0.79950       14.89010
H          1.61290        0.03400       13.85590
H          2.98160        3.45510       14.47780
H         -4.34120        5.01110        8.35700
H         -5.08690        6.33050       10.28360
H         -6.96410        5.25060       12.88500
H         -6.63730        6.76410       12.03470
H         -8.23190        6.00370       11.92600
H         -8.24090        3.54390       10.98100
H         -7.48620        2.20480        9.07010
H         -5.37670        0.29920        6.48310
H         -7.05130       -0.69620        4.98280
H         -9.56520       -0.59900        4.34310
H        -10.23690        1.00340        4.00620
H         -8.91130        0.36990        3.02730
H         -9.35920        2.88540        5.18020
H         -7.67920        3.89120        6.66380
H         -1.74530       -0.15940        3.89630
H         -1.51940       -1.90310        2.19380
H         -0.83260       -2.50500       -0.06970
H          0.28630       -1.46750       -0.97740
H          0.89950       -2.57690        0.24810
H          1.37760        0.46050        0.14880
H          1.14300        2.21940        1.82990
H         -1.04320        4.74200        4.40420
H          0.63790        6.50210        4.71540
H          3.07290        7.12050        4.02280
H          3.33130        6.65500        5.70180
H          4.32120        5.93170        4.43150
H          3.74600        3.61030        4.35490
H          2.07250        1.83770        4.08240
H         -1.10650        3.75240        1.88770
H          2.11310        2.60160       -0.89310
H          3.87490        4.06330       -0.00230
H          3.28260        6.19020        1.10560
H         -0.93820        8.95660        1.40820
H         -1.14170        7.59570        0.29480
H         -2.80210        7.47160        2.17560
H         -1.67570        6.11600        2.29600
H         -1.47970        7.51620        3.34760
H         -0.84300        5.45740        0.24290
H         -1.98150       -1.48520       -2.16550
H         -3.59250       -3.30010       -2.57740
H         -6.00050       -2.85020       -2.58060
H         -8.08840       -2.49140       -2.99540
H         -9.29400       -1.23140       -3.29210
H         -6.61640       -1.44220       -4.77440
H         -7.85880       -0.22230       -5.05170
H         -8.18380       -1.91520       -5.43960
H         -5.22590        1.25520       -1.67360
H         -1.70510        0.01900       -4.13070
H          3.46940        1.97540       -7.16520
H          3.91260        4.16010       -8.17630
H          5.04430        7.71670       -5.13830
H          3.29380        8.04780       -5.35030
H          4.49570        8.91290       -6.33290
H          3.68110        5.98530       -4.31600
H          3.21250        3.83780       -3.31830
H          2.20120       -0.68120       -3.29490
H          2.85620       -1.35490       -1.04080
H          4.74820        1.13260        2.79790
H          3.92860        1.99070        1.47330
H          5.71210        1.81610        1.47340
H          5.65360        1.85840       -0.87600
H          5.05040        2.50990       -3.13980
H          2.89240       -1.86540      -10.29170
H          3.56490       -2.94030      -12.35690
H          4.23840       -3.85080      -14.41840
H          4.95000       -4.74260      -13.03490
H          4.82230       -5.51310      -14.63490
H          0.73760       -6.07230      -11.66090
H          0.08790       -5.00790       -9.54300
H         -0.87000       -2.17250      -10.04190
H         -3.26450       -2.27560       -9.46510
H         -4.42640       -3.35020       -4.80970
H         -5.87870       -4.11790       -5.49010
H         -4.29800       -4.90240       -5.70420
H         -2.24740       -3.71960       -5.56660
H          0.11000       -3.61280       -6.13660
H          5.32440       -2.68650       -8.50650
H          5.74390       -6.89120      -11.74230
H          1.55720       -7.73410       -9.02080
H          1.59020       -9.70640      -11.84150
H          1.99490      -11.51300      -10.17310
H          3.87890      -10.64660       -8.58040
H          6.06670      -10.23310      -10.02770
H          5.53080      -10.84390      -12.51450
H          4.01790      -12.70660      -11.39630
H          3.04320      -11.86530      -12.62770
H          3.71310       -9.29930      -13.24510
