
  xtb     02132200453D
 energy: -347.510462182892 gnorm: 0.000313012564 xtb: 6.4.1 (unknown)
214236  0     0  0            999 V2000
    0.2017   -5.7527   -4.7222 C   0  0  0  0  0  0  0  0  0  0  0  0
   -0.6115   -6.8566   -4.8501 C   0  0  0  0  0  0  0  0  0  0  0  0
   -1.6663   -7.2720   -3.9239 C   0  0  0  0  0  0  0  0  0  0  0  0
   -2.0931   -6.6676   -2.9541 O   0  0  0  0  0  0  0  0  0  0  0  0
   -2.1225   -8.5963   -4.3850 C   0  0  0  0  0  0  0  0  0  0  0  0
   -3.1081   -9.3920   -3.8068 C   0  0  0  0  0  0  0  0  0  0  0  0
   -3.3157  -10.5849   -4.4574 C   0  0  0  0  0  0  0  0  0  0  0  0
   -2.5974  -10.9566   -5.6006 C   0  0  0  0  0  0  0  0  0  0  0  0
   -1.6263  -10.1770   -6.1844 C   0  0  0  0  0  0  0  0  0  0  0  0
   -1.3966   -8.9603   -5.5361 C   0  0  0  0  0  0  0  0  0  0  0  0
   -0.4745   -7.8724   -5.8657 C   0  0  0  0  0  0  0  0  0  0  0  0
    0.3493   -7.8389   -6.9665 C   0  0  0  0  0  0  0  0  0  0  0  0
    0.5158   -8.9042   -7.8725 C   0  0  0  0  0  0  0  0  0  0  0  0
    0.7249   -9.7347   -8.6387 N   0  0  0  0  0  0  0  0  0  0  0  0
    1.1221   -6.7366   -7.3772 C   0  0  0  0  0  0  0  0  0  0  0  0
    1.7496   -5.8750   -7.8100 N   0  0  0  0  0  0  0  0  0  0  0  0
   -3.3177  -12.2770   -5.7221 C   0  0  0  0  0  0  0  0  0  0  0  0
   -2.5494  -13.5294   -5.2501 C   0  0  0  0  0  0  0  0  0  0  0  0
   -3.6346  -14.5594   -5.0346 C   0  0  0  0  0  0  0  0  0  0  0  0
   -4.3160  -14.2073   -3.9519 C   0  0  0  0  0  0  0  0  0  0  0  0
   -3.7027  -12.9332   -3.4173 C   0  0  0  0  0  0  0  0  0  0  0  0
   -2.2341  -13.1695   -3.7924 C   0  0  0  0  0  0  0  0  0  0  0  0
   -4.1196  -11.8618   -4.4470 C   0  0  0  0  0  0  0  0  0  0  0  0
    0.2038   -4.7322   -3.7738 C   0  0  0  0  0  0  0  0  0  0  0  0
    1.1652   -3.6878   -3.7646 C   0  0  0  0  0  0  0  0  0  0  0  0
    2.3191   -3.6642   -4.4991 N   0  0  0  0  0  0  0  0  0  0  0  0
    3.0637   -4.8266   -4.7786 C   0  0  0  0  0  0  0  0  0  0  0  0
    3.1418   -5.8670   -3.8560 C   0  0  0  0  0  0  0  0  0  0  0  0
    3.8635   -7.0043   -4.1573 C   0  0  0  0  0  0  0  0  0  0  0  0
    4.5392   -7.1279   -5.3660 C   0  0  0  0  0  0  0  0  0  0  0  0
    5.2964   -8.3734   -5.7089 C   0  0  0  0  0  0  0  0  0  0  0  0
    4.4853   -6.0680   -6.2634 C   0  0  0  0  0  0  0  0  0  0  0  0
    3.7550   -4.9306   -5.9829 C   0  0  0  0  0  0  0  0  0  0  0  0
    2.8774   -2.4231   -4.8700 C   0  0  0  0  0  0  0  0  0  0  0  0
    2.0922   -1.4628   -5.4978 C   0  0  0  0  0  0  0  0  0  0  0  0
    2.6552   -0.2671   -5.9022 C   0  0  0  0  0  0  0  0  0  0  0  0
    4.0004    0.0022   -5.6855 C   0  0  0  0  0  0  0  0  0  0  0  0
    4.6180    1.2773   -6.1648 C   0  0  0  0  0  0  0  0  0  0  0  0
    4.7726   -0.9618   -5.0459 C   0  0  0  0  0  0  0  0  0  0  0  0
    4.2257   -2.1628   -4.6441 C   0  0  0  0  0  0  0  0  0  0  0  0
    0.8054   -2.6895   -2.8427 C   0  0  0  0  0  0  0  0  0  0  0  0
    1.5157   -1.1926   -2.3427 S   0  0  0  0  0  0  0  0  0  0  0  0
    0.2753   -0.9930   -1.0953 C   0  0  0  0  0  0  0  0  0  0  0  0
   -0.5992   -2.0643   -1.0556 C   0  0  0  0  0  0  0  0  0  0  0  0
   -1.6506   -2.2283   -0.1714 N   0  0  0  0  0  0  0  0  0  0  0  0
   -1.4530   -2.1289    1.2137 C   0  0  0  0  0  0  0  0  0  0  0  0
   -0.2582   -2.5236    1.8090 C   0  0  0  0  0  0  0  0  0  0  0  0
   -0.1334   -2.5110    3.1864 C   0  0  0  0  0  0  0  0  0  0  0  0
   -1.1841   -2.1092    3.9975 C   0  0  0  0  0  0  0  0  0  0  0  0
   -1.0900   -2.1680    5.4903 C   0  0  0  0  0  0  0  0  0  0  0  0
   -2.3602   -1.6770    3.3909 C   0  0  0  0  0  0  0  0  0  0  0  0
   -2.4990   -1.6845    2.0201 C   0  0  0  0  0  0  0  0  0  0  0  0
   -2.8006   -2.8916   -0.6437 C   0  0  0  0  0  0  0  0  0  0  0  0
   -3.4126   -3.9005    0.0936 C   0  0  0  0  0  0  0  0  0  0  0  0
   -4.5201   -4.5504   -0.4127 C   0  0  0  0  0  0  0  0  0  0  0  0
   -5.0440   -4.2212   -1.6566 C   0  0  0  0  0  0  0  0  0  0  0  0
   -6.2171   -4.9638   -2.2182 C   0  0  0  0  0  0  0  0  0  0  0  0
   -4.4319   -3.2074   -2.3817 C   0  0  0  0  0  0  0  0  0  0  0  0
   -3.3256   -2.5488   -1.8857 C   0  0  0  0  0  0  0  0  0  0  0  0
   -0.3151   -2.9993   -2.0865 C   0  0  0  0  0  0  0  0  0  0  0  0
   -1.0294   -4.5076   -2.5283 S   0  0  0  0  0  0  0  0  0  0  0  0
    0.3467    0.2368   -0.3598 C   0  0  0  0  0  0  0  0  0  0  0  0
    0.5519    1.4604   -0.9754 C   0  0  0  0  0  0  0  0  0  0  0  0
    0.4475    1.6610   -2.3482 N   0  0  0  0  0  0  0  0  0  0  0  0
    1.4286    2.4020   -3.0045 C   0  0  0  0  0  0  0  0  0  0  0  0
    1.1177    3.1859   -4.1168 C   0  0  0  0  0  0  0  0  0  0  0  0
    2.0949    3.9348   -4.7315 C   0  0  0  0  0  0  0  0  0  0  0  0
    3.4020    3.9293   -4.2494 C   0  0  0  0  0  0  0  0  0  0  0  0
    4.5754    4.9205   -5.1267 S   0  0  0  0  0  0  0  0  0  0  0  0
    5.9875    5.0129   -3.9890 C   0  0  0  0  0  0  0  0  0  0  0  0
    3.7189    3.1443   -3.1507 C   0  0  0  0  0  0  0  0  0  0  0  0
    2.7409    2.3872   -2.5380 C   0  0  0  0  0  0  0  0  0  0  0  0
   -0.6708    1.1492   -3.0176 C   0  0  0  0  0  0  0  0  0  0  0  0
   -1.9274    1.1663   -2.4125 C   0  0  0  0  0  0  0  0  0  0  0  0
   -3.0198    0.6436   -3.0688 C   0  0  0  0  0  0  0  0  0  0  0  0
   -2.8812    0.0808   -4.3363 C   0  0  0  0  0  0  0  0  0  0  0  0
   -4.3387   -0.5824   -5.0860 S   0  0  0  0  0  0  0  0  0  0  0  0
   -3.6738   -1.7570   -6.3032 C   0  0  0  0  0  0  0  0  0  0  0  0
   -1.6341    0.0712   -4.9458 C   0  0  0  0  0  0  0  0  0  0  0  0
   -0.5414    0.6022   -4.2904 C   0  0  0  0  0  0  0  0  0  0  0  0
    0.8132    2.4823   -0.0377 C   0  0  0  0  0  0  0  0  0  0  0  0
    1.1220    4.1720   -0.1688 S   0  0  0  0  0  0  0  0  0  0  0  0
    1.2917    4.2855    1.5715 C   0  0  0  0  0  0  0  0  0  0  0  0
    1.0617    3.0798    2.2170 C   0  0  0  0  0  0  0  0  0  0  0  0
    1.0563    2.8910    3.5932 N   0  0  0  0  0  0  0  0  0  0  0  0
    1.5345    1.6844    4.1188 C   0  0  0  0  0  0  0  0  0  0  0  0
    0.9869    1.1602    5.2909 C   0  0  0  0  0  0  0  0  0  0  0  0
    1.4608   -0.0210    5.8110 C   0  0  0  0  0  0  0  0  0  0  0  0
    2.4637   -0.7329    5.1557 C   0  0  0  0  0  0  0  0  0  0  0  0
    2.9429   -2.2675    5.8895 S   0  0  0  0  0  0  0  0  0  0  0  0
    4.1115   -2.9768    4.6956 C   0  0  0  0  0  0  0  0  0  0  0  0
    3.0182   -0.2147    3.9958 C   0  0  0  0  0  0  0  0  0  0  0  0
    2.5672    0.9910    3.4937 C   0  0  0  0  0  0  0  0  0  0  0  0
    0.6351    3.9114    4.4562 C   0  0  0  0  0  0  0  0  0  0  0  0
    1.3234    4.1532    5.6439 C   0  0  0  0  0  0  0  0  0  0  0  0
    0.9658    5.2007    6.4678 C   0  0  0  0  0  0  0  0  0  0  0  0
   -0.0792    6.0389    6.1078 C   0  0  0  0  0  0  0  0  0  0  0  0
   -0.5819    7.4266    7.0842 S   0  0  0  0  0  0  0  0  0  0  0  0
    0.9147    7.8239    8.0372 C   0  0  0  0  0  0  0  0  0  0  0  0
   -0.7980    5.7830    4.9435 C   0  0  0  0  0  0  0  0  0  0  0  0
   -0.4496    4.7270    4.1308 C   0  0  0  0  0  0  0  0  0  0  0  0
    0.7921    2.0509    1.2787 C   0  0  0  0  0  0  0  0  0  0  0  0
    0.4033    0.3634    1.3937 S   0  0  0  0  0  0  0  0  0  0  0  0
    1.5829    5.5555    2.2018 C   0  0  0  0  0  0  0  0  0  0  0  0
    0.9066    6.7290    1.8536 C   0  0  0  0  0  0  0  0  0  0  0  0
    0.0696    6.7144    0.7988 F   0  0  0  0  0  0  0  0  0  0  0  0
    1.0080    7.8873    2.5885 C   0  0  0  0  0  0  0  0  0  0  0  0
    1.8427    7.9207    3.7068 C   0  0  0  0  0  0  0  0  0  0  0  0
    2.6582    6.8102    3.9633 C   0  0  0  0  0  0  0  0  0  0  0  0
    2.5151    5.6498    3.2422 C   0  0  0  0  0  0  0  0  0  0  0  0
    1.8950    9.0309    4.6255 C   0  0  0  0  0  0  0  0  0  0  0  0
    0.8563    9.7817    5.0637 C   0  0  0  0  0  0  0  0  0  0  0  0
   -0.5953    9.5086    4.8427 C   0  0  0  0  0  0  0  0  0  0  0  0
   -1.1086    8.7827    4.0213 O   0  0  0  0  0  0  0  0  0  0  0  0
   -1.3021   10.3044    5.8631 C   0  0  0  0  0  0  0  0  0  0  0  0
   -2.6717   10.2904    6.1195 C   0  0  0  0  0  0  0  0  0  0  0  0
   -3.0560   11.1145    7.1483 C   0  0  0  0  0  0  0  0  0  0  0  0
   -2.1455   11.8934    7.8777 C   0  0  0  0  0  0  0  0  0  0  0  0
   -0.7939   11.9166    7.6369 C   0  0  0  0  0  0  0  0  0  0  0  0
   -0.3810   11.0885    6.5859 C   0  0  0  0  0  0  0  0  0  0  0  0
    0.9534   10.8427    6.0596 C   0  0  0  0  0  0  0  0  0  0  0  0
    2.0908   11.5260    6.3976 C   0  0  0  0  0  0  0  0  0  0  0  0
    2.1430   12.5660    7.3497 C   0  0  0  0  0  0  0  0  0  0  0  0
    2.2589   13.4120    8.1169 N   0  0  0  0  0  0  0  0  0  0  0  0
    3.3640   11.3138    5.8264 C   0  0  0  0  0  0  0  0  0  0  0  0
    4.4286   11.2093    5.4084 N   0  0  0  0  0  0  0  0  0  0  0  0
   -3.2233   12.4672    8.7633 C   0  0  0  0  0  0  0  0  0  0  0  0
   -3.6765   13.9091    8.4514 C   0  0  0  0  0  0  0  0  0  0  0  0
   -5.0228   14.0196    9.1300 C   0  0  0  0  0  0  0  0  0  0  0  0
   -5.8845   13.2843    8.4389 C   0  0  0  0  0  0  0  0  0  0  0  0
   -5.1353   12.6647    7.2815 C   0  0  0  0  0  0  0  0  0  0  0  0
   -4.1272   13.7838    6.9903 C   0  0  0  0  0  0  0  0  0  0  0  0
   -4.2375   11.6012    7.9491 C   0  0  0  0  0  0  0  0  0  0  0  0
    0.9773   -5.6549   -5.4708 H   0  0  0  0  0  0  0  0  0  0  0  0
   -3.6402   -9.0628   -2.9278 H   0  0  0  0  0  0  0  0  0  0  0  0
   -1.0877  -10.4761   -7.0679 H   0  0  0  0  0  0  0  0  0  0  0  0
   -3.8624  -12.4370   -6.6507 H   0  0  0  0  0  0  0  0  0  0  0  0
   -1.7177  -13.8198   -5.8862 H   0  0  0  0  0  0  0  0  0  0  0  0
   -3.8243  -15.3798   -5.7018 H   0  0  0  0  0  0  0  0  0  0  0  0
   -5.1885  -14.6746   -3.5341 H   0  0  0  0  0  0  0  0  0  0  0  0
   -3.9216  -12.6812   -2.3830 H   0  0  0  0  0  0  0  0  0  0  0  0
   -1.7992  -14.0055   -3.2468 H   0  0  0  0  0  0  0  0  0  0  0  0
   -1.6008  -12.2916   -3.6794 H   0  0  0  0  0  0  0  0  0  0  0  0
   -5.1990  -11.7452   -4.5266 H   0  0  0  0  0  0  0  0  0  0  0  0
    2.6286   -5.7845   -2.9090 H   0  0  0  0  0  0  0  0  0  0  0  0
    3.9075   -7.8075   -3.4357 H   0  0  0  0  0  0  0  0  0  0  0  0
    6.2825   -8.1286   -6.0989 H   0  0  0  0  0  0  0  0  0  0  0  0
    5.4106   -9.0145   -4.8384 H   0  0  0  0  0  0  0  0  0  0  0  0
    4.7645   -8.9314   -6.4798 H   0  0  0  0  0  0  0  0  0  0  0  0
    5.0052   -6.1419   -7.2064 H   0  0  0  0  0  0  0  0  0  0  0  0
    3.7045   -4.1260   -6.6992 H   0  0  0  0  0  0  0  0  0  0  0  0
    1.0485   -1.6729   -5.6814 H   0  0  0  0  0  0  0  0  0  0  0  0
    2.0483    0.4664   -6.4139 H   0  0  0  0  0  0  0  0  0  0  0  0
    3.8668    2.0500   -6.3027 H   0  0  0  0  0  0  0  0  0  0  0  0
    5.1165    1.1123   -7.1205 H   0  0  0  0  0  0  0  0  0  0  0  0
    5.3637    1.6339   -5.4584 H   0  0  0  0  0  0  0  0  0  0  0  0
    5.8201   -0.7689   -4.8651 H   0  0  0  0  0  0  0  0  0  0  0  0
    4.8361   -2.9078   -4.1554 H   0  0  0  0  0  0  0  0  0  0  0  0
    0.5582   -2.8671    1.1897 H   0  0  0  0  0  0  0  0  0  0  0  0
    0.7889   -2.8434    3.6391 H   0  0  0  0  0  0  0  0  0  0  0  0
   -1.8343   -2.8600    5.8839 H   0  0  0  0  0  0  0  0  0  0  0  0
   -0.1062   -2.5027    5.8064 H   0  0  0  0  0  0  0  0  0  0  0  0
   -1.2868   -1.1884    5.9225 H   0  0  0  0  0  0  0  0  0  0  0  0
   -3.1819   -1.3423    4.0077 H   0  0  0  0  0  0  0  0  0  0  0  0
   -3.4221   -1.3678    1.5575 H   0  0  0  0  0  0  0  0  0  0  0  0
   -3.0097   -4.1832    1.0549 H   0  0  0  0  0  0  0  0  0  0  0  0
   -4.9774   -5.3402    0.1656 H   0  0  0  0  0  0  0  0  0  0  0  0
   -5.8658   -5.8298   -2.7805 H   0  0  0  0  0  0  0  0  0  0  0  0
   -6.7896   -4.3321   -2.8936 H   0  0  0  0  0  0  0  0  0  0  0  0
   -6.8706   -5.3194   -1.4248 H   0  0  0  0  0  0  0  0  0  0  0  0
   -4.8278   -2.9238   -3.3457 H   0  0  0  0  0  0  0  0  0  0  0  0
   -2.8545   -1.7638   -2.4570 H   0  0  0  0  0  0  0  0  0  0  0  0
    0.1031    3.2167   -4.4836 H   0  0  0  0  0  0  0  0  0  0  0  0
    1.8542    4.5474   -5.5871 H   0  0  0  0  0  0  0  0  0  0  0  0
    6.4955    4.0541   -3.9358 H   0  0  0  0  0  0  0  0  0  0  0  0
    6.6561    5.7575   -4.4095 H   0  0  0  0  0  0  0  0  0  0  0  0
    5.6445    5.3321   -3.0095 H   0  0  0  0  0  0  0  0  0  0  0  0
    4.7250    3.1052   -2.7651 H   0  0  0  0  0  0  0  0  0  0  0  0
    2.9982    1.7660   -1.6928 H   0  0  0  0  0  0  0  0  0  0  0  0
   -2.0430    1.5910   -1.4267 H   0  0  0  0  0  0  0  0  0  0  0  0
   -3.9942    0.6597   -2.6051 H   0  0  0  0  0  0  0  0  0  0  0  0
   -2.9425   -2.4008   -5.8231 H   0  0  0  0  0  0  0  0  0  0  0  0
   -4.5219   -2.3454   -6.6394 H   0  0  0  0  0  0  0  0  0  0  0  0
   -3.2413   -1.2280   -7.1477 H   0  0  0  0  0  0  0  0  0  0  0  0
   -1.5019   -0.3486   -5.9306 H   0  0  0  0  0  0  0  0  0  0  0  0
    0.4308    0.5887   -4.7557 H   0  0  0  0  0  0  0  0  0  0  0  0
    0.1880    1.6887    5.7887 H   0  0  0  0  0  0  0  0  0  0  0  0
    1.0529   -0.4143    6.7288 H   0  0  0  0  0  0  0  0  0  0  0  0
    3.6381   -3.0641    3.7219 H   0  0  0  0  0  0  0  0  0  0  0  0
    4.3569   -3.9630    5.0775 H   0  0  0  0  0  0  0  0  0  0  0  0
    5.0100   -2.3685    4.6446 H   0  0  0  0  0  0  0  0  0  0  0  0
    3.8112   -0.7276    3.4760 H   0  0  0  0  0  0  0  0  0  0  0  0
    3.0286    1.3986    2.6064 H   0  0  0  0  0  0  0  0  0  0  0  0
    2.1559    3.5216    5.9171 H   0  0  0  0  0  0  0  0  0  0  0  0
    1.5183    5.3616    7.3797 H   0  0  0  0  0  0  0  0  0  0  0  0
    1.0540    7.1091    8.8428 H   0  0  0  0  0  0  0  0  0  0  0  0
    1.7730    7.8376    7.3716 H   0  0  0  0  0  0  0  0  0  0  0  0
    0.7472    8.8126    8.4544 H   0  0  0  0  0  0  0  0  0  0  0  0
   -1.6170    6.4305    4.6740 H   0  0  0  0  0  0  0  0  0  0  0  0
   -1.0097    4.5375    3.2278 H   0  0  0  0  0  0  0  0  0  0  0  0
    0.4320    8.7466    2.2914 H   0  0  0  0  0  0  0  0  0  0  0  0
    3.3696    6.8505    4.7751 H   0  0  0  0  0  0  0  0  0  0  0  0
    3.1223    4.7889    3.4763 H   0  0  0  0  0  0  0  0  0  0  0  0
    2.8662    9.1950    5.0793 H   0  0  0  0  0  0  0  0  0  0  0  0
   -3.3353    9.6660    5.5430 H   0  0  0  0  0  0  0  0  0  0  0  0
   -0.1035   12.5096    8.2136 H   0  0  0  0  0  0  0  0  0  0  0  0
   -3.1130   12.2765    9.8291 H   0  0  0  0  0  0  0  0  0  0  0  0
   -2.9447   14.6770    8.6866 H   0  0  0  0  0  0  0  0  0  0  0  0
   -5.1916   14.5583   10.0439 H   0  0  0  0  0  0  0  0  0  0  0  0
   -6.9168   13.0861    8.6604 H   0  0  0  0  0  0  0  0  0  0  0  0
   -5.7331   12.2993    6.4509 H   0  0  0  0  0  0  0  0  0  0  0  0
   -4.6112   14.6901    6.6301 H   0  0  0  0  0  0  0  0  0  0  0  0
   -3.3328   13.4978    6.3035 H   0  0  0  0  0  0  0  0  0  0  0  0
   -4.8040   10.8324    8.4711 H   0  0  0  0  0  0  0  0  0  0  0  0
  1  2  2  0  0  0  0
  2  3  1  0  0  0  0
  3  4  2  0  0  0  0
  3  5  1  0  0  0  0
  5  6  2  0  0  0  0
  6  7  1  0  0  0  0
  7  8  2  0  0  0  0
  8  9  1  0  0  0  0
  9 10  2  0  0  0  0
 10 11  1  0  0  0  0
 11 12  2  0  0  0  0
 12 13  1  0  0  0  0
 13 14  3  0  0  0  0
 12 15  1  0  0  0  0
 15 16  3  0  0  0  0
  8 17  1  0  0  0  0
 17 18  1  0  0  0  0
 18 19  1  0  0  0  0
 19 20  2  0  0  0  0
 20 21  1  0  0  0  0
 21 22  1  0  0  0  0
 21 23  1  0  0  0  0
  1 24  1  0  0  0  0
 24 25  2  0  0  0  0
 25 26  1  0  0  0  0
 26 27  1  0  0  0  0
 27 28  2  0  0  0  0
 28 29  1  0  0  0  0
 29 30  2  0  0  0  0
 30 31  1  0  0  0  0
 30 32  1  0  0  0  0
 32 33  2  0  0  0  0
 26 34  1  0  0  0  0
 34 35  2  0  0  0  0
 35 36  1  0  0  0  0
 36 37  2  0  0  0  0
 37 38  1  0  0  0  0
 37 39  1  0  0  0  0
 39 40  2  0  0  0  0
 25 41  1  0  0  0  0
 41 42  1  0  0  0  0
 42 43  1  0  0  0  0
 43 44  2  0  0  0  0
 44 45  1  0  0  0  0
 45 46  1  0  0  0  0
 46 47  2  0  0  0  0
 47 48  1  0  0  0  0
 48 49  2  0  0  0  0
 49 50  1  0  0  0  0
 49 51  1  0  0  0  0
 51 52  2  0  0  0  0
 45 53  1  0  0  0  0
 53 54  2  0  0  0  0
 54 55  1  0  0  0  0
 55 56  2  0  0  0  0
 56 57  1  0  0  0  0
 56 58  1  0  0  0  0
 58 59  2  0  0  0  0
 44 60  1  0  0  0  0
 60 61  1  0  0  0  0
 43 62  1  0  0  0  0
 62 63  2  0  0  0  0
 63 64  1  0  0  0  0
 64 65  1  0  0  0  0
 65 66  2  0  0  0  0
 66 67  1  0  0  0  0
 67 68  2  0  0  0  0
 68 69  1  0  0  0  0
 69 70  1  0  0  0  0
 68 71  1  0  0  0  0
 71 72  2  0  0  0  0
 64 73  1  0  0  0  0
 73 74  2  0  0  0  0
 74 75  1  0  0  0  0
 75 76  2  0  0  0  0
 76 77  1  0  0  0  0
 77 78  1  0  0  0  0
 76 79  1  0  0  0  0
 79 80  2  0  0  0  0
 63 81  1  0  0  0  0
 81 82  1  0  0  0  0
 82 83  1  0  0  0  0
 83 84  2  0  0  0  0
 84 85  1  0  0  0  0
 85 86  1  0  0  0  0
 86 87  2  0  0  0  0
 87 88  1  0  0  0  0
 88 89  2  0  0  0  0
 89 90  1  0  0  0  0
 90 91  1  0  0  0  0
 89 92  1  0  0  0  0
 92 93  2  0  0  0  0
 85 94  1  0  0  0  0
 94 95  2  0  0  0  0
 95 96  1  0  0  0  0
 96 97  2  0  0  0  0
 97 98  1  0  0  0  0
 98 99  1  0  0  0  0
 97100  1  0  0  0  0
100101  2  0  0  0  0
 84102  1  0  0  0  0
102103  1  0  0  0  0
 83104  1  0  0  0  0
104105  2  0  0  0  0
105106  1  0  0  0  0
105107  1  0  0  0  0
107108  2  0  0  0  0
108109  1  0  0  0  0
109110  2  0  0  0  0
108111  1  0  0  0  0
111112  2  0  0  0  0
112113  1  0  0  0  0
113114  2  0  0  0  0
113115  1  0  0  0  0
115116  2  0  0  0  0
116117  1  0  0  0  0
117118  2  0  0  0  0
118119  1  0  0  0  0
119120  2  0  0  0  0
120121  1  0  0  0  0
121122  2  0  0  0  0
122123  1  0  0  0  0
123124  3  0  0  0  0
122125  1  0  0  0  0
125126  3  0  0  0  0
118127  1  0  0  0  0
127128  1  0  0  0  0
128129  1  0  0  0  0
129130  2  0  0  0  0
130131  1  0  0  0  0
131132  1  0  0  0  0
131133  1  0  0  0  0
 11  2  1  0  0  0  0
 23 17  1  0  0  0  0
 61 24  1  0  0  0  0
103 62  1  0  0  0  0
110104  1  0  0  0  0
121112  1  0  0  0  0
133127  1  0  0  0  0
 10  5  1  0  0  0  0
 22 18  1  0  0  0  0
 33 27  1  0  0  0  0
 40 34  1  0  0  0  0
 60 41  2  0  0  0  0
 72 65  1  0  0  0  0
 80 73  1  0  0  0  0
102 81  2  0  0  0  0
120115  1  0  0  0  0
132128  1  0  0  0  0
 23  7  1  0  0  0  0
 52 46  1  0  0  0  0
 59 53  1  0  0  0  0
 93 86  1  0  0  0  0
101 94  1  0  0  0  0
133117  1  0  0  0  0
  1134  1  0  0  0  0
  6135  1  0  0  0  0
  9136  1  0  0  0  0
 17137  1  0  0  0  0
 18138  1  0  0  0  0
 19139  1  0  0  0  0
 20140  1  0  0  0  0
 21141  1  0  0  0  0
 22142  1  0  0  0  0
 22143  1  0  0  0  0
 23144  1  0  0  0  0
 28145  1  0  0  0  0
 29146  1  0  0  0  0
 31147  1  0  0  0  0
 31148  1  0  0  0  0
 31149  1  0  0  0  0
 32150  1  0  0  0  0
 33151  1  0  0  0  0
 35152  1  0  0  0  0
 36153  1  0  0  0  0
 38154  1  0  0  0  0
 38155  1  0  0  0  0
 38156  1  0  0  0  0
 39157  1  0  0  0  0
 40158  1  0  0  0  0
 47159  1  0  0  0  0
 48160  1  0  0  0  0
 50161  1  0  0  0  0
 50162  1  0  0  0  0
 50163  1  0  0  0  0
 51164  1  0  0  0  0
 52165  1  0  0  0  0
 54166  1  0  0  0  0
 55167  1  0  0  0  0
 57168  1  0  0  0  0
 57169  1  0  0  0  0
 57170  1  0  0  0  0
 58171  1  0  0  0  0
 59172  1  0  0  0  0
 66173  1  0  0  0  0
 67174  1  0  0  0  0
 70175  1  0  0  0  0
 70176  1  0  0  0  0
 70177  1  0  0  0  0
 71178  1  0  0  0  0
 72179  1  0  0  0  0
 74180  1  0  0  0  0
 75181  1  0  0  0  0
 78182  1  0  0  0  0
 78183  1  0  0  0  0
 78184  1  0  0  0  0
 79185  1  0  0  0  0
 80186  1  0  0  0  0
 87187  1  0  0  0  0
 88188  1  0  0  0  0
 91189  1  0  0  0  0
 91190  1  0  0  0  0
 91191  1  0  0  0  0
 92192  1  0  0  0  0
 93193  1  0  0  0  0
 95194  1  0  0  0  0
 96195  1  0  0  0  0
 99196  1  0  0  0  0
 99197  1  0  0  0  0
 99198  1  0  0  0  0
100199  1  0  0  0  0
101200  1  0  0  0  0
107201  1  0  0  0  0
109202  1  0  0  0  0
110203  1  0  0  0  0
111204  1  0  0  0  0
116205  1  0  0  0  0
119206  1  0  0  0  0
127207  1  0  0  0  0
128208  1  0  0  0  0
129209  1  0  0  0  0
130210  1  0  0  0  0
131211  1  0  0  0  0
132212  1  0  0  0  0
132213  1  0  0  0  0
133214  1  0  0  0  0
M  END
