162

C         -5.01410        0.09700        1.77940
C         -5.63850        1.30190        1.54450
C         -5.03950        2.63110        1.67710
O         -3.88340        2.90900        1.95080
C         -6.12560        3.59960        1.43970
C         -6.02410        4.98850        1.43470
C         -7.20600        5.63380        1.15960
C         -8.40080        4.94740        0.91050
C         -8.51290        3.57670        0.90920
C         -7.32160        2.90030        1.18610
C         -7.03690        1.46500        1.22830
C         -7.95070        0.47000        0.97180
C         -7.65800       -0.90090        0.84470
N         -7.50720       -2.02900        0.67670
C         -9.32710        0.68520        0.76350
N        -10.46220        0.77880        0.61030
C         -9.18430        6.22070        0.70770
C        -10.08410        6.67380        1.87680
C        -10.33200        8.13800        1.59440
C         -9.19980        8.79060        1.82440
C         -8.16790        7.77860        2.26720
C         -9.07020        6.79390        3.02190
C         -7.85040        6.98680        0.98130
C         -3.67620       -0.18960        2.04280
C         -3.19190       -1.50720        2.25580
N         -3.96390       -2.61830        2.45500
C         -5.18000       -2.58550        3.16290
C         -6.22020       -3.43450        2.79300
C         -7.41420       -3.40450        3.48510
C         -7.60810       -2.53010        4.54790
C         -8.92620       -2.48330        5.25720
C         -6.55610       -1.70200        4.92200
C         -5.35090       -1.73090        4.24920
C         -3.46590       -3.86860        2.03490
C         -2.90480       -4.00280        0.76740
C         -2.40370       -5.22160        0.35950
C         -2.45450       -6.33320        1.19380
C         -1.88580       -7.64220        0.74160
C         -3.03210       -6.19220        2.44930
C         -3.53280       -4.97640        2.87230
C         -1.78490       -1.52900        2.23870
S         -0.59190       -2.78590        2.36100
C          0.68550       -1.59080        2.25170
C          0.20960       -0.29870        2.06630
N          0.99090        0.80450        1.79180
C          2.15310        0.69420        1.01360
C          3.28340        1.44760        1.32610
C          4.45330        1.26940        0.61580
C          4.53290        0.34810       -0.42370
C          5.81810        0.13160       -1.16170
C          3.38830       -0.35930       -0.76480
C          2.21040       -0.18760       -0.06320
C          0.56180        2.06090        2.25330
C          0.65760        3.18420        1.43960
C          0.19410        4.40400        1.89120
C         -0.37550        4.53350        3.15100
C         -0.92510        5.84390        3.62340
C         -0.44730        3.40860        3.96430
C          0.01850        2.18560        3.52900
C         -1.20730       -0.27490        2.08860
S         -2.36770        0.99500        1.96980
C          2.06960       -1.94460        2.26960
S          2.77260       -3.09370        1.16640
C          4.39280       -2.61640        1.57290
C          4.39420       -1.65750        2.58050
C          5.35330       -0.91080        3.30400
C          4.77770       -0.04540        4.18770
C          5.43610        0.88540        5.10630
O          4.84430        1.64870        5.82970
O          6.77190        0.79060        5.03310
C          7.51780        1.63810        5.90880
C          7.60820        1.05160        7.31020
S          3.03270       -0.07760        4.19310
C          3.06890       -1.29020        2.95460
C          5.41180       -3.10210        0.70190
C          6.78770       -2.86950        0.85090
C          7.62370       -3.19100       -0.19300
C          7.09480       -3.73710       -1.37110
C          5.72860       -4.07920       -1.34330
N          4.93670       -3.77510       -0.35680
C          7.91580       -3.98810       -2.52020
C          7.51580       -3.80570       -3.80610
C          6.32900       -3.00360       -4.21110
O          5.50800       -2.47210       -3.49240
C          6.40580       -2.89010       -5.67690
C          5.50510       -2.22270       -6.50590
C          5.81870       -2.29040       -7.84130
C          6.95050       -2.96550       -8.32010
C          7.84820       -3.62420       -7.51450
C          7.54570       -3.57220       -6.14920
C          8.24790       -4.15600       -5.01120
C          9.36370       -4.94820       -5.07730
C         10.04140       -5.28120       -6.26890
N         10.64660       -5.58360       -7.19660
C          9.98970       -5.55840       -3.96980
N         10.54820       -6.09860       -3.12400
C          6.64640       -2.62150       -9.75680
C          7.47850       -1.48440      -10.38680
C          6.65870       -1.05720      -11.58300
C          5.58610       -0.42040      -11.13060
C          5.66260       -0.40650       -9.62090
C          7.18290       -0.31820       -9.43480
C          5.38360       -1.87160       -9.22340
H         -5.65100       -0.77710        1.73720
H         -5.07990        5.47520        1.62280
H         -9.43840        3.06490        0.70540
H         -9.66100        6.33500       -0.26410
H        -10.95920        6.05220        2.04510
H        -11.25820        8.52730        1.21390
H         -8.99150        9.83390        1.67440
H         -7.29780        8.16480        2.79160
H         -8.58250        5.85630        3.28210
H         -9.50800        7.23760        3.91470
H         -7.43670        7.60840        0.18910
H         -6.09320       -4.10230        1.95580
H         -8.21760       -4.05760        3.17980
H         -9.69640       -2.10010        4.58790
H         -9.22780       -3.48120        5.57110
H         -8.87770       -1.83980        6.13200
H         -6.67740       -1.02760        5.75750
H         -4.54090       -1.08580        4.55690
H         -2.87200       -3.14850        0.10720
H         -1.96820       -5.31500       -0.62440
H         -2.13740       -8.43880        1.43680
H         -2.26380       -7.90430       -0.24510
H         -0.80030       -7.57290        0.67390
H         -3.08460       -7.04400        3.11170
H         -3.97150       -4.87720        3.85410
H          3.24060        2.15440        2.14180
H          5.32820        1.84420        0.88520
H          6.08760        1.02490       -1.72550
H          5.72700       -0.70120       -1.85500
H          6.62830       -0.07780       -0.46360
H          3.42540       -1.06420       -1.58210
H          1.32920       -0.74750       -0.34080
H          1.08460        3.09150        0.45160
H          0.26410        5.26740        1.24510
H         -0.62920        6.03940        4.65240
H         -2.01420        5.81610        3.58790
H         -0.58170        6.66230        2.99550
H         -0.87330        3.49370        4.95320
H         -0.02910        1.31950        4.17290
H          6.41870       -0.98970        3.19970
H          8.50490        1.71740        5.44880
H          7.03920        2.62230        5.94150
H          8.02860        0.04930        7.27300
H          8.24280        1.68100        7.92720
H          6.61810        1.00430        7.75680
H          7.17480       -2.42980        1.75430
H          8.68190       -2.97970       -0.13250
H          5.28730       -4.64770       -2.15010
H          8.92620       -4.32210       -2.31950
H          4.64490       -1.71810       -6.09470
H          8.71290       -4.13920       -7.89810
H          6.50670       -3.46760      -10.42690
H          8.52060       -1.73090      -10.57020
H          6.90700       -1.30260      -12.59880
H          4.75930       -0.02770      -11.69290
H          5.05070        0.32950       -9.10640
H          7.58810        0.62380       -9.80050
H          7.51530       -0.48450       -8.41170
H          4.40070       -2.21820       -9.53700
