263

C          3.85460       -7.99290        2.29460
C          3.45210       -9.19320        2.83930
C          2.14110       -9.48830        3.41830
O          1.15710       -8.76740        3.45800
C          2.23330      -10.84850        3.98040
C          1.22620      -11.55770        4.62980
C          1.60500      -12.81190        5.04530
C          2.89090      -13.32220        4.82920
C          3.89270      -12.63280        4.18660
C          3.52900      -11.35360        3.75740
C          4.29770      -10.34740        3.02230
C          5.58460      -10.51480        2.56620
C          6.27780       -9.62700        1.72240
N          6.90240       -8.98650        0.99890
C          6.39290      -11.63300        2.84910
N          7.11970      -12.49960        3.05300
C          2.57380      -14.63070        5.51050
C          3.11540      -14.81190        6.94410
C          2.26830      -15.92730        7.51270
C          1.04960      -15.44400        7.71780
C          1.05270      -13.99380        7.29120
C          2.49030      -13.61130        7.66630
C          1.13890      -14.06130        5.75180
C          3.13160       -6.83090        2.03770
C          3.70280       -5.67890        1.43820
N          5.04010       -5.46400        1.23170
C          5.43780       -4.74560        0.08900
C          4.86260       -5.03700       -1.14490
C          5.27890       -4.36650       -2.27660
C          6.27220       -3.39670       -2.20940
C          6.76550       -2.72140       -3.45090
C          6.82330       -3.09570       -0.96970
C          6.41550       -3.75900        0.17010
C          6.01460       -5.85410        2.16760
C          5.73880       -5.82170        3.53250
C          6.69790       -6.22130        4.44140
C          7.95400       -6.64280        4.02150
C          8.99050       -7.09760        5.00210
C          8.22880       -6.64240        2.65890
C          7.27570       -6.25960        1.73700
C          2.70810       -4.75460        1.08340
S          2.73470       -3.16940        0.38890
C          0.99070       -3.00220        0.63870
C          0.43570       -4.13070        1.23360
N         -0.87640       -4.31810        1.63330
C         -1.32160       -5.65850        1.70040
C         -1.07320       -6.51510        0.63250
C         -1.46180       -7.83790        0.69010
C         -2.09520       -8.34650        1.81590
C         -2.45970       -9.79600        1.90020
C         -2.33660       -7.48690        2.88030
C         -1.95720       -6.16080        2.83160
C         -1.62420       -3.32400        2.27140
C         -1.02050       -2.25270        2.92710
C         -1.79090       -1.31830        3.59190
C         -3.17530       -1.43000        3.64860
C         -3.99520       -0.39490        4.35470
C         -3.77140       -2.50510        2.99870
C         -3.01510       -3.42760        2.30540
C          1.42490       -5.12500        1.45860
S          1.38810       -6.66050        2.25380
C          0.46090       -1.71960        0.30570
C         -0.76940       -1.29840       -0.18770
N         -1.79540       -2.10750       -0.64150
C         -1.56330       -3.32480       -1.29360
C         -2.58290       -4.28020       -1.32640
C         -2.41540       -5.46140       -2.00980
C         -1.21310       -5.73770       -2.66110
S         -1.09630       -7.30210       -3.47280
C          0.65850       -7.42290       -3.92430
C         -0.19510       -4.79590       -2.63040
C         -0.37330       -3.59840       -1.96170
C         -3.07530       -1.52810       -0.75950
C         -3.63780       -0.85970        0.32530
C         -4.89250       -0.30330        0.22360
C         -5.58940       -0.34500       -0.98110
S         -7.15980        0.46060       -1.01230
C         -7.66750        0.36790       -2.74960
C         -5.02400       -0.99240       -2.07180
C         -3.78390       -1.58840       -1.95610
C         -0.79990        0.11580       -0.31990
S         -2.00420        1.26470       -0.80580
C         -0.82140        2.56960       -0.74600
C          0.41880        2.13370       -0.29210
N          1.55960        2.91180       -0.13140
C          1.50010        4.17560        0.45740
C          2.35310        5.19680        0.03750
C          2.22120        6.47550        0.53720
C          1.22580        6.76350        1.46070
S          0.92450        8.38410        2.09880
C          1.71360        9.46720        0.87240
C          0.41050        5.73520        1.92710
C          0.54780        4.45490        1.43810
C          2.75730        2.41940       -0.66730
C          2.74980        1.74990       -1.88860
C          3.92180        1.26970       -2.43660
C          5.12750        1.46690       -1.77720
S          6.68010        0.92240       -2.42270
C          6.37200        0.86980       -4.21530
C          5.13840        2.11830       -0.54620
C          3.96680        2.58620        0.00660
C          0.40390        0.74380       -0.04420
S          1.60050       -0.37820        0.48360
C         -1.15890        3.82170       -1.31420
C         -2.43440        4.32550       -1.55390
N         -3.61060        3.78450       -1.04130
C         -3.79430        3.67700        0.34010
C         -2.95620        4.33920        1.23600
C         -3.15190        4.21580        2.59620
C         -4.19120        3.45010        3.11150
C         -4.40130        3.35770        4.59310
C         -5.02680        2.80010        2.21310
C         -4.83270        2.90130        0.84930
C         -4.69830        3.73230       -1.93350
C         -4.50600        3.15880       -3.18660
C         -5.54010        3.12450       -4.10120
C         -6.78740        3.65160       -3.79010
C         -7.90240        3.63830       -4.79120
C         -6.97030        4.21810       -2.53410
C         -5.94260        4.26720       -1.61540
C         -2.39200        5.50140       -2.32840
S         -3.59900        6.60370       -2.88720
C         -2.33820        7.66740       -3.53300
C         -1.03300        7.18220       -3.23390
N          0.14080        7.85260       -3.45890
C          1.32610        7.10550       -3.59870
C          1.35480        5.98990       -4.43220
C          2.50030        5.22580       -4.52800
C          3.64440        5.55380       -3.81050
C          4.86580        4.69080       -3.88170
C          3.61790        6.69000       -3.01080
C          2.47770        7.46030       -2.90270
C          0.24840        9.24760       -3.28600
C         -0.47260        9.90140       -2.29010
C         -0.35360       11.26870       -2.13750
C          0.49240       12.01120       -2.95310
C          0.60120       13.49760       -2.81020
C          1.23260       11.34250       -3.92150
C          1.11510        9.97800       -4.09460
C         -1.09950        5.92710       -2.62020
S          0.09700        4.83910       -2.00040
C         -2.56020        8.79350       -4.31270
C         -3.73780        9.42370       -4.67210
C         -5.07690        9.07180       -4.20880
O         -5.41250        8.11950       -3.52400
C         -5.97810       10.12120       -4.72730
C         -7.32360       10.25570       -4.55330
C         -7.98370       11.35890       -5.14130
C         -9.37020       11.55050       -4.99110
C         -9.98310       12.62710       -5.56900
F        -11.30520       12.80750       -5.42360
C         -9.23790       13.55540       -6.32050
F         -9.86500       14.60300       -6.87690
C         -7.89020       13.39580       -6.48430
C         -7.22840       12.29730       -5.90110
C         -5.83350       12.12580       -6.06600
C         -5.21470       11.05190       -5.48500
C         -3.82010       10.60980       -5.48480
C         -2.79990       11.23010       -6.17060
C         -2.94950       12.43260       -6.88710
N         -2.99450       13.41990       -7.47360
C         -1.48190       10.75420       -6.28980
N         -0.39460       10.42240       -6.46710
H          4.89540       -7.93540        2.00250
H          0.24760      -11.12560        4.77140
H          4.87510      -13.04370        4.02440
H          2.68350      -15.52380        4.89810
H          4.19310      -14.93220        7.01150
H          2.61560      -16.93450        7.64970
H          0.17590      -15.96700        8.06020
H          0.25120      -13.36880        7.67610
H          2.80790      -12.64570        7.27750
H          2.65800      -13.64460        8.74160
H          0.29260      -14.57600        5.30010
H          4.10470       -5.80460       -1.20930
H          4.83720       -4.61150       -3.23210
H          5.95070       -2.55700       -4.15310
H          7.50730       -3.35030       -3.94430
H          7.23450       -1.77180       -3.20920
H          7.58060       -2.32920       -0.89650
H          6.85170       -3.51940        1.12820
H          4.77020       -5.48900        3.87590
H          6.46660       -6.19720        5.49670
H          8.66710       -6.91910        6.02450
H          9.93110       -6.57540        4.83480
H          9.17790       -8.16430        4.87990
H          9.19820       -6.96640        2.31160
H          7.49810       -6.28660        0.68220
H         -0.55010       -6.13860       -0.23170
H         -1.25960       -8.48530       -0.15080
H         -1.61490      -10.35670        2.30190
H         -2.69350      -10.19750        0.91670
H         -3.31140       -9.94840        2.55910
H         -2.81350       -7.86530        3.77270
H         -2.13390       -5.51560        3.67930
H          0.05490       -2.16480        2.94440
H         -1.30360       -0.49240        4.09060
H         -5.01620       -0.74000        4.49690
H         -4.01960        0.52250        3.76570
H         -3.56540       -0.15730        5.32610
H         -4.84610       -2.61240        3.01940
H         -3.49780       -4.24790        1.79620
H         -3.51130       -4.08130       -0.81360
H         -3.20510       -6.19600       -2.03210
H          1.27490       -7.29690       -3.03890
H          0.90350       -6.68780       -4.68560
H          0.78940       -8.42300       -4.32580
H          0.74250       -4.96950       -3.13410
H          0.41780       -2.86520       -1.98860
H         -3.08350       -0.78150        1.24460
H         -5.33740        0.17750        1.07870
H         -6.92060        0.85300       -3.37110
H         -8.60410        0.91310       -2.80830
H         -7.82470       -0.66710       -3.03940
H         -5.53520       -1.03810       -3.01970
H         -3.35440       -2.09480       -2.80810
H          3.09760        4.99630       -0.71750
H          2.88910        7.24280        0.18200
H          1.36890        9.20210       -0.12300
H          1.39010       10.47420        1.11660
H          2.79530        9.40350        0.94790
H         -0.33840        5.95840        2.67110
H         -0.09910        3.66740        1.79530
H          1.81690        1.61620       -2.41620
H          3.88560        0.75190       -3.38170
H          5.74970        0.01770       -4.47100
H          7.34660        0.76350       -4.68130
H          5.91040        1.80130       -4.52730
H          6.07670        2.25110       -0.03020
H          3.97930        3.08920        0.96150
H         -2.16040        4.96880        0.86690
H         -2.49520        4.74080        3.27530
H         -5.24510        2.71400        4.82880
H         -3.51230        2.96180        5.08320
H         -4.59440        4.34620        5.00870
H         -5.85240        2.20780        2.58310
H         -5.49570        2.39040        0.17030
H         -3.54080        2.73930       -3.43300
H         -5.37520        2.67990       -5.07330
H         -7.76930        2.83990       -5.51810
H         -8.86480        3.51300       -4.29960
H         -7.92400        4.58580       -5.33060
H         -7.93000        4.64160       -2.27730
H         -6.09530        4.73220       -0.65360
H          0.47480        5.72930       -5.00150
H          2.50650        4.35940       -5.17300
H          4.77630        3.86850       -3.16960
H          5.76050        5.25650       -3.63360
H          4.98020        4.26840       -4.87790
H          4.50210        6.97140       -2.45680
H          2.47130        8.33790       -2.27340
H         -1.12890        9.33740       -1.64300
H         -0.92410       11.76410       -1.36520
H          0.11130       13.84100       -1.90260
H          1.64460       13.80650       -2.78720
H          0.12990       13.98770       -3.66220
H          1.89660       11.90080       -4.56360
H          1.68150        9.47350       -4.86120
H         -1.65470        9.25040       -4.69100
H         -7.87730        9.53220       -3.97440
H         -9.95480       10.84810       -4.41770
H         -7.33410       14.11660       -7.06330
H         -5.29190       12.85370       -6.64780
