
  xtb     02162200403D
 energy: -366.954896631929 gnorm: 0.000886229556 xtb: 6.4.1 (unknown)
230254  0     0  0            999 V2000
   -5.4729   -2.2475   -6.3263 C   0  0  0  0  0  0  0  0  0  0  0  0
   -4.9222   -2.7564   -7.4804 C   0  0  0  0  0  0  0  0  0  0  0  0
   -3.5658   -3.2852   -7.6314 C   0  0  0  0  0  0  0  0  0  0  0  0
   -2.6669   -3.2848   -6.8065 O   0  0  0  0  0  0  0  0  0  0  0  0
   -3.4913   -3.8528   -8.9896 C   0  0  0  0  0  0  0  0  0  0  0  0
   -2.3911   -4.4670   -9.5828 C   0  0  0  0  0  0  0  0  0  0  0  0
   -2.6187   -4.8986  -10.8677 C   0  0  0  0  0  0  0  0  0  0  0  0
   -3.8494   -4.7306  -11.5142 C   0  0  0  0  0  0  0  0  0  0  0  0
   -4.9411   -4.1213  -10.9409 C   0  0  0  0  0  0  0  0  0  0  0  0
   -4.7321   -3.6760   -9.6327 C   0  0  0  0  0  0  0  0  0  0  0  0
   -5.6310   -2.9677   -8.7200 C   0  0  0  0  0  0  0  0  0  0  0  0
   -6.9099   -2.5651   -9.0236 C   0  0  0  0  0  0  0  0  0  0  0  0
   -7.5841   -2.8816  -10.2193 C   0  0  0  0  0  0  0  0  0  0  0  0
   -8.2074   -3.1166  -11.1555 N   0  0  0  0  0  0  0  0  0  0  0  0
   -7.7312   -1.7600   -8.2119 C   0  0  0  0  0  0  0  0  0  0  0  0
   -8.4508   -1.0714   -7.6369 N   0  0  0  0  0  0  0  0  0  0  0  0
   -3.3692   -5.4027  -12.7769 C   0  0  0  0  0  0  0  0  0  0  0  0
   -3.8343   -6.8562  -13.0061 C   0  0  0  0  0  0  0  0  0  0  0  0
   -2.8524   -7.3940  -14.0218 C   0  0  0  0  0  0  0  0  0  0  0  0
   -1.6853   -7.5519  -13.4105 C   0  0  0  0  0  0  0  0  0  0  0  0
   -1.8589   -7.1235  -11.9713 C   0  0  0  0  0  0  0  0  0  0  0  0
   -3.3139   -7.5522  -11.7418 C   0  0  0  0  0  0  0  0  0  0  0  0
   -1.9955   -5.5887  -12.0561 C   0  0  0  0  0  0  0  0  0  0  0  0
   -4.8994   -2.0071   -5.0786 C   0  0  0  0  0  0  0  0  0  0  0  0
   -5.6405   -1.5088   -3.9760 C   0  0  0  0  0  0  0  0  0  0  0  0
   -7.0040   -1.3950   -3.9205 N   0  0  0  0  0  0  0  0  0  0  0  0
   -7.8653   -2.3550   -4.4796 C   0  0  0  0  0  0  0  0  0  0  0  0
   -7.5144   -3.7032   -4.4869 C   0  0  0  0  0  0  0  0  0  0  0  0
   -8.3596   -4.6349   -5.0550 C   0  0  0  0  0  0  0  0  0  0  0  0
   -9.5769   -4.2569   -5.6094 C   0  0  0  0  0  0  0  0  0  0  0  0
  -10.4849   -5.2600   -6.2514 C   0  0  0  0  0  0  0  0  0  0  0  0
   -9.9326   -2.9140   -5.5661 C   0  0  0  0  0  0  0  0  0  0  0  0
   -9.0916   -1.9682   -5.0154 C   0  0  0  0  0  0  0  0  0  0  0  0
   -7.5587   -0.3057   -3.2205 C   0  0  0  0  0  0  0  0  0  0  0  0
   -7.0544    0.9747   -3.4243 C   0  0  0  0  0  0  0  0  0  0  0  0
   -7.6321    2.0521   -2.7847 C   0  0  0  0  0  0  0  0  0  0  0  0
   -8.7062    1.8821   -1.9196 C   0  0  0  0  0  0  0  0  0  0  0  0
   -9.3210    3.0566   -1.2209 C   0  0  0  0  0  0  0  0  0  0  0  0
   -9.1901    0.5959   -1.7093 C   0  0  0  0  0  0  0  0  0  0  0  0
   -8.6305   -0.4894   -2.3528 C   0  0  0  0  0  0  0  0  0  0  0  0
   -4.7900   -1.1629   -2.9116 C   0  0  0  0  0  0  0  0  0  0  0  0
   -5.0455   -0.5760   -1.2946 S   0  0  0  0  0  0  0  0  0  0  0  0
   -3.3345   -0.7384   -0.9595 C   0  0  0  0  0  0  0  0  0  0  0  0
   -2.6288   -1.2532   -2.0289 C   0  0  0  0  0  0  0  0  0  0  0  0
   -1.2820   -1.6088   -1.9260 N   0  0  0  0  0  0  0  0  0  0  0  0
   -0.3759   -1.1784   -2.8915 C   0  0  0  0  0  0  0  0  0  0  0  0
    0.8298   -1.8409   -3.1135 C   0  0  0  0  0  0  0  0  0  0  0  0
    1.7265   -1.3606   -4.0482 C   0  0  0  0  0  0  0  0  0  0  0  0
    1.4517   -0.2255   -4.7981 C   0  0  0  0  0  0  0  0  0  0  0  0
    2.4203    0.2920   -5.8179 C   0  0  0  0  0  0  0  0  0  0  0  0
    0.2340    0.4125   -4.5930 C   0  0  0  0  0  0  0  0  0  0  0  0
   -0.6671   -0.0494   -3.6578 C   0  0  0  0  0  0  0  0  0  0  0  0
   -0.9579   -2.5792   -0.9595 C   0  0  0  0  0  0  0  0  0  0  0  0
    0.1820   -2.4722   -0.1659 C   0  0  0  0  0  0  0  0  0  0  0  0
    0.5061   -3.4712    0.7297 C   0  0  0  0  0  0  0  0  0  0  0  0
   -0.2874   -4.6059    0.8641 C   0  0  0  0  0  0  0  0  0  0  0  0
    0.1177   -5.7105    1.7935 C   0  0  0  0  0  0  0  0  0  0  0  0
   -1.4488   -4.6823    0.1070 C   0  0  0  0  0  0  0  0  0  0  0  0
   -1.7866   -3.6850   -0.7868 C   0  0  0  0  0  0  0  0  0  0  0  0
   -3.4553   -1.4644   -3.1529 C   0  0  0  0  0  0  0  0  0  0  0  0
   -3.1777   -2.1514   -4.7098 S   0  0  0  0  0  0  0  0  0  0  0  0
   -2.6779   -0.3906    0.2728 C   0  0  0  0  0  0  0  0  0  0  0  0
   -1.6012    0.4726    0.3517 C   0  0  0  0  0  0  0  0  0  0  0  0
   -1.2822    1.4257   -0.6049 N   0  0  0  0  0  0  0  0  0  0  0  0
   -2.2797    2.1806   -1.2359 C   0  0  0  0  0  0  0  0  0  0  0  0
   -3.5649    2.3192   -0.7155 C   0  0  0  0  0  0  0  0  0  0  0  0
   -4.4991    3.1151   -1.3468 C   0  0  0  0  0  0  0  0  0  0  0  0
   -4.1619    3.8026   -2.5031 C   0  0  0  0  0  0  0  0  0  0  0  0
   -5.3040    4.8747   -3.3351 S   0  0  0  0  0  0  0  0  0  0  0  0
   -6.1432    5.6703   -1.9273 C   0  0  0  0  0  0  0  0  0  0  0  0
   -2.8869    3.6592   -3.0388 C   0  0  0  0  0  0  0  0  0  0  0  0
   -1.9557    2.8597   -2.4128 C   0  0  0  0  0  0  0  0  0  0  0  0
    0.0105    2.0017   -0.5336 C   0  0  0  0  0  0  0  0  0  0  0  0
    0.1687    3.3276   -0.1312 C   0  0  0  0  0  0  0  0  0  0  0  0
    1.4293    3.8506    0.0448 C   0  0  0  0  0  0  0  0  0  0  0  0
    2.5569    3.0628   -0.1802 C   0  0  0  0  0  0  0  0  0  0  0  0
    4.1204    3.8075    0.1620 S   0  0  0  0  0  0  0  0  0  0  0  0
    5.2618    2.3954    0.1954 C   0  0  0  0  0  0  0  0  0  0  0  0
    2.4032    1.7659   -0.6487 C   0  0  0  0  0  0  0  0  0  0  0  0
    1.1358    1.2421   -0.8224 C   0  0  0  0  0  0  0  0  0  0  0  0
   -0.9268    0.3204    1.5867 C   0  0  0  0  0  0  0  0  0  0  0  0
    0.5318    0.9700    2.2316 S   0  0  0  0  0  0  0  0  0  0  0  0
    0.3265    0.0360    3.7020 C   0  0  0  0  0  0  0  0  0  0  0  0
   -0.8643   -0.6697    3.7205 C   0  0  0  0  0  0  0  0  0  0  0  0
   -1.3907   -1.3094    4.8333 N   0  0  0  0  0  0  0  0  0  0  0  0
   -1.0690   -0.8532    6.1210 C   0  0  0  0  0  0  0  0  0  0  0  0
   -0.8161   -1.7655    7.1464 C   0  0  0  0  0  0  0  0  0  0  0  0
   -0.3327   -1.3309    8.3601 C   0  0  0  0  0  0  0  0  0  0  0  0
   -0.0883    0.0218    8.5777 C   0  0  0  0  0  0  0  0  0  0  0  0
    0.6645    0.4766   10.1099 S   0  0  0  0  0  0  0  0  0  0  0  0
    1.4628    2.0574    9.7049 C   0  0  0  0  0  0  0  0  0  0  0  0
   -0.4363    0.9422    7.5985 C   0  0  0  0  0  0  0  0  0  0  0  0
   -0.9280    0.5068    6.3850 C   0  0  0  0  0  0  0  0  0  0  0  0
   -2.2328   -2.4153    4.6730 C   0  0  0  0  0  0  0  0  0  0  0  0
   -2.0016   -3.3393    3.6592 C   0  0  0  0  0  0  0  0  0  0  0  0
   -2.8520   -4.4125    3.4755 C   0  0  0  0  0  0  0  0  0  0  0  0
   -3.9435   -4.5848    4.3123 C   0  0  0  0  0  0  0  0  0  0  0  0
   -5.0928   -5.9182    4.1642 S   0  0  0  0  0  0  0  0  0  0  0  0
   -4.7047   -6.6291    2.5385 C   0  0  0  0  0  0  0  0  0  0  0  0
   -4.1637   -3.6774    5.3477 C   0  0  0  0  0  0  0  0  0  0  0  0
   -3.3230   -2.6028    5.5249 C   0  0  0  0  0  0  0  0  0  0  0  0
   -1.5382   -0.5523    2.4719 C   0  0  0  0  0  0  0  0  0  0  0  0
   -2.9558   -1.2620    1.7752 S   0  0  0  0  0  0  0  0  0  0  0  0
    1.3658    0.1371    4.7052 C   0  0  0  0  0  0  0  0  0  0  0  0
    2.0406    1.3446    4.8523 C   0  0  0  0  0  0  0  0  0  0  0  0
    3.0070    1.4485    5.8361 C   0  0  0  0  0  0  0  0  0  0  0  0
    3.7900    2.5217    6.1773 N   0  0  0  0  0  0  0  0  0  0  0  0
    3.9093    3.7470    5.4293 C   0  0  0  0  0  0  0  0  0  0  0  0
    5.0035    3.6487    4.3683 C   0  0  0  0  0  0  0  0  0  0  0  0
    4.6189    2.1400    7.2043 C   0  0  0  0  0  0  0  0  0  0  0  0
    4.3186    0.8047    7.5840 C   0  0  0  0  0  0  0  0  0  0  0  0
    3.2944    0.3563    6.6957 C   0  0  0  0  0  0  0  0  0  0  0  0
    2.6471   -0.8613    6.5050 C   0  0  0  0  0  0  0  0  0  0  0  0
    1.7118   -0.9690    5.5042 C   0  0  0  0  0  0  0  0  0  0  0  0
    4.9994    0.2190    8.6493 C   0  0  0  0  0  0  0  0  0  0  0  0
    5.9892    0.9371    9.2750 C   0  0  0  0  0  0  0  0  0  0  0  0
    6.3487    2.2311    8.8403 C   0  0  0  0  0  0  0  0  0  0  0  0
    5.6246    2.8549    7.8234 C   0  0  0  0  0  0  0  0  0  0  0  0
    7.4679    2.8795    9.4666 C   0  0  0  0  0  0  0  0  0  0  0  0
    8.3806    3.6885    8.8661 C   0  0  0  0  0  0  0  0  0  0  0  0
    8.6127    3.8192    7.4020 C   0  0  0  0  0  0  0  0  0  0  0  0
    7.8986    3.4756    6.4832 O   0  0  0  0  0  0  0  0  0  0  0  0
    9.9584    4.4076    7.2685 C   0  0  0  0  0  0  0  0  0  0  0  0
   10.6488    4.6326    6.0791 C   0  0  0  0  0  0  0  0  0  0  0  0
   11.8907    5.1934    6.2505 C   0  0  0  0  0  0  0  0  0  0  0  0
   12.4145    5.5024    7.5139 C   0  0  0  0  0  0  0  0  0  0  0  0
   11.7471    5.2818    8.6946 C   0  0  0  0  0  0  0  0  0  0  0  0
   10.4770    4.7173    8.5415 C   0  0  0  0  0  0  0  0  0  0  0  0
    9.4876    4.3456    9.5447 C   0  0  0  0  0  0  0  0  0  0  0  0
    9.5425    4.6422   10.8801 C   0  0  0  0  0  0  0  0  0  0  0  0
    8.5138    4.3627   11.8057 C   0  0  0  0  0  0  0  0  0  0  0  0
    7.7090    4.1955   12.6075 N   0  0  0  0  0  0  0  0  0  0  0  0
   10.6148    5.3135   11.5038 C   0  0  0  0  0  0  0  0  0  0  0  0
   11.4575    5.8491   12.0704 N   0  0  0  0  0  0  0  0  0  0  0  0
   13.6989    6.0417    6.9369 C   0  0  0  0  0  0  0  0  0  0  0  0
   13.8680    7.5799    6.8719 C   0  0  0  0  0  0  0  0  0  0  0  0
   12.4783    8.1618    6.7938 C   0  0  0  0  0  0  0  0  0  0  0  0
   11.9838    7.8705    5.5981 C   0  0  0  0  0  0  0  0  0  0  0  0
   13.0301    7.0855    4.8461 C   0  0  0  0  0  0  0  0  0  0  0  0
   14.3075    7.7307    5.4067 C   0  0  0  0  0  0  0  0  0  0  0  0
   13.1155    5.6983    5.5300 C   0  0  0  0  0  0  0  0  0  0  0  0
   -6.5224   -1.9882   -6.3812 H   0  0  0  0  0  0  0  0  0  0  0  0
   -1.4594   -4.5691   -9.0487 H   0  0  0  0  0  0  0  0  0  0  0  0
   -5.8783   -3.9940  -11.4561 H   0  0  0  0  0  0  0  0  0  0  0  0
   -3.4055   -4.7969  -13.6804 H   0  0  0  0  0  0  0  0  0  0  0  0
   -4.8899   -6.9648  -13.2400 H   0  0  0  0  0  0  0  0  0  0  0  0
   -3.0850   -7.5454  -15.0596 H   0  0  0  0  0  0  0  0  0  0  0  0
   -0.7485   -7.8614  -13.8357 H   0  0  0  0  0  0  0  0  0  0  0  0
   -1.1146   -7.4766  -11.2624 H   0  0  0  0  0  0  0  0  0  0  0  0
   -3.4367   -8.6332  -11.7867 H   0  0  0  0  0  0  0  0  0  0  0  0
   -3.7469   -7.1742  -10.8176 H   0  0  0  0  0  0  0  0  0  0  0  0
   -1.1166   -5.1056  -12.4794 H   0  0  0  0  0  0  0  0  0  0  0  0
   -6.5749   -4.0149   -4.0541 H   0  0  0  0  0  0  0  0  0  0  0  0
   -8.0694   -5.6759   -5.0609 H   0  0  0  0  0  0  0  0  0  0  0  0
  -11.4975   -5.1639   -5.8636 H   0  0  0  0  0  0  0  0  0  0  0  0
  -10.1355   -6.2742   -6.0746 H   0  0  0  0  0  0  0  0  0  0  0  0
  -10.5252   -5.0913   -7.3276 H   0  0  0  0  0  0  0  0  0  0  0  0
  -10.8738   -2.5990   -5.9904 H   0  0  0  0  0  0  0  0  0  0  0  0
   -9.3723   -0.9271   -5.0130 H   0  0  0  0  0  0  0  0  0  0  0  0
   -6.2278    1.1254   -4.1031 H   0  0  0  0  0  0  0  0  0  0  0  0
   -7.2538    3.0416   -2.9889 H   0  0  0  0  0  0  0  0  0  0  0  0
   -9.2532    3.9516   -1.8359 H   0  0  0  0  0  0  0  0  0  0  0  0
  -10.3668    2.8675   -0.9912 H   0  0  0  0  0  0  0  0  0  0  0  0
   -8.8023    3.2478   -0.2798 H   0  0  0  0  0  0  0  0  0  0  0  0
  -10.0213    0.4422   -1.0366 H   0  0  0  0  0  0  0  0  0  0  0  0
   -9.0213   -1.4831   -2.1914 H   0  0  0  0  0  0  0  0  0  0  0  0
    1.0622   -2.7380   -2.5595 H   0  0  0  0  0  0  0  0  0  0  0  0
    2.6572   -1.8889   -4.2009 H   0  0  0  0  0  0  0  0  0  0  0  0
    3.3905   -0.1877   -5.7130 H   0  0  0  0  0  0  0  0  0  0  0  0
    2.0478    0.0946   -6.8233 H   0  0  0  0  0  0  0  0  0  0  0  0
    2.5476    1.3687   -5.7159 H   0  0  0  0  0  0  0  0  0  0  0  0
   -0.0115    1.2899   -5.1745 H   0  0  0  0  0  0  0  0  0  0  0  0
   -1.6027    0.4684   -3.5109 H   0  0  0  0  0  0  0  0  0  0  0  0
    0.8243   -1.6100   -0.2552 H   0  0  0  0  0  0  0  0  0  0  0  0
    1.4000   -3.3733    1.3303 H   0  0  0  0  0  0  0  0  0  0  0  0
    1.1519   -5.9977    1.6097 H   0  0  0  0  0  0  0  0  0  0  0  0
   -0.5129   -6.5856    1.6554 H   0  0  0  0  0  0  0  0  0  0  0  0
    0.0425   -5.3919    2.8333 H   0  0  0  0  0  0  0  0  0  0  0  0
   -2.0887   -5.5498    0.1919 H   0  0  0  0  0  0  0  0  0  0  0  0
   -2.6832   -3.7746   -1.3825 H   0  0  0  0  0  0  0  0  0  0  0  0
   -3.8370    1.8222    0.2031 H   0  0  0  0  0  0  0  0  0  0  0  0
   -5.4869    3.1985   -0.9220 H   0  0  0  0  0  0  0  0  0  0  0  0
   -5.3980    5.9931   -1.2071 H   0  0  0  0  0  0  0  0  0  0  0  0
   -6.8558    4.9919   -1.4677 H   0  0  0  0  0  0  0  0  0  0  0  0
   -6.6649    6.5295   -2.3368 H   0  0  0  0  0  0  0  0  0  0  0  0
   -2.6311    4.1877   -3.9442 H   0  0  0  0  0  0  0  0  0  0  0  0
   -0.9587    2.7705   -2.8170 H   0  0  0  0  0  0  0  0  0  0  0  0
   -0.7041    3.9323    0.0674 H   0  0  0  0  0  0  0  0  0  0  0  0
    1.5583    4.8677    0.3819 H   0  0  0  0  0  0  0  0  0  0  0  0
    6.1938    2.7792    0.5985 H   0  0  0  0  0  0  0  0  0  0  0  0
    5.4243    2.0168   -0.8096 H   0  0  0  0  0  0  0  0  0  0  0  0
    4.8641    1.6239    0.8480 H   0  0  0  0  0  0  0  0  0  0  0  0
    3.2571    1.1502   -0.8804 H   0  0  0  0  0  0  0  0  0  0  0  0
    1.0166    0.2377   -1.1946 H   0  0  0  0  0  0  0  0  0  0  0  0
   -0.9616   -2.8210    6.9701 H   0  0  0  0  0  0  0  0  0  0  0  0
   -0.1038   -2.0389    9.1415 H   0  0  0  0  0  0  0  0  0  0  0  0
    1.9661    1.9663    8.7474 H   0  0  0  0  0  0  0  0  0  0  0  0
    2.1898    2.2353   10.4911 H   0  0  0  0  0  0  0  0  0  0  0  0
    0.7316    2.8608    9.6928 H   0  0  0  0  0  0  0  0  0  0  0  0
   -0.3200    2.0007    7.7681 H   0  0  0  0  0  0  0  0  0  0  0  0
   -1.1819    1.2291    5.6237 H   0  0  0  0  0  0  0  0  0  0  0  0
   -1.1490   -3.2180    3.0080 H   0  0  0  0  0  0  0  0  0  0  0  0
   -2.6439   -5.1030    2.6764 H   0  0  0  0  0  0  0  0  0  0  0  0
   -3.7449   -7.1372    2.5696 H   0  0  0  0  0  0  0  0  0  0  0  0
   -4.7146   -5.8446    1.7875 H   0  0  0  0  0  0  0  0  0  0  0  0
   -5.4926   -7.3480    2.3364 H   0  0  0  0  0  0  0  0  0  0  0  0
   -5.0110   -3.8207    6.0005 H   0  0  0  0  0  0  0  0  0  0  0  0
   -3.5081   -1.8935    6.3175 H   0  0  0  0  0  0  0  0  0  0  0  0
    1.7935    2.1767    4.2100 H   0  0  0  0  0  0  0  0  0  0  0  0
    2.9449    3.9574    4.9605 H   0  0  0  0  0  0  0  0  0  0  0  0
    4.1337    4.5582    6.1272 H   0  0  0  0  0  0  0  0  0  0  0  0
    5.9672    3.4693    4.8393 H   0  0  0  0  0  0  0  0  0  0  0  0
    4.7871    2.8297    3.6862 H   0  0  0  0  0  0  0  0  0  0  0  0
    5.0540    4.5715    3.7968 H   0  0  0  0  0  0  0  0  0  0  0  0
    2.8882   -1.7100    7.1261 H   0  0  0  0  0  0  0  0  0  0  0  0
    1.2376   -1.9186    5.3129 H   0  0  0  0  0  0  0  0  0  0  0  0
    4.7510   -0.7806    8.9713 H   0  0  0  0  0  0  0  0  0  0  0  0
    6.5417    0.4954   10.0910 H   0  0  0  0  0  0  0  0  0  0  0  0
    5.8408    3.8735    7.5505 H   0  0  0  0  0  0  0  0  0  0  0  0
    7.6261    2.6263   10.5090 H   0  0  0  0  0  0  0  0  0  0  0  0
   10.2099    4.3757    5.1275 H   0  0  0  0  0  0  0  0  0  0  0  0
   12.1661    5.5141    9.6596 H   0  0  0  0  0  0  0  0  0  0  0  0
   14.6111    5.5368    7.2485 H   0  0  0  0  0  0  0  0  0  0  0  0
   14.5194    7.9946    7.6363 H   0  0  0  0  0  0  0  0  0  0  0  0
   11.9915    8.6602    7.6116 H   0  0  0  0  0  0  0  0  0  0  0  0
   11.0009    8.0768    5.2165 H   0  0  0  0  0  0  0  0  0  0  0  0
   12.9197    7.0499    3.7654 H   0  0  0  0  0  0  0  0  0  0  0  0
   15.2145    7.1776    5.1666 H   0  0  0  0  0  0  0  0  0  0  0  0
   14.4204    8.7712    5.1059 H   0  0  0  0  0  0  0  0  0  0  0  0
   13.6463    4.9678    4.9223 H   0  0  0  0  0  0  0  0  0  0  0  0
  1  2  2  0  0  0  0
  2  3  1  0  0  0  0
  3  4  2  0  0  0  0
  3  5  1  0  0  0  0
  5  6  2  0  0  0  0
  6  7  1  0  0  0  0
  7  8  2  0  0  0  0
  8  9  1  0  0  0  0
  9 10  2  0  0  0  0
 10 11  1  0  0  0  0
 11 12  2  0  0  0  0
 12 13  1  0  0  0  0
 13 14  3  0  0  0  0
 12 15  1  0  0  0  0
 15 16  3  0  0  0  0
  8 17  1  0  0  0  0
 17 18  1  0  0  0  0
 18 19  1  0  0  0  0
 19 20  2  0  0  0  0
 20 21  1  0  0  0  0
 21 22  1  0  0  0  0
 21 23  1  0  0  0  0
  1 24  1  0  0  0  0
 24 25  2  0  0  0  0
 25 26  1  0  0  0  0
 26 27  1  0  0  0  0
 27 28  2  0  0  0  0
 28 29  1  0  0  0  0
 29 30  2  0  0  0  0
 30 31  1  0  0  0  0
 30 32  1  0  0  0  0
 32 33  2  0  0  0  0
 26 34  1  0  0  0  0
 34 35  2  0  0  0  0
 35 36  1  0  0  0  0
 36 37  2  0  0  0  0
 37 38  1  0  0  0  0
 37 39  1  0  0  0  0
 39 40  2  0  0  0  0
 25 41  1  0  0  0  0
 41 42  1  0  0  0  0
 42 43  1  0  0  0  0
 43 44  2  0  0  0  0
 44 45  1  0  0  0  0
 45 46  1  0  0  0  0
 46 47  2  0  0  0  0
 47 48  1  0  0  0  0
 48 49  2  0  0  0  0
 49 50  1  0  0  0  0
 49 51  1  0  0  0  0
 51 52  2  0  0  0  0
 45 53  1  0  0  0  0
 53 54  2  0  0  0  0
 54 55  1  0  0  0  0
 55 56  2  0  0  0  0
 56 57  1  0  0  0  0
 56 58  1  0  0  0  0
 58 59  2  0  0  0  0
 44 60  1  0  0  0  0
 60 61  1  0  0  0  0
 43 62  1  0  0  0  0
 62 63  2  0  0  0  0
 63 64  1  0  0  0  0
 64 65  1  0  0  0  0
 65 66  2  0  0  0  0
 66 67  1  0  0  0  0
 67 68  2  0  0  0  0
 68 69  1  0  0  0  0
 69 70  1  0  0  0  0
 68 71  1  0  0  0  0
 71 72  2  0  0  0  0
 64 73  1  0  0  0  0
 73 74  2  0  0  0  0
 74 75  1  0  0  0  0
 75 76  2  0  0  0  0
 76 77  1  0  0  0  0
 77 78  1  0  0  0  0
 76 79  1  0  0  0  0
 79 80  2  0  0  0  0
 63 81  1  0  0  0  0
 81 82  1  0  0  0  0
 82 83  1  0  0  0  0
 83 84  2  0  0  0  0
 84 85  1  0  0  0  0
 85 86  1  0  0  0  0
 86 87  2  0  0  0  0
 87 88  1  0  0  0  0
 88 89  2  0  0  0  0
 89 90  1  0  0  0  0
 90 91  1  0  0  0  0
 89 92  1  0  0  0  0
 92 93  2  0  0  0  0
 85 94  1  0  0  0  0
 94 95  2  0  0  0  0
 95 96  1  0  0  0  0
 96 97  2  0  0  0  0
 97 98  1  0  0  0  0
 98 99  1  0  0  0  0
 97100  1  0  0  0  0
100101  2  0  0  0  0
 84102  1  0  0  0  0
102103  1  0  0  0  0
 83104  1  0  0  0  0
104105  2  0  0  0  0
105106  1  0  0  0  0
106107  1  0  0  0  0
107108  1  0  0  0  0
108109  1  0  0  0  0
107110  1  0  0  0  0
110111  2  0  0  0  0
111112  1  0  0  0  0
112113  1  0  0  0  0
113114  2  0  0  0  0
111115  1  0  0  0  0
115116  2  0  0  0  0
116117  1  0  0  0  0
117118  2  0  0  0  0
117119  1  0  0  0  0
119120  2  0  0  0  0
120121  1  0  0  0  0
121122  2  0  0  0  0
121123  1  0  0  0  0
123124  2  0  0  0  0
124125  1  0  0  0  0
125126  2  0  0  0  0
126127  1  0  0  0  0
127128  2  0  0  0  0
128129  1  0  0  0  0
129130  2  0  0  0  0
130131  1  0  0  0  0
131132  3  0  0  0  0
130133  1  0  0  0  0
133134  3  0  0  0  0
126135  1  0  0  0  0
135136  1  0  0  0  0
136137  1  0  0  0  0
137138  2  0  0  0  0
138139  1  0  0  0  0
139140  1  0  0  0  0
139141  1  0  0  0  0
 11  2  1  0  0  0  0
 23 17  1  0  0  0  0
 61 24  1  0  0  0  0
103 62  1  0  0  0  0
114104  1  0  0  0  0
129120  1  0  0  0  0
141135  1  0  0  0  0
 10  5  1  0  0  0  0
 22 18  1  0  0  0  0
 33 27  1  0  0  0  0
 40 34  1  0  0  0  0
 60 41  2  0  0  0  0
 72 65  1  0  0  0  0
 80 73  1  0  0  0  0
102 81  2  0  0  0  0
112106  2  0  0  0  0
128123  1  0  0  0  0
140136  1  0  0  0  0
 23  7  1  0  0  0  0
 52 46  1  0  0  0  0
 59 53  1  0  0  0  0
 93 86  1  0  0  0  0
101 94  1  0  0  0  0
118110  1  0  0  0  0
141125  1  0  0  0  0
  1142  1  0  0  0  0
  6143  1  0  0  0  0
  9144  1  0  0  0  0
 17145  1  0  0  0  0
 18146  1  0  0  0  0
 19147  1  0  0  0  0
 20148  1  0  0  0  0
 21149  1  0  0  0  0
 22150  1  0  0  0  0
 22151  1  0  0  0  0
 23152  1  0  0  0  0
 28153  1  0  0  0  0
 29154  1  0  0  0  0
 31155  1  0  0  0  0
 31156  1  0  0  0  0
 31157  1  0  0  0  0
 32158  1  0  0  0  0
 33159  1  0  0  0  0
 35160  1  0  0  0  0
 36161  1  0  0  0  0
 38162  1  0  0  0  0
 38163  1  0  0  0  0
 38164  1  0  0  0  0
 39165  1  0  0  0  0
 40166  1  0  0  0  0
 47167  1  0  0  0  0
 48168  1  0  0  0  0
 50169  1  0  0  0  0
 50170  1  0  0  0  0
 50171  1  0  0  0  0
 51172  1  0  0  0  0
 52173  1  0  0  0  0
 54174  1  0  0  0  0
 55175  1  0  0  0  0
 57176  1  0  0  0  0
 57177  1  0  0  0  0
 57178  1  0  0  0  0
 58179  1  0  0  0  0
 59180  1  0  0  0  0
 66181  1  0  0  0  0
 67182  1  0  0  0  0
 70183  1  0  0  0  0
 70184  1  0  0  0  0
 70185  1  0  0  0  0
 71186  1  0  0  0  0
 72187  1  0  0  0  0
 74188  1  0  0  0  0
 75189  1  0  0  0  0
 78190  1  0  0  0  0
 78191  1  0  0  0  0
 78192  1  0  0  0  0
 79193  1  0  0  0  0
 80194  1  0  0  0  0
 87195  1  0  0  0  0
 88196  1  0  0  0  0
 91197  1  0  0  0  0
 91198  1  0  0  0  0
 91199  1  0  0  0  0
 92200  1  0  0  0  0
 93201  1  0  0  0  0
 95202  1  0  0  0  0
 96203  1  0  0  0  0
 99204  1  0  0  0  0
 99205  1  0  0  0  0
 99206  1  0  0  0  0
100207  1  0  0  0  0
101208  1  0  0  0  0
105209  1  0  0  0  0
108210  1  0  0  0  0
108211  1  0  0  0  0
109212  1  0  0  0  0
109213  1  0  0  0  0
109214  1  0  0  0  0
113215  1  0  0  0  0
114216  1  0  0  0  0
115217  1  0  0  0  0
116218  1  0  0  0  0
118219  1  0  0  0  0
119220  1  0  0  0  0
124221  1  0  0  0  0
127222  1  0  0  0  0
135223  1  0  0  0  0
136224  1  0  0  0  0
137225  1  0  0  0  0
138226  1  0  0  0  0
139227  1  0  0  0  0
140228  1  0  0  0  0
140229  1  0  0  0  0
141230  1  0  0  0  0
M  END
