
  xtb     02142217433D
 energy: -365.631134907574 gnorm: 0.000398238502 xtb: 6.4.1 (unknown)
230253  0     0  0            999 V2000
    4.6406    4.5535   -3.5610 C   0  0  0  0  0  0  0  0  0  0  0  0
    5.7551    4.6837   -4.3598 C   0  0  0  0  0  0  0  0  0  0  0  0
    6.2392    3.7091   -5.3393 C   0  0  0  0  0  0  0  0  0  0  0  0
    5.7851    2.6039   -5.5852 O   0  0  0  0  0  0  0  0  0  0  0  0
    7.3892    4.3372   -6.0152 C   0  0  0  0  0  0  0  0  0  0  0  0
    8.1836    3.7771   -7.0125 C   0  0  0  0  0  0  0  0  0  0  0  0
    9.1959    4.5990   -7.4471 C   0  0  0  0  0  0  0  0  0  0  0  0
    9.4018    5.8829   -6.9272 C   0  0  0  0  0  0  0  0  0  0  0  0
    8.6255    6.4459   -5.9414 C   0  0  0  0  0  0  0  0  0  0  0  0
    7.5886    5.6269   -5.4856 C   0  0  0  0  0  0  0  0  0  0  0  0
    6.5935    5.8558   -4.4366 C   0  0  0  0  0  0  0  0  0  0  0  0
    6.5220    6.9809   -3.6490 C   0  0  0  0  0  0  0  0  0  0  0  0
    5.6851    7.1467   -2.5297 C   0  0  0  0  0  0  0  0  0  0  0  0
    5.0770    7.3528   -1.5753 N   0  0  0  0  0  0  0  0  0  0  0  0
    7.3146    8.1318   -3.8264 C   0  0  0  0  0  0  0  0  0  0  0  0
    7.9071    9.1121   -3.9183 N   0  0  0  0  0  0  0  0  0  0  0  0
   10.5890    6.1424   -7.8216 C   0  0  0  0  0  0  0  0  0  0  0  0
   10.3468    7.0504   -9.0454 C   0  0  0  0  0  0  0  0  0  0  0  0
   11.5050    6.7357   -9.9644 C   0  0  0  0  0  0  0  0  0  0  0  0
   11.3098    5.5194  -10.4575 C   0  0  0  0  0  0  0  0  0  0  0  0
   10.0163    4.9917   -9.8801 C   0  0  0  0  0  0  0  0  0  0  0  0
    9.2226    6.2999   -9.7711 C   0  0  0  0  0  0  0  0  0  0  0  0
   10.3592    4.7101   -8.4019 C   0  0  0  0  0  0  0  0  0  0  0  0
    3.8072    3.4565   -3.3489 C   0  0  0  0  0  0  0  0  0  0  0  0
    2.7236    3.4689   -2.4337 C   0  0  0  0  0  0  0  0  0  0  0  0
    2.2098    4.5736   -1.8098 N   0  0  0  0  0  0  0  0  0  0  0  0
    1.6862    4.4411   -0.5089 C   0  0  0  0  0  0  0  0  0  0  0  0
    2.3598    3.6828    0.4458 C   0  0  0  0  0  0  0  0  0  0  0  0
    1.8603    3.5798    1.7292 C   0  0  0  0  0  0  0  0  0  0  0  0
    0.6927    4.2357    2.0989 C   0  0  0  0  0  0  0  0  0  0  0  0
    0.1921    4.1862    3.5082 C   0  0  0  0  0  0  0  0  0  0  0  0
    0.0203    4.9786    1.1346 C   0  0  0  0  0  0  0  0  0  0  0  0
    0.5016    5.0801   -0.1548 C   0  0  0  0  0  0  0  0  0  0  0  0
    2.1061    5.8173   -2.4608 C   0  0  0  0  0  0  0  0  0  0  0  0
    2.2702    7.0000   -1.7436 C   0  0  0  0  0  0  0  0  0  0  0  0
    2.1685    8.2164   -2.3879 C   0  0  0  0  0  0  0  0  0  0  0  0
    1.9137    8.2899   -3.7524 C   0  0  0  0  0  0  0  0  0  0  0  0
    1.8460    9.6193   -4.4384 C   0  0  0  0  0  0  0  0  0  0  0  0
    1.7348    7.1041   -4.4552 C   0  0  0  0  0  0  0  0  0  0  0  0
    1.8190    5.8802   -3.8223 C   0  0  0  0  0  0  0  0  0  0  0  0
    2.2408    2.1656   -2.2197 C   0  0  0  0  0  0  0  0  0  0  0  0
    0.9631    1.5055   -1.2646 S   0  0  0  0  0  0  0  0  0  0  0  0
    1.3389   -0.1236   -1.8505 C   0  0  0  0  0  0  0  0  0  0  0  0
    2.3913   -0.1339   -2.7426 C   0  0  0  0  0  0  0  0  0  0  0  0
    2.9987   -1.2377   -3.2967 N   0  0  0  0  0  0  0  0  0  0  0  0
    4.3647   -1.1562   -3.6397 C   0  0  0  0  0  0  0  0  0  0  0  0
    5.2749   -0.5415   -2.7848 C   0  0  0  0  0  0  0  0  0  0  0  0
    6.6039   -0.4418   -3.1404 C   0  0  0  0  0  0  0  0  0  0  0  0
    7.0648   -0.9539   -4.3461 C   0  0  0  0  0  0  0  0  0  0  0  0
    8.5046   -0.8059   -4.7302 C   0  0  0  0  0  0  0  0  0  0  0  0
    6.1529   -1.5768   -5.1876 C   0  0  0  0  0  0  0  0  0  0  0  0
    4.8188   -1.6771   -4.8467 C   0  0  0  0  0  0  0  0  0  0  0  0
    2.3162   -2.4154   -3.6361 C   0  0  0  0  0  0  0  0  0  0  0  0
    1.0712   -2.3937   -4.2537 C   0  0  0  0  0  0  0  0  0  0  0  0
    0.4995   -3.5717   -4.7019 C   0  0  0  0  0  0  0  0  0  0  0  0
    1.1506   -4.7882   -4.5512 C   0  0  0  0  0  0  0  0  0  0  0  0
    0.5937   -6.0609   -5.1122 C   0  0  0  0  0  0  0  0  0  0  0  0
    2.3733   -4.8053   -3.8866 C   0  0  0  0  0  0  0  0  0  0  0  0
    2.9509   -3.6399   -3.4327 C   0  0  0  0  0  0  0  0  0  0  0  0
    2.8843    1.1873   -2.9602 C   0  0  0  0  0  0  0  0  0  0  0  0
    4.0973    1.8420   -4.0020 S   0  0  0  0  0  0  0  0  0  0  0  0
    0.5180   -1.1318   -1.2200 C   0  0  0  0  0  0  0  0  0  0  0  0
    0.5481   -1.3301    0.1450 C   0  0  0  0  0  0  0  0  0  0  0  0
    1.5463   -0.8395    0.9801 N   0  0  0  0  0  0  0  0  0  0  0  0
    1.1487   -0.3247    2.2205 C   0  0  0  0  0  0  0  0  0  0  0  0
    1.8797   -0.5671    3.3831 C   0  0  0  0  0  0  0  0  0  0  0  0
    1.4142   -0.1213    4.6010 C   0  0  0  0  0  0  0  0  0  0  0  0
    0.2020    0.5562    4.6904 C   0  0  0  0  0  0  0  0  0  0  0  0
   -0.3250    1.0846    6.2945 S   0  0  0  0  0  0  0  0  0  0  0  0
   -2.1362    1.0759    6.1499 C   0  0  0  0  0  0  0  0  0  0  0  0
   -0.5137    0.8279    3.5327 C   0  0  0  0  0  0  0  0  0  0  0  0
   -0.0369    0.4036    2.3102 C   0  0  0  0  0  0  0  0  0  0  0  0
    2.8919   -1.0716    0.6823 C   0  0  0  0  0  0  0  0  0  0  0  0
    3.8649   -0.1595    1.0818 C   0  0  0  0  0  0  0  0  0  0  0  0
    5.2065   -0.4164    0.8716 C   0  0  0  0  0  0  0  0  0  0  0  0
    5.5989   -1.5932    0.2478 C   0  0  0  0  0  0  0  0  0  0  0  0
    7.2758   -2.0527   -0.0581 S   0  0  0  0  0  0  0  0  0  0  0  0
    8.2396   -0.7209    0.7138 C   0  0  0  0  0  0  0  0  0  0  0  0
    4.6255   -2.4876   -0.1929 C   0  0  0  0  0  0  0  0  0  0  0  0
    3.2895   -2.2318    0.0154 C   0  0  0  0  0  0  0  0  0  0  0  0
   -0.5859   -2.0417    0.5982 C   0  0  0  0  0  0  0  0  0  0  0  0
   -1.1593   -2.4781    2.1623 S   0  0  0  0  0  0  0  0  0  0  0  0
   -2.6654   -3.0593    1.4642 C   0  0  0  0  0  0  0  0  0  0  0  0
   -2.7088   -2.9011    0.0828 C   0  0  0  0  0  0  0  0  0  0  0  0
   -3.8253   -3.1205   -0.7048 N   0  0  0  0  0  0  0  0  0  0  0  0
   -3.6396   -3.5618   -2.0212 C   0  0  0  0  0  0  0  0  0  0  0  0
   -4.3877   -3.0315   -3.0683 C   0  0  0  0  0  0  0  0  0  0  0  0
   -4.2052   -3.4787   -4.3615 C   0  0  0  0  0  0  0  0  0  0  0  0
   -3.2701   -4.4692   -4.6283 C   0  0  0  0  0  0  0  0  0  0  0  0
   -2.9490   -5.1152   -6.2415 S   0  0  0  0  0  0  0  0  0  0  0  0
   -4.1768   -4.3008   -7.2989 C   0  0  0  0  0  0  0  0  0  0  0  0
   -2.5181   -5.0011   -3.5828 C   0  0  0  0  0  0  0  0  0  0  0  0
   -2.6947   -4.5502   -2.2954 C   0  0  0  0  0  0  0  0  0  0  0  0
   -5.1011   -2.7360   -0.2698 C   0  0  0  0  0  0  0  0  0  0  0  0
   -5.2811   -1.6270    0.5512 C   0  0  0  0  0  0  0  0  0  0  0  0
   -6.5445   -1.2513    0.9649 C   0  0  0  0  0  0  0  0  0  0  0  0
   -7.6557   -1.9786    0.5607 C   0  0  0  0  0  0  0  0  0  0  0  0
   -9.3188   -1.5789    0.9968 S   0  0  0  0  0  0  0  0  0  0  0  0
   -9.1443   -0.2379    2.2079 C   0  0  0  0  0  0  0  0  0  0  0  0
   -7.4804   -3.0941   -0.2561 C   0  0  0  0  0  0  0  0  0  0  0  0
   -6.2214   -3.4701   -0.6643 C   0  0  0  0  0  0  0  0  0  0  0  0
   -1.4966   -2.3459   -0.4006 C   0  0  0  0  0  0  0  0  0  0  0  0
   -0.9150   -1.8452   -1.9565 S   0  0  0  0  0  0  0  0  0  0  0  0
   -3.6364   -3.5396    2.3815 C   0  0  0  0  0  0  0  0  0  0  0  0
   -4.6652   -4.4510    2.2008 C   0  0  0  0  0  0  0  0  0  0  0  0
   -5.3683   -4.7092    3.3694 C   0  0  0  0  0  0  0  0  0  0  0  0
   -6.4968   -5.6498    3.4799 C   0  0  0  0  0  0  0  0  0  0  0  0
   -6.2516   -7.0250    3.4839 C   0  0  0  0  0  0  0  0  0  0  0  0
   -7.3169   -7.8974    3.6339 C   0  0  0  0  0  0  0  0  0  0  0  0
   -8.6171   -7.4358    3.7784 C   0  0  0  0  0  0  0  0  0  0  0  0
   -9.7516   -8.3882    3.9926 C   0  0  0  0  0  0  0  0  0  0  0  0
   -8.8411   -6.0677    3.7594 C   0  0  0  0  0  0  0  0  0  0  0  0
   -7.7987   -5.1663    3.6191 C   0  0  0  0  0  0  0  0  0  0  0  0
   -8.0753   -3.6924    3.6393 C   0  0  0  0  0  0  0  0  0  0  0  0
   -4.8499   -7.5450    3.3587 C   0  0  0  0  0  0  0  0  0  0  0  0
   -4.8846   -3.9931    4.4796 C   0  0  0  0  0  0  0  0  0  0  0  0
   -3.5490   -2.9703    4.0168 S   0  0  0  0  0  0  0  0  0  0  0  0
   -5.4009   -4.1671    5.7671 C   0  0  0  0  0  0  0  0  0  0  0  0
   -5.0360   -3.5773    6.9531 C   0  0  0  0  0  0  0  0  0  0  0  0
   -4.0036   -2.5544    7.1224 C   0  0  0  0  0  0  0  0  0  0  0  0
   -3.3412   -2.0112    6.2510 O   0  0  0  0  0  0  0  0  0  0  0  0
   -3.9255   -2.2727    8.5644 C   0  0  0  0  0  0  0  0  0  0  0  0
   -3.0559   -1.3907    9.2009 C   0  0  0  0  0  0  0  0  0  0  0  0
   -3.2130   -1.3403   10.5651 C   0  0  0  0  0  0  0  0  0  0  0  0
   -4.1654   -2.1104   11.2449 C   0  0  0  0  0  0  0  0  0  0  0  0
   -5.0276   -2.9861   10.6274 C   0  0  0  0  0  0  0  0  0  0  0  0
   -4.8840   -3.0555    9.2394 C   0  0  0  0  0  0  0  0  0  0  0  0
   -5.6003   -3.8674    8.2539 C   0  0  0  0  0  0  0  0  0  0  0  0
   -6.6240   -4.7365    8.5382 C   0  0  0  0  0  0  0  0  0  0  0  0
   -7.1302   -4.9759    9.8324 C   0  0  0  0  0  0  0  0  0  0  0  0
   -7.5987   -5.2244   10.8514 N   0  0  0  0  0  0  0  0  0  0  0  0
   -7.3403   -5.5158    7.6055 C   0  0  0  0  0  0  0  0  0  0  0  0
   -7.9890   -6.1836    6.9314 N   0  0  0  0  0  0  0  0  0  0  0  0
   -3.7572   -1.5697   12.5925 C   0  0  0  0  0  0  0  0  0  0  0  0
   -2.8838   -2.4735   13.4974 C   0  0  0  0  0  0  0  0  0  0  0  0
   -2.1198   -3.3927   12.5768 C   0  0  0  0  0  0  0  0  0  0  0  0
   -1.2186   -2.6633   11.9327 C   0  0  0  0  0  0  0  0  0  0  0  0
   -1.3566   -1.2375   12.4063 C   0  0  0  0  0  0  0  0  0  0  0  0
   -1.7737   -1.4762   13.8663 C   0  0  0  0  0  0  0  0  0  0  0  0
   -2.6961   -0.7112   11.8343 C   0  0  0  0  0  0  0  0  0  0  0  0
    4.3752    5.4262   -2.9779 H   0  0  0  0  0  0  0  0  0  0  0  0
    7.9910    2.7806   -7.3788 H   0  0  0  0  0  0  0  0  0  0  0  0
    8.8026    7.4332   -5.5492 H   0  0  0  0  0  0  0  0  0  0  0  0
   11.5284    6.3540   -7.3140 H   0  0  0  0  0  0  0  0  0  0  0  0
   10.1796    8.0977   -8.8090 H   0  0  0  0  0  0  0  0  0  0  0  0
   12.3475    7.3857  -10.1122 H   0  0  0  0  0  0  0  0  0  0  0  0
   11.9567    4.9505  -11.0995 H   0  0  0  0  0  0  0  0  0  0  0  0
    9.5479    4.1635  -10.4052 H   0  0  0  0  0  0  0  0  0  0  0  0
    9.0027    6.7307  -10.7466 H   0  0  0  0  0  0  0  0  0  0  0  0
    8.3032    6.2140   -9.1950 H   0  0  0  0  0  0  0  0  0  0  0  0
   11.1462    3.9676   -8.2815 H   0  0  0  0  0  0  0  0  0  0  0  0
    3.2831    3.1895    0.1780 H   0  0  0  0  0  0  0  0  0  0  0  0
    2.3918    2.9929    2.4647 H   0  0  0  0  0  0  0  0  0  0  0  0
    0.5694    3.3093    4.0273 H   0  0  0  0  0  0  0  0  0  0  0  0
    0.5284    5.0713    4.0497 H   0  0  0  0  0  0  0  0  0  0  0  0
   -0.8954    4.1766    3.5327 H   0  0  0  0  0  0  0  0  0  0  0  0
   -0.8960    5.4869    1.3982 H   0  0  0  0  0  0  0  0  0  0  0  0
   -0.0338    5.6575   -0.8938 H   0  0  0  0  0  0  0  0  0  0  0  0
    2.4908    6.9602   -0.6888 H   0  0  0  0  0  0  0  0  0  0  0  0
    2.3106    9.1255   -1.8234 H   0  0  0  0  0  0  0  0  0  0  0  0
    2.8272   10.0938   -4.4307 H   0  0  0  0  0  0  0  0  0  0  0  0
    1.1542   10.2823   -3.9215 H   0  0  0  0  0  0  0  0  0  0  0  0
    1.5232    9.5112   -5.4708 H   0  0  0  0  0  0  0  0  0  0  0  0
    1.5189    7.1367   -5.5135 H   0  0  0  0  0  0  0  0  0  0  0  0
    1.6702    4.9678   -4.3810 H   0  0  0  0  0  0  0  0  0  0  0  0
    4.9300   -0.1352   -1.8460 H   0  0  0  0  0  0  0  0  0  0  0  0
    7.2982    0.0462   -2.4722 H   0  0  0  0  0  0  0  0  0  0  0  0
    9.1534   -1.0298   -3.8853 H   0  0  0  0  0  0  0  0  0  0  0  0
    8.6993    0.2212   -5.0405 H   0  0  0  0  0  0  0  0  0  0  0  0
    8.7590   -1.4667   -5.5550 H   0  0  0  0  0  0  0  0  0  0  0  0
    6.4868   -1.9781   -6.1335 H   0  0  0  0  0  0  0  0  0  0  0  0
    4.1198   -2.1515   -5.5196 H   0  0  0  0  0  0  0  0  0  0  0  0
    0.5705   -1.4499   -4.4155 H   0  0  0  0  0  0  0  0  0  0  0  0
   -0.4566   -3.5371   -5.2022 H   0  0  0  0  0  0  0  0  0  0  0  0
    1.3212   -6.5232   -5.7785 H   0  0  0  0  0  0  0  0  0  0  0  0
    0.3843   -6.7737   -4.3145 H   0  0  0  0  0  0  0  0  0  0  0  0
   -0.3190   -5.8774   -5.6729 H   0  0  0  0  0  0  0  0  0  0  0  0
    2.8853   -5.7457   -3.7405 H   0  0  0  0  0  0  0  0  0  0  0  0
    3.9140   -3.6581   -2.9452 H   0  0  0  0  0  0  0  0  0  0  0  0
    2.8001   -1.1289    3.3313 H   0  0  0  0  0  0  0  0  0  0  0  0
    1.9746   -0.3177    5.5022 H   0  0  0  0  0  0  0  0  0  0  0  0
   -2.5118    1.2807    7.1482 H   0  0  0  0  0  0  0  0  0  0  0  0
   -2.4657    0.0947    5.8193 H   0  0  0  0  0  0  0  0  0  0  0  0
   -2.4681    1.8590    5.4749 H   0  0  0  0  0  0  0  0  0  0  0  0
   -1.4435    1.3718    3.5716 H   0  0  0  0  0  0  0  0  0  0  0  0
   -0.5888    0.6343    1.4108 H   0  0  0  0  0  0  0  0  0  0  0  0
    3.5631    0.7539    1.5726 H   0  0  0  0  0  0  0  0  0  0  0  0
    5.9319    0.3113    1.1988 H   0  0  0  0  0  0  0  0  0  0  0  0
    8.0081   -0.6612    1.7732 H   0  0  0  0  0  0  0  0  0  0  0  0
    8.0436    0.2235    0.2140 H   0  0  0  0  0  0  0  0  0  0  0  0
    9.2806   -0.9982    0.5798 H   0  0  0  0  0  0  0  0  0  0  0  0
    4.9377   -3.3955   -0.6855 H   0  0  0  0  0  0  0  0  0  0  0  0
    2.5468   -2.9409   -0.3189 H   0  0  0  0  0  0  0  0  0  0  0  0
   -5.1139   -2.2580   -2.8680 H   0  0  0  0  0  0  0  0  0  0  0  0
   -4.7955   -3.0397   -5.1494 H   0  0  0  0  0  0  0  0  0  0  0  0
   -3.9944   -3.2302   -7.3271 H   0  0  0  0  0  0  0  0  0  0  0  0
   -5.1785   -4.5236   -6.9427 H   0  0  0  0  0  0  0  0  0  0  0  0
   -4.0345   -4.7235   -8.2886 H   0  0  0  0  0  0  0  0  0  0  0  0
   -1.8013   -5.7777   -3.7898 H   0  0  0  0  0  0  0  0  0  0  0  0
   -2.1116   -4.9705   -1.4895 H   0  0  0  0  0  0  0  0  0  0  0  0
   -4.4273   -1.0431    0.8607 H   0  0  0  0  0  0  0  0  0  0  0  0
   -6.6458   -0.3814    1.5938 H   0  0  0  0  0  0  0  0  0  0  0  0
   -8.5237   -0.5680    3.0358 H   0  0  0  0  0  0  0  0  0  0  0  0
  -10.1500   -0.0307    2.5601 H   0  0  0  0  0  0  0  0  0  0  0  0
   -8.7335    0.6474    1.7312 H   0  0  0  0  0  0  0  0  0  0  0  0
   -8.3452   -3.6638   -0.5586 H   0  0  0  0  0  0  0  0  0  0  0  0
   -6.0947   -4.3387   -1.2934 H   0  0  0  0  0  0  0  0  0  0  0  0
   -4.8838   -4.9285    1.2629 H   0  0  0  0  0  0  0  0  0  0  0  0
   -7.1266   -8.9613    3.6515 H   0  0  0  0  0  0  0  0  0  0  0  0
   -9.9544   -8.4707    5.0604 H   0  0  0  0  0  0  0  0  0  0  0  0
  -10.6565   -8.0316    3.5054 H   0  0  0  0  0  0  0  0  0  0  0  0
   -9.5098   -9.3785    3.6140 H   0  0  0  0  0  0  0  0  0  0  0  0
   -9.8478   -5.6922    3.8721 H   0  0  0  0  0  0  0  0  0  0  0  0
   -7.3361   -3.1493    3.0534 H   0  0  0  0  0  0  0  0  0  0  0  0
   -9.0656   -3.4892    3.2390 H   0  0  0  0  0  0  0  0  0  0  0  0
   -8.0409   -3.3191    4.6642 H   0  0  0  0  0  0  0  0  0  0  0  0
   -4.8257   -8.6205    3.5140 H   0  0  0  0  0  0  0  0  0  0  0  0
   -4.1977   -7.0719    4.0922 H   0  0  0  0  0  0  0  0  0  0  0  0
   -4.4460   -7.3300    2.3698 H   0  0  0  0  0  0  0  0  0  0  0  0
   -6.1971   -4.9013    5.8066 H   0  0  0  0  0  0  0  0  0  0  0  0
   -2.3294   -0.8234    8.6406 H   0  0  0  0  0  0  0  0  0  0  0  0
   -5.7510   -3.5729   11.1680 H   0  0  0  0  0  0  0  0  0  0  0  0
   -4.5313   -1.0476   13.1516 H   0  0  0  0  0  0  0  0  0  0  0  0
   -3.4215   -2.9495   14.3129 H   0  0  0  0  0  0  0  0  0  0  0  0
   -2.3455   -4.4353   12.4500 H   0  0  0  0  0  0  0  0  0  0  0  0
   -0.5407   -2.9740   11.1594 H   0  0  0  0  0  0  0  0  0  0  0  0
   -0.5037   -0.5879   12.2281 H   0  0  0  0  0  0  0  0  0  0  0  0
   -0.9822   -1.9284   14.4620 H   0  0  0  0  0  0  0  0  0  0  0  0
   -2.1430   -0.5806   14.3642 H   0  0  0  0  0  0  0  0  0  0  0  0
   -2.7769    0.3724   11.8982 H   0  0  0  0  0  0  0  0  0  0  0  0
  1  2  2  0  0  0  0
  2  3  1  0  0  0  0
  3  4  2  0  0  0  0
  3  5  1  0  0  0  0
  5  6  2  0  0  0  0
  6  7  1  0  0  0  0
  7  8  2  0  0  0  0
  8  9  1  0  0  0  0
  9 10  2  0  0  0  0
 10 11  1  0  0  0  0
 11 12  2  0  0  0  0
 12 13  1  0  0  0  0
 13 14  3  0  0  0  0
 12 15  1  0  0  0  0
 15 16  3  0  0  0  0
  8 17  1  0  0  0  0
 17 18  1  0  0  0  0
 18 19  1  0  0  0  0
 19 20  2  0  0  0  0
 20 21  1  0  0  0  0
 21 22  1  0  0  0  0
 21 23  1  0  0  0  0
  1 24  1  0  0  0  0
 24 25  2  0  0  0  0
 25 26  1  0  0  0  0
 26 27  1  0  0  0  0
 27 28  2  0  0  0  0
 28 29  1  0  0  0  0
 29 30  2  0  0  0  0
 30 31  1  0  0  0  0
 30 32  1  0  0  0  0
 32 33  2  0  0  0  0
 26 34  1  0  0  0  0
 34 35  2  0  0  0  0
 35 36  1  0  0  0  0
 36 37  2  0  0  0  0
 37 38  1  0  0  0  0
 37 39  1  0  0  0  0
 39 40  2  0  0  0  0
 25 41  1  0  0  0  0
 41 42  1  0  0  0  0
 42 43  1  0  0  0  0
 43 44  2  0  0  0  0
 44 45  1  0  0  0  0
 45 46  1  0  0  0  0
 46 47  2  0  0  0  0
 47 48  1  0  0  0  0
 48 49  2  0  0  0  0
 49 50  1  0  0  0  0
 49 51  1  0  0  0  0
 51 52  2  0  0  0  0
 45 53  1  0  0  0  0
 53 54  2  0  0  0  0
 54 55  1  0  0  0  0
 55 56  2  0  0  0  0
 56 57  1  0  0  0  0
 56 58  1  0  0  0  0
 58 59  2  0  0  0  0
 44 60  1  0  0  0  0
 60 61  1  0  0  0  0
 43 62  1  0  0  0  0
 62 63  2  0  0  0  0
 63 64  1  0  0  0  0
 64 65  1  0  0  0  0
 65 66  2  0  0  0  0
 66 67  1  0  0  0  0
 67 68  2  0  0  0  0
 68 69  1  0  0  0  0
 69 70  1  0  0  0  0
 68 71  1  0  0  0  0
 71 72  2  0  0  0  0
 64 73  1  0  0  0  0
 73 74  2  0  0  0  0
 74 75  1  0  0  0  0
 75 76  2  0  0  0  0
 76 77  1  0  0  0  0
 77 78  1  0  0  0  0
 76 79  1  0  0  0  0
 79 80  2  0  0  0  0
 63 81  1  0  0  0  0
 81 82  1  0  0  0  0
 82 83  1  0  0  0  0
 83 84  2  0  0  0  0
 84 85  1  0  0  0  0
 85 86  1  0  0  0  0
 86 87  2  0  0  0  0
 87 88  1  0  0  0  0
 88 89  2  0  0  0  0
 89 90  1  0  0  0  0
 90 91  1  0  0  0  0
 89 92  1  0  0  0  0
 92 93  2  0  0  0  0
 85 94  1  0  0  0  0
 94 95  2  0  0  0  0
 95 96  1  0  0  0  0
 96 97  2  0  0  0  0
 97 98  1  0  0  0  0
 98 99  1  0  0  0  0
 97100  1  0  0  0  0
100101  2  0  0  0  0
 84102  1  0  0  0  0
102103  1  0  0  0  0
 83104  1  0  0  0  0
104105  2  0  0  0  0
105106  1  0  0  0  0
106107  1  0  0  0  0
107108  2  0  0  0  0
108109  1  0  0  0  0
109110  2  0  0  0  0
110111  1  0  0  0  0
110112  1  0  0  0  0
112113  2  0  0  0  0
113114  1  0  0  0  0
108115  1  0  0  0  0
106116  2  0  0  0  0
116117  1  0  0  0  0
116118  1  0  0  0  0
118119  2  0  0  0  0
119120  1  0  0  0  0
120121  2  0  0  0  0
120122  1  0  0  0  0
122123  2  0  0  0  0
123124  1  0  0  0  0
124125  2  0  0  0  0
125126  1  0  0  0  0
126127  2  0  0  0  0
127128  1  0  0  0  0
128129  2  0  0  0  0
129130  1  0  0  0  0
130131  3  0  0  0  0
129132  1  0  0  0  0
132133  3  0  0  0  0
125134  1  0  0  0  0
134135  1  0  0  0  0
135136  1  0  0  0  0
136137  2  0  0  0  0
137138  1  0  0  0  0
138139  1  0  0  0  0
138140  1  0  0  0  0
 11  2  1  0  0  0  0
 23 17  1  0  0  0  0
 61 24  1  0  0  0  0
103 62  1  0  0  0  0
117104  1  0  0  0  0
128119  1  0  0  0  0
140134  1  0  0  0  0
 10  5  1  0  0  0  0
 22 18  1  0  0  0  0
 33 27  1  0  0  0  0
 40 34  1  0  0  0  0
 60 41  2  0  0  0  0
 72 65  1  0  0  0  0
 80 73  1  0  0  0  0
102 81  2  0  0  0  0
113107  1  0  0  0  0
127122  1  0  0  0  0
139135  1  0  0  0  0
 23  7  1  0  0  0  0
 52 46  1  0  0  0  0
 59 53  1  0  0  0  0
 93 86  1  0  0  0  0
101 94  1  0  0  0  0
140124  1  0  0  0  0
  1141  1  0  0  0  0
  6142  1  0  0  0  0
  9143  1  0  0  0  0
 17144  1  0  0  0  0
 18145  1  0  0  0  0
 19146  1  0  0  0  0
 20147  1  0  0  0  0
 21148  1  0  0  0  0
 22149  1  0  0  0  0
 22150  1  0  0  0  0
 23151  1  0  0  0  0
 28152  1  0  0  0  0
 29153  1  0  0  0  0
 31154  1  0  0  0  0
 31155  1  0  0  0  0
 31156  1  0  0  0  0
 32157  1  0  0  0  0
 33158  1  0  0  0  0
 35159  1  0  0  0  0
 36160  1  0  0  0  0
 38161  1  0  0  0  0
 38162  1  0  0  0  0
 38163  1  0  0  0  0
 39164  1  0  0  0  0
 40165  1  0  0  0  0
 47166  1  0  0  0  0
 48167  1  0  0  0  0
 50168  1  0  0  0  0
 50169  1  0  0  0  0
 50170  1  0  0  0  0
 51171  1  0  0  0  0
 52172  1  0  0  0  0
 54173  1  0  0  0  0
 55174  1  0  0  0  0
 57175  1  0  0  0  0
 57176  1  0  0  0  0
 57177  1  0  0  0  0
 58178  1  0  0  0  0
 59179  1  0  0  0  0
 66180  1  0  0  0  0
 67181  1  0  0  0  0
 70182  1  0  0  0  0
 70183  1  0  0  0  0
 70184  1  0  0  0  0
 71185  1  0  0  0  0
 72186  1  0  0  0  0
 74187  1  0  0  0  0
 75188  1  0  0  0  0
 78189  1  0  0  0  0
 78190  1  0  0  0  0
 78191  1  0  0  0  0
 79192  1  0  0  0  0
 80193  1  0  0  0  0
 87194  1  0  0  0  0
 88195  1  0  0  0  0
 91196  1  0  0  0  0
 91197  1  0  0  0  0
 91198  1  0  0  0  0
 92199  1  0  0  0  0
 93200  1  0  0  0  0
 95201  1  0  0  0  0
 96202  1  0  0  0  0
 99203  1  0  0  0  0
 99204  1  0  0  0  0
 99205  1  0  0  0  0
100206  1  0  0  0  0
101207  1  0  0  0  0
105208  1  0  0  0  0
109209  1  0  0  0  0
111210  1  0  0  0  0
111211  1  0  0  0  0
111212  1  0  0  0  0
112213  1  0  0  0  0
114214  1  0  0  0  0
114215  1  0  0  0  0
114216  1  0  0  0  0
115217  1  0  0  0  0
115218  1  0  0  0  0
115219  1  0  0  0  0
118220  1  0  0  0  0
123221  1  0  0  0  0
126222  1  0  0  0  0
134223  1  0  0  0  0
135224  1  0  0  0  0
136225  1  0  0  0  0
137226  1  0  0  0  0
138227  1  0  0  0  0
139228  1  0  0  0  0
139229  1  0  0  0  0
140230  1  0  0  0  0
M  END
