231

C          7.76470       -3.91090       -4.62820
C          7.51040       -5.11440       -5.24950
C          6.60860       -6.16380       -4.77490
O          5.86410       -6.13290       -3.80800
C          6.78100       -7.30460       -5.69330
C          6.13000       -8.53350       -5.63680
C          6.49550       -9.40600       -6.63410
C          7.44470       -9.08080       -7.61070
C          8.09560       -7.87100       -7.67590
C          7.73290       -6.96660       -6.67530
C          8.17410       -5.59100       -6.43810
C          9.03870       -4.88820       -7.24450
C          9.34870       -3.52090       -7.12070
N          9.62430       -2.40410       -7.12730
C          9.71650       -5.43100       -8.35340
N         10.31980       -5.80240       -9.25840
C          7.31310      -10.41700       -8.29820
C          6.49310      -10.47360       -9.61070
C          5.49920       -9.34090       -9.54420
C          4.59760       -9.64720       -8.62110
C          4.96580      -10.99270       -8.04650
C          5.57160      -11.66150       -9.29070
C          6.25240      -10.77850       -7.21100
C          7.18860       -3.33690       -3.49840
C          7.56950       -2.06350       -2.99920
N          8.64290       -1.32340       -3.42430
C          8.52900        0.07980       -3.39440
C          7.37280        0.68890       -3.87740
C          7.23730        2.06040       -3.82180
C          8.24730        2.85910       -3.29650
C          8.08690        4.34710       -3.24970
C          9.40460        2.24380       -2.83640
C          9.54980        0.87090       -2.87870
C          9.88300       -1.90460       -3.74160
C         10.68990       -1.33210       -4.72190
C         11.90960       -1.90030       -5.02960
C         12.35180       -3.04970       -4.38510
C         13.66000       -3.67390       -4.76170
C         11.54520       -3.60500       -3.39870
C         10.32970       -3.03970       -3.06910
C          6.68160       -1.63200       -2.00330
S          6.57220       -0.20800       -1.01700
C          5.15240       -0.85950       -0.19920
C          4.83880       -2.14440       -0.63550
N          3.82200       -2.94610       -0.14140
C          3.63910       -3.13240        1.23180
C          4.68050       -2.93930        2.13590
C          4.46420       -3.09470        3.49140
C          3.21770       -3.45460        3.98430
C          2.97380       -3.60870        5.45450
C          2.18510       -3.65970        3.07450
C          2.38420       -3.49910        1.72020
C          3.18330       -3.79240       -1.06830
C          3.00790       -5.14810       -0.81040
C          2.44040       -5.96440       -1.76710
C          2.03950       -5.45990       -2.99840
C          1.48800       -6.36720       -4.05400
C          2.19950       -4.10160       -3.23940
C          2.76010       -3.27290       -2.28830
C          5.69690       -2.55700       -1.68150
S          5.81120       -4.00570       -2.61630
C          4.45950        0.00100        0.68670
S          2.83070       -0.33010        1.23440
C          2.74820        1.22350        1.97070
C          1.64390        1.85920        2.57910
C          1.78890        3.17770        2.98860
Ge         3.63080        3.75040        2.57910
C          3.71960        5.17400        1.16960
C          2.93620        6.42100        1.54840
C          4.72000        4.12680        4.22340
C          6.19700        4.31200        3.91300
C          3.92070        1.95370        1.82270
C          4.87700        1.25740        1.09550
C          0.58120        3.72380        3.42150
C         -0.48300        2.85560        3.30790
S          0.03990        1.27180        2.78110
C         -1.87270        3.14730        3.45020
C         -2.89970        2.78030        2.59020
N         -2.76170        2.10340        1.38990
C         -3.84190        1.29590        0.98950
C         -4.38910        1.42730       -0.28300
C         -5.53310        0.73340       -0.61690
C         -6.13990       -0.09730        0.31600
S         -7.67380       -0.90980       -0.03810
C         -8.58980        0.47370       -0.78810
C         -5.55520       -0.28880        1.56040
C         -4.41210        0.40490        1.89620
C         -1.64330        2.25960        0.56910
C         -1.16260        1.17860       -0.16780
C          0.03160        1.26590       -0.85660
C          0.77080        2.43990       -0.81870
S          2.36920        2.63560       -1.54770
C          2.73920        1.01030       -2.26160
C          0.25120        3.55090       -0.15720
C         -0.94490        3.46840        0.51880
C         -4.15200        3.24080        3.06370
S         -5.75740        3.14720        2.43500
C         -6.36080        4.06270        3.81810
C         -5.30890        4.49910        4.66610
N         -5.44970        5.32440        5.75090
C         -4.54290        5.20900        6.81990
C         -4.00140        6.34890        7.41310
C         -3.10930        6.22710        8.45340
C         -2.73660        4.96810        8.92430
S         -1.57720        4.94200       10.25160
C         -1.25530        3.17560       10.51920
C         -3.28680        3.83220        8.34590
C         -4.18470        3.95470        7.30390
C         -6.43600        6.32540        5.81030
C         -7.08180        6.59570        7.01300
C         -8.11280        7.51370        7.06240
C         -8.52500        8.15910        5.90520
S         -9.90820        9.25300        5.84500
C        -10.88530        8.75260        7.29150
C         -7.82790        7.94740        4.71560
C         -6.78600        7.05030        4.66920
C         -4.07400        3.98870        4.23180
S         -2.43390        4.14620        4.78430
C         -7.71140        4.24800        4.10250
C         -8.83350        4.00230        3.34170
C         -8.87260        3.53790        1.95520
O         -7.94820        3.11610        1.27630
C        -10.27300        3.67680        1.51210
C        -10.79310        3.39330        0.25140
C        -12.14480        3.61650        0.14010
C        -12.92400        4.09110        1.20200
C        -12.42220        4.38290        2.44880
C        -11.04930        4.16150        2.58330
C        -10.17820        4.33340        3.74500
C        -10.59520        4.72840        4.99420
C         -9.80760        4.72830        6.15960
N         -9.26530        4.72760        7.17450
C        -11.89440        5.17180        5.30830
N        -12.91270        5.57910        5.65190
C        -14.19320        4.06920        0.38670
C        -15.16120        2.89640        0.64990
C        -16.03580        2.86590       -0.58260
C        -15.29790        2.41720       -1.59000
C        -13.91210        2.13700       -1.05510
C        -14.26490        1.68360        0.36740
C        -13.32340        3.54060       -0.79890
H          8.53060       -3.29890       -5.08730
H          5.40730       -8.74240       -4.86330
H          8.82410       -7.63840       -8.43450
H          8.21760      -11.02010       -8.34800
H          7.09250      -10.53340      -10.51520
H          5.58480       -8.43510      -10.11560
H          3.77880       -9.04820       -8.26720
H          4.17350      -11.52620       -7.52740
H          6.11090      -12.58160       -9.06950
H          4.83470      -11.84550      -10.07130
H          6.46380      -11.61920       -6.55270
H          6.58710        0.07730       -4.29720
H          6.33470        2.52250       -4.19470
H          8.82940        4.79880       -2.59690
H          7.09360        4.61390       -2.89410
H          8.20790        4.76830       -4.24800
H         10.20240        2.84630       -2.42690
H         10.44870        0.40400       -2.50420
H         10.35120       -0.45290       -5.24650
H         12.52040       -1.45360       -5.79940
H         13.58490       -4.12850       -5.74970
H         13.94530       -4.44440       -4.04980
H         14.44650       -2.92260       -4.80210
H         11.87510       -4.48960       -2.87300
H          9.71890       -3.47890       -2.29380
H          5.66210       -2.66900        1.77530
H          5.28530       -2.93710        4.17630
H          2.31050       -2.82010        5.81010
H          2.49620       -4.56420        5.66560
H          3.90530       -3.55240        6.01220
H          1.20590       -3.93780        3.43680
H          1.56840       -3.64380        1.02800
H          3.33800       -5.55850        0.13240
H          2.32590       -7.01860       -1.56170
H          0.82540       -5.82780       -4.72710
H          0.94380       -7.19760       -3.61000
H          2.30910       -6.77730       -4.64320
H          1.88730       -3.68700       -4.18730
H          2.88970       -2.21860       -2.49080
H          3.33460        4.74800        0.24370
H          4.76680        5.42320        1.00060
H          3.32620        6.86020        2.46470
H          1.88780        6.17770        1.70840
H          2.99950        7.16720        0.75820
H          4.58170        3.29450        4.91320
H          4.32080        5.01870        4.70580
H          6.34820        5.16210        3.25090
H          6.59830        3.42570        3.42600
H          6.76160        4.48760        4.82710
H          5.84980        1.64380        0.84340
H          0.45580        4.74170        3.74900
H         -3.92830        2.09690       -0.99420
H         -5.96560        0.85860       -1.59710
H         -8.35180        0.55930       -1.84470
H         -9.64410        0.24470       -0.66510
H         -8.32880        1.38070       -0.25000
H         -6.01660       -0.96290        2.26530
H         -3.96730        0.28520        2.87350
H         -1.71150        0.24880       -0.16440
H          0.38490        0.39920       -1.39120
H          3.76480        1.07290       -2.61380
H          2.06960        0.80860       -3.09330
H          2.65950        0.24580       -1.49470
H          0.80340        4.47820       -0.17180
H         -1.33540        4.33520        1.03010
H         -4.28020        7.32510        7.04600
H         -2.68110        7.10540        8.91110
H         -0.86700        2.72900        9.60860
H         -2.16100        2.67690       10.85170
H         -0.50400        3.13160       11.30160
H         -3.03280        2.84610        8.69850
H         -4.62040        3.06920        6.86520
H         -6.79690        6.06290        7.90650
H         -8.60680        7.69030        8.00320
H        -11.86670        9.19460        7.15160
H        -10.43600        9.13450        8.20370
H        -10.96800        7.67000        7.31510
H         -8.12230        8.48990        3.83040
H         -6.25850        6.87980        3.74260
H         -7.89980        4.67750        5.07760
H        -10.16150        3.03540       -0.54650
H        -13.03220        4.75500        3.25500
H        -14.70220        5.02450        0.27420
H        -15.66870        2.93200        1.60990
H        -17.05140        3.21520       -0.60650
H        -15.57390        2.31690       -2.62340
H        -13.28250        1.47970       -1.64920
H        -14.82280        0.74870        0.37500
H        -13.40730        1.60120        1.03260
H        -13.25260        4.14430       -1.70190
