195

C         -1.81350       -4.91670       -2.73430
C         -2.43000       -4.78320       -3.95870
C         -2.81370       -3.48730       -4.54080
O         -2.60100       -2.37840       -4.08630
C         -3.63610       -3.80860       -5.72610
C         -4.24470       -2.90590       -6.59250
C         -4.95060       -3.49890       -7.61260
C         -5.05360       -4.88770       -7.75420
C         -4.45750       -5.79000       -6.90380
C         -3.72850       -5.20640       -5.86530
C         -2.95200       -5.82780       -4.79380
C         -2.63260       -7.16070       -4.69650
C         -1.75630       -7.68600       -3.72720
N         -1.02540       -8.17460       -2.98740
C         -3.06960       -8.15140       -5.59400
N         -3.38850       -9.00230       -6.29750
C         -5.92870       -4.77890       -8.97920
C         -7.43800       -5.02620       -8.77370
C         -8.07720       -4.39330       -9.98870
C         -7.97520       -3.07670       -9.85860
C         -7.26570       -2.79790       -8.55330
C         -7.78520       -3.97240       -7.71420
C         -5.80890       -3.22880       -8.82420
C         -1.01990       -3.94780       -2.11040
C         -0.24010       -2.90120       -2.64490
N          0.03970       -2.68820       -3.96580
C          0.01880       -3.73090       -4.90320
C         -0.53030       -3.52670       -6.16840
C         -0.60460       -4.57080       -7.06910
C         -0.12970       -5.83660       -6.74460
C         -0.26310       -6.96930       -7.71350
C          0.46680       -6.01700       -5.50110
C          0.54200       -4.98330       -4.58990
C          0.35740       -1.39040       -4.41590
C          1.36290       -1.21240       -5.35840
C          1.69360        0.05830       -5.78720
C          1.03570        1.17480       -5.28910
C          1.40290        2.55640       -5.73710
C          0.00850        0.98270       -4.37060
C         -0.33590       -0.28140       -3.93850
C          0.32660       -2.12990       -1.60320
S          1.37670       -0.75180       -1.56770
C          1.36740       -0.76000        0.18730
C          0.62340       -1.80840        0.70200
N          0.49020       -2.05980        2.05860
C         -0.76560       -2.44080        2.55090
C         -0.88010       -3.38300        3.57050
C         -2.12540       -3.77500        4.01280
C         -3.28720       -3.25930        3.44800
C         -4.62690       -3.73170        3.92400
C         -3.16400       -2.31570        2.43860
C         -1.92240       -1.89910        1.99860
C          1.61150       -1.97610        2.89110
C          1.48200       -1.52490        4.20180
C          2.58310       -1.47550        5.03220
C          3.83990       -1.86710        4.58460
C          5.02010       -1.85460        5.50770
C          3.96570       -2.29180        3.26750
C          2.87170       -2.34700        2.42750
C          0.04520       -2.58820       -0.32390
S         -0.91520       -4.01710       -0.34330
C          1.81670        0.34810        0.98720
C          3.03630        0.97420        1.15760
N          4.24240        0.56150        0.62690
C          5.42260        0.65100        1.36950
C          6.64970        0.77760        0.71400
C          7.81940        0.86380        1.43340
C          7.79880        0.84220        2.82640
S          9.36180        0.96160        3.64170
C          8.92620        1.08310        5.40030
C          6.58400        0.71570        3.48280
C          5.41050        0.61040        2.76140
C          4.30800        0.04050       -0.68270
C          3.94030        0.82420       -1.77360
C          4.05100        0.32160       -3.05310
C          4.51960       -0.97300       -3.25850
S          4.66690       -1.52800       -4.92750
C          4.58600       -3.33730       -4.76480
C          4.89010       -1.75490       -2.17150
C          4.78910       -1.24670       -0.89240
C          2.91380        2.08890        2.03310
S          3.98960        3.34980        2.53220
C          2.69530        4.12480        3.44250
C          1.48790        3.44890        3.32810
N          0.25710        3.83450        3.82860
C         -0.15190        5.16930        3.86940
C         -0.97230        5.61510        4.90550
C         -1.30160        6.95060        5.02310
C         -0.81340        7.87110        4.10510
S         -1.10090        9.60840        4.19940
C         -2.18230        9.81050        5.64300
C         -0.03370        7.42470        3.03750
C          0.28580        6.09210        2.91540
C         -0.61040        2.81480        4.26120
C         -0.13060        1.78800        5.07390
C         -0.97780        0.78930        5.49750
C         -2.31500        0.77920        5.10440
S         -3.29370       -0.55630        5.70700
C         -4.93700       -0.23840        5.00790
C         -2.79400        1.80040        4.29400
C         -1.94850        2.81210        3.88270
C          1.64160        2.28490        2.53390
S          0.53310        1.11150        1.93510
C          2.95350        5.36670        4.09260
C          3.76980        6.38240        3.65340
C          3.63480        7.57000        4.38730
C          4.44460        8.75700        4.06560
O          5.00260        8.94250        3.01620
O          4.57250        9.60600        5.10160
C          2.71150        7.47090        5.41800
S          2.12600        5.83640        5.54790
C          2.07130        8.43920        6.23840
C          1.74400        9.71160        5.89120
C          1.06940       10.52150        6.82460
N          0.48650       11.15180        7.58670
C          1.91500       10.29680        4.53530
O          2.07390        9.66190        3.52070
O          1.82880       11.62660        4.58120
C          1.91370       12.31540        3.33370
C          3.35140       12.42810        2.84480
H         -1.98380       -5.82220       -2.16390
H         -4.14240       -1.84160       -6.44720
H         -4.54880       -6.85740       -7.01950
H         -5.54150       -5.24360       -9.88420
H         -7.70560       -6.05770       -8.56130
H         -8.47430       -4.95060      -10.81680
H         -8.27000       -2.31470      -10.55620
H         -7.37630       -1.79900       -8.13980
H         -7.26380       -4.10590       -6.76820
H         -8.85700       -3.90750       -7.53390
H         -5.33860       -2.66090       -9.62520
H         -0.90930       -2.55060       -6.43110
H         -1.05770       -4.40530       -8.03590
H          0.07900       -7.90180       -7.27240
H         -1.30320       -7.09020       -8.01430
H          0.32140       -6.77360       -8.61200
H          0.86740       -6.98390       -5.23440
H          0.99520       -5.15060       -3.62380
H          1.88840       -2.06980       -5.75100
H          2.48770        0.17800       -6.50950
H          1.55050        3.20940       -4.87830
H          2.31370        2.54430       -6.33040
H          0.60350        2.98250       -6.34320
H         -0.53270        1.83810       -3.99290
H         -1.15800       -0.42680       -3.25590
H          0.01160       -3.81150        4.00320
H         -2.20160       -4.50790        4.80270
H         -5.43160       -3.19070        3.43220
H         -4.71530       -3.59690        5.00120
H         -4.74700       -4.79370        3.71220
H         -4.05110       -1.89770        1.98290
H         -1.84380       -1.15040        1.22330
H          0.51050       -1.21710        4.55550
H          2.46550       -1.12610        6.04840
H          5.95020       -1.84370        4.94450
H          4.98860       -0.98810        6.16580
H          5.01210       -2.74750        6.13400
H          4.93580       -2.59120        2.89680
H          2.98520       -2.69210        1.41000
H          6.67950        0.81380       -0.36440
H          8.76550        0.96130        0.92350
H          9.86520        1.23550        5.92330
H          8.46410        0.15970        5.73790
H          8.27160        1.93490        5.55940
H          6.53140        0.69000        4.55860
H          4.47940        0.47740        3.29010
H          3.57080        1.82520       -1.60940
H          3.77150        0.92200       -3.90410
H          4.40820       -3.71920       -5.76540
H          5.52580       -3.73050       -4.38830
H          3.75830       -3.60310       -4.11400
H          5.26750       -2.75520       -2.31200
H          5.09090       -1.84290       -0.04400
H         -1.32670        4.91040        5.64280
H         -1.91890        7.26250        5.84990
H         -1.66690        9.49710        6.54610
H         -2.38960       10.87450        5.69960
H         -3.10610        9.25930        5.49410
H          0.33540        8.14020        2.32060
H          0.89340        5.76040        2.08730
H          0.90630        1.78770        5.37630
H         -0.62210        0.00910        6.15320
H         -4.88490       -0.27010        3.92400
H         -5.57080       -1.04100        5.37080
H         -5.31450        0.71630        5.36240
H         -3.82200        1.82050        3.97140
H         -2.32410        3.60650        3.25500
H          4.40730        6.30140        2.79120
H          5.12940       10.35630        4.83900
H          1.73640        8.08260        7.20700
H          1.30320       11.78260        2.59720
H          1.48510       13.29950        3.53230
H          3.74940       11.44210        2.61500
H          3.96940       12.90190        3.60470
H          3.37910       13.03110        1.94180
