
  xtb     02162212243D
 energy: -277.232132232423 gnorm: 0.000365784075 xtb: 6.4.1 (unknown)
169187  0     0  0            999 V2000
    3.7504   -1.0736    5.1209 C   0  0  0  0  0  0  0  0  0  0  0  0
    3.9572   -0.3088    6.2473 C   0  0  0  0  0  0  0  0  0  0  0  0
    4.0154    1.1525    6.3072 C   0  0  0  0  0  0  0  0  0  0  0  0
    3.8280    1.9477    5.4009 O   0  0  0  0  0  0  0  0  0  0  0  0
    4.3726    1.4946    7.6968 C   0  0  0  0  0  0  0  0  0  0  0  0
    4.5335    2.7690    8.2329 C   0  0  0  0  0  0  0  0  0  0  0  0
    4.8549    2.7769    9.5694 C   0  0  0  0  0  0  0  0  0  0  0  0
    5.0148    1.6021   10.3143 C   0  0  0  0  0  0  0  0  0  0  0  0
    4.8624    0.3378    9.7953 C   0  0  0  0  0  0  0  0  0  0  0  0
    4.5258    0.3077    8.4400 C   0  0  0  0  0  0  0  0  0  0  0  0
    4.2435   -0.8288    7.5620 C   0  0  0  0  0  0  0  0  0  0  0  0
    4.2190   -2.1458    7.9574 C   0  0  0  0  0  0  0  0  0  0  0  0
    3.7954   -3.2326    7.1696 C   0  0  0  0  0  0  0  0  0  0  0  0
    3.4251   -4.1731    6.6204 N   0  0  0  0  0  0  0  0  0  0  0  0
    4.5791   -2.6020    9.2405 C   0  0  0  0  0  0  0  0  0  0  0  0
    4.8736   -3.0567   10.2540 N   0  0  0  0  0  0  0  0  0  0  0  0
    5.3187    2.3542   11.5860 C   0  0  0  0  0  0  0  0  0  0  0  0
    4.1951    2.4578   12.6466 C   0  0  0  0  0  0  0  0  0  0  0  0
    2.8896    2.3466   11.8991 C   0  0  0  0  0  0  0  0  0  0  0  0
    2.7318    3.4582   11.1932 C   0  0  0  0  0  0  0  0  0  0  0  0
    3.9274    4.3414   11.4511 C   0  0  0  0  0  0  0  0  0  0  0  0
    4.2266    3.9713   12.9126 C   0  0  0  0  0  0  0  0  0  0  0  0
    5.1352    3.6642   10.7567 C   0  0  0  0  0  0  0  0  0  0  0  0
    3.4163   -0.6998    3.8215 C   0  0  0  0  0  0  0  0  0  0  0  0
    3.1875   -1.6430    2.7865 C   0  0  0  0  0  0  0  0  0  0  0  0
    3.4796   -2.9779    2.8411 N   0  0  0  0  0  0  0  0  0  0  0  0
    4.6258   -3.4800    3.4832 C   0  0  0  0  0  0  0  0  0  0  0  0
    5.8143   -2.7540    3.4912 C   0  0  0  0  0  0  0  0  0  0  0  0
    6.9283   -3.2600    4.1304 C   0  0  0  0  0  0  0  0  0  0  0  0
    6.8953   -4.4997    4.7584 C   0  0  0  0  0  0  0  0  0  0  0  0
    8.0947   -5.0421    5.4725 C   0  0  0  0  0  0  0  0  0  0  0  0
    5.7126   -5.2288    4.7186 C   0  0  0  0  0  0  0  0  0  0  0  0
    4.5864   -4.7307    4.0952 C   0  0  0  0  0  0  0  0  0  0  0  0
    2.6666   -3.8718    2.1147 C   0  0  0  0  0  0  0  0  0  0  0  0
    3.2324   -4.8609    1.3172 C   0  0  0  0  0  0  0  0  0  0  0  0
    2.4198   -5.7251    0.6113 C   0  0  0  0  0  0  0  0  0  0  0  0
    1.0347   -5.6265    0.6794 C   0  0  0  0  0  0  0  0  0  0  0  0
    0.1604   -6.5466   -0.1146 C   0  0  0  0  0  0  0  0  0  0  0  0
    0.4801   -4.6388    1.4846 C   0  0  0  0  0  0  0  0  0  0  0  0
    1.2810   -3.7706    2.1987 C   0  0  0  0  0  0  0  0  0  0  0  0
    2.6019   -1.0236    1.6679 C   0  0  0  0  0  0  0  0  0  0  0  0
    2.0877   -1.5980    0.1178 S   0  0  0  0  0  0  0  0  0  0  0  0
    1.6314    0.0290   -0.3397 C   0  0  0  0  0  0  0  0  0  0  0  0
    1.9306    0.9737    0.6304 C   0  0  0  0  0  0  0  0  0  0  0  0
    1.8189    2.3394    0.4751 N   0  0  0  0  0  0  0  0  0  0  0  0
    1.8938    2.9208   -0.7991 C   0  0  0  0  0  0  0  0  0  0  0  0
    2.8143    2.4608   -1.7381 C   0  0  0  0  0  0  0  0  0  0  0  0
    2.7948    2.9471   -3.0304 C   0  0  0  0  0  0  0  0  0  0  0  0
    1.8738    3.9103   -3.4214 C   0  0  0  0  0  0  0  0  0  0  0  0
    1.7886    4.3757   -4.8423 C   0  0  0  0  0  0  0  0  0  0  0  0
    1.0120    4.4221   -2.4581 C   0  0  0  0  0  0  0  0  0  0  0  0
    1.0216    3.9438   -1.1639 C   0  0  0  0  0  0  0  0  0  0  0  0
    1.5704    3.1348    1.6035 C   0  0  0  0  0  0  0  0  0  0  0  0
    2.1900    4.3727    1.7424 C   0  0  0  0  0  0  0  0  0  0  0  0
    1.9753    5.1301    2.8770 C   0  0  0  0  0  0  0  0  0  0  0  0
    1.1494    4.6773    3.8981 C   0  0  0  0  0  0  0  0  0  0  0  0
    0.9610    5.4711    5.1539 C   0  0  0  0  0  0  0  0  0  0  0  0
    0.5146    3.4515    3.7397 C   0  0  0  0  0  0  0  0  0  0  0  0
    0.7120    2.6888    2.6064 C   0  0  0  0  0  0  0  0  0  0  0  0
    2.4650    0.3533    1.7898 C   0  0  0  0  0  0  0  0  0  0  0  0
    3.0364    0.9477    3.3094 S   0  0  0  0  0  0  0  0  0  0  0  0
    1.0178    0.2668   -1.6264 C   0  0  0  0  0  0  0  0  0  0  0  0
    1.5190   -0.2791   -2.7918 C   0  0  0  0  0  0  0  0  0  0  0  0
    2.6191   -1.0532   -2.7531 F   0  0  0  0  0  0  0  0  0  0  0  0
    0.9395   -0.0360   -4.0436 C   0  0  0  0  0  0  0  0  0  0  0  0
    1.4879   -0.6474   -5.1096 F   0  0  0  0  0  0  0  0  0  0  0  0
   -0.1615    0.7785   -4.1923 C   0  0  0  0  0  0  0  0  0  0  0  0
   -0.6894    1.3753   -3.0165 C   0  0  0  0  0  0  0  0  0  0  0  0
   -1.7008    2.2485   -3.1176 N   0  0  0  0  0  0  0  0  0  0  0  0
   -2.2714    2.7045   -2.0336 C   0  0  0  0  0  0  0  0  0  0  0  0
   -3.4170    3.6438   -2.2611 C   0  0  0  0  0  0  0  0  0  0  0  0
   -4.6503    2.8391   -2.6800 C   0  0  0  0  0  0  0  0  0  0  0  0
   -1.8490    2.2503   -0.7500 C   0  0  0  0  0  0  0  0  0  0  0  0
   -0.7822    1.4990   -0.6330 N   0  0  0  0  0  0  0  0  0  0  0  0
   -0.1483    1.0764   -1.7410 C   0  0  0  0  0  0  0  0  0  0  0  0
   -2.5751    2.5997    0.5149 C   0  0  0  0  0  0  0  0  0  0  0  0
   -2.1662    3.9700    1.0617 C   0  0  0  0  0  0  0  0  0  0  0  0
   -0.8483    0.9440   -5.4750 C   0  0  0  0  0  0  0  0  0  0  0  0
   -0.1645    1.0873   -6.6852 C   0  0  0  0  0  0  0  0  0  0  0  0
   -0.8896    1.0634   -7.8588 C   0  0  0  0  0  0  0  0  0  0  0  0
   -2.2778    0.9049   -7.8113 C   0  0  0  0  0  0  0  0  0  0  0  0
   -2.8668    0.9127   -6.5355 C   0  0  0  0  0  0  0  0  0  0  0  0
   -2.1786    0.9237   -5.4258 N   0  0  0  0  0  0  0  0  0  0  0  0
   -3.0617    0.7797   -9.0156 C   0  0  0  0  0  0  0  0  0  0  0  0
   -4.0671   -0.1105   -9.1888 C   0  0  0  0  0  0  0  0  0  0  0  0
   -4.3280   -1.2752   -8.2919 C   0  0  0  0  0  0  0  0  0  0  0  0
   -3.8499   -1.5016   -7.2032 O   0  0  0  0  0  0  0  0  0  0  0  0
   -5.2483   -2.1486   -9.0401 C   0  0  0  0  0  0  0  0  0  0  0  0
   -5.7217   -3.3936   -8.6303 C   0  0  0  0  0  0  0  0  0  0  0  0
   -6.5740   -3.9903   -9.5263 C   0  0  0  0  0  0  0  0  0  0  0  0
   -6.9253   -3.3973  -10.7479 C   0  0  0  0  0  0  0  0  0  0  0  0
   -6.4591   -2.1752  -11.1684 C   0  0  0  0  0  0  0  0  0  0  0  0
   -5.5945   -1.5451  -10.2664 C   0  0  0  0  0  0  0  0  0  0  0  0
   -4.9149   -0.2589  -10.3635 C   0  0  0  0  0  0  0  0  0  0  0  0
   -5.0936    0.6745  -11.3483 C   0  0  0  0  0  0  0  0  0  0  0  0
   -5.9501    0.5129  -12.4580 C   0  0  0  0  0  0  0  0  0  0  0  0
   -6.6253    0.4475  -13.3840 N   0  0  0  0  0  0  0  0  0  0  0  0
   -4.4710    1.9410  -11.3771 C   0  0  0  0  0  0  0  0  0  0  0  0
   -4.0135    2.9908  -11.4598 N   0  0  0  0  0  0  0  0  0  0  0  0
   -7.8196   -4.5473  -11.1382 C   0  0  0  0  0  0  0  0  0  0  0  0
   -9.3493   -4.3505  -10.9949 C   0  0  0  0  0  0  0  0  0  0  0  0
   -9.5501   -3.3227   -9.9088 C   0  0  0  0  0  0  0  0  0  0  0  0
   -9.2174   -3.8835   -8.7539 C   0  0  0  0  0  0  0  0  0  0  0  0
   -8.7850   -5.3008   -9.0382 C   0  0  0  0  0  0  0  0  0  0  0  0
   -9.7047   -5.6321  -10.2241 C   0  0  0  0  0  0  0  0  0  0  0  0
   -7.4276   -5.2069   -9.7784 C   0  0  0  0  0  0  0  0  0  0  0  0
    3.8369   -2.1438    5.2592 H   0  0  0  0  0  0  0  0  0  0  0  0
    4.4044    3.6478    7.6204 H   0  0  0  0  0  0  0  0  0  0  0  0
    4.9890   -0.5556   10.3835 H   0  0  0  0  0  0  0  0  0  0  0  0
    6.2936    2.1656   12.0313 H   0  0  0  0  0  0  0  0  0  0  0  0
    4.3172    1.7961   13.5000 H   0  0  0  0  0  0  0  0  0  0  0  0
    2.2637    1.4736   11.9141 H   0  0  0  0  0  0  0  0  0  0  0  0
    1.9471    3.6992   10.5000 H   0  0  0  0  0  0  0  0  0  0  0  0
    3.8046    5.3958   11.2170 H   0  0  0  0  0  0  0  0  0  0  0  0
    3.4446    4.2951   13.5980 H   0  0  0  0  0  0  0  0  0  0  0  0
    5.1938    4.3303   13.2618 H   0  0  0  0  0  0  0  0  0  0  0  0
    5.9887    4.3334   10.6650 H   0  0  0  0  0  0  0  0  0  0  0  0
    5.8594   -1.7932    2.9998 H   0  0  0  0  0  0  0  0  0  0  0  0
    7.8420   -2.6831    4.1331 H   0  0  0  0  0  0  0  0  0  0  0  0
    8.3020   -6.0620    5.1532 H   0  0  0  0  0  0  0  0  0  0  0  0
    8.9727   -4.4295    5.2843 H   0  0  0  0  0  0  0  0  0  0  0  0
    7.9114   -5.0623    6.5469 H   0  0  0  0  0  0  0  0  0  0  0  0
    5.6660   -6.1941    5.1995 H   0  0  0  0  0  0  0  0  0  0  0  0
    3.6705   -5.2998    4.0899 H   0  0  0  0  0  0  0  0  0  0  0  0
    4.3071   -4.9421    1.2503 H   0  0  0  0  0  0  0  0  0  0  0  0
    2.8693   -6.4854   -0.0103 H   0  0  0  0  0  0  0  0  0  0  0  0
   -0.0463   -6.1077   -1.0913 H   0  0  0  0  0  0  0  0  0  0  0  0
    0.6472   -7.5058   -0.2731 H   0  0  0  0  0  0  0  0  0  0  0  0
   -0.7900   -6.7098    0.3882 H   0  0  0  0  0  0  0  0  0  0  0  0
   -0.5941   -4.5516    1.5582 H   0  0  0  0  0  0  0  0  0  0  0  0
    0.8403   -3.0140    2.8314 H   0  0  0  0  0  0  0  0  0  0  0  0
    3.5359    1.7088   -1.4545 H   0  0  0  0  0  0  0  0  0  0  0  0
    3.5061    2.5645   -3.7484 H   0  0  0  0  0  0  0  0  0  0  0  0
    0.8997    3.9547   -5.3144 H   0  0  0  0  0  0  0  0  0  0  0  0
    2.6616    4.0611   -5.4087 H   0  0  0  0  0  0  0  0  0  0  0  0
    1.7093    5.4600   -4.8911 H   0  0  0  0  0  0  0  0  0  0  0  0
    0.3069    5.1935   -2.7328 H   0  0  0  0  0  0  0  0  0  0  0  0
    0.3334    4.3407   -0.4337 H   0  0  0  0  0  0  0  0  0  0  0  0
    2.8482    4.7286    0.9634 H   0  0  0  0  0  0  0  0  0  0  0  0
    2.4730    6.0839    2.9769 H   0  0  0  0  0  0  0  0  0  0  0  0
    1.2859    6.4999    5.0197 H   0  0  0  0  0  0  0  0  0  0  0  0
   -0.0826    5.4671    5.4633 H   0  0  0  0  0  0  0  0  0  0  0  0
    1.5496    5.0274    5.9571 H   0  0  0  0  0  0  0  0  0  0  0  0
   -0.1449    3.0897    4.5153 H   0  0  0  0  0  0  0  0  0  0  0  0
    0.2001    1.7463    2.4832 H   0  0  0  0  0  0  0  0  0  0  0  0
   -3.1460    4.3156   -3.0767 H   0  0  0  0  0  0  0  0  0  0  0  0
   -3.6367    4.2325   -1.3724 H   0  0  0  0  0  0  0  0  0  0  0  0
   -4.4116    2.2434   -3.5571 H   0  0  0  0  0  0  0  0  0  0  0  0
   -4.9638    2.1693   -1.8818 H   0  0  0  0  0  0  0  0  0  0  0  0
   -5.4741    3.5083   -2.9155 H   0  0  0  0  0  0  0  0  0  0  0  0
   -2.3359    1.8402    1.2600 H   0  0  0  0  0  0  0  0  0  0  0  0
   -3.6506    2.5839    0.3305 H   0  0  0  0  0  0  0  0  0  0  0  0
   -2.2918    4.7500    0.3140 H   0  0  0  0  0  0  0  0  0  0  0  0
   -1.1263    3.9536    1.3767 H   0  0  0  0  0  0  0  0  0  0  0  0
   -2.7780    4.2193    1.9254 H   0  0  0  0  0  0  0  0  0  0  0  0
    0.9086    1.1902   -6.7022 H   0  0  0  0  0  0  0  0  0  0  0  0
   -0.3867    1.1168   -8.8139 H   0  0  0  0  0  0  0  0  0  0  0  0
   -3.9422    0.9318   -6.4272 H   0  0  0  0  0  0  0  0  0  0  0  0
   -2.7783    1.4298   -9.8347 H   0  0  0  0  0  0  0  0  0  0  0  0
   -5.4213   -3.8135   -7.6831 H   0  0  0  0  0  0  0  0  0  0  0  0
   -6.7289   -1.7379  -12.1153 H   0  0  0  0  0  0  0  0  0  0  0  0
   -7.5525   -5.0693  -12.0548 H   0  0  0  0  0  0  0  0  0  0  0  0
   -9.8699   -4.1676  -11.9309 H   0  0  0  0  0  0  0  0  0  0  0  0
   -9.8502   -2.3079  -10.0935 H   0  0  0  0  0  0  0  0  0  0  0  0
   -9.1833   -3.4310   -7.7802 H   0  0  0  0  0  0  0  0  0  0  0  0
   -8.7916   -5.9838   -8.1928 H   0  0  0  0  0  0  0  0  0  0  0  0
  -10.7555   -5.6758   -9.9422 H   0  0  0  0  0  0  0  0  0  0  0  0
   -9.4258   -6.5454  -10.7478 H   0  0  0  0  0  0  0  0  0  0  0  0
   -6.9029   -6.1599   -9.8059 H   0  0  0  0  0  0  0  0  0  0  0  0
  1  2  2  0  0  0  0
  2  3  1  0  0  0  0
  3  4  2  0  0  0  0
  3  5  1  0  0  0  0
  5  6  2  0  0  0  0
  6  7  1  0  0  0  0
  7  8  2  0  0  0  0
  8  9  1  0  0  0  0
  9 10  2  0  0  0  0
 10 11  1  0  0  0  0
 11 12  2  0  0  0  0
 12 13  1  0  0  0  0
 13 14  3  0  0  0  0
 12 15  1  0  0  0  0
 15 16  3  0  0  0  0
  8 17  1  0  0  0  0
 17 18  1  0  0  0  0
 18 19  1  0  0  0  0
 19 20  2  0  0  0  0
 20 21  1  0  0  0  0
 21 22  1  0  0  0  0
 21 23  1  0  0  0  0
  1 24  1  0  0  0  0
 24 25  2  0  0  0  0
 25 26  1  0  0  0  0
 26 27  1  0  0  0  0
 27 28  2  0  0  0  0
 28 29  1  0  0  0  0
 29 30  2  0  0  0  0
 30 31  1  0  0  0  0
 30 32  1  0  0  0  0
 32 33  2  0  0  0  0
 26 34  1  0  0  0  0
 34 35  2  0  0  0  0
 35 36  1  0  0  0  0
 36 37  2  0  0  0  0
 37 38  1  0  0  0  0
 37 39  1  0  0  0  0
 39 40  2  0  0  0  0
 25 41  1  0  0  0  0
 41 42  1  0  0  0  0
 42 43  1  0  0  0  0
 43 44  2  0  0  0  0
 44 45  1  0  0  0  0
 45 46  1  0  0  0  0
 46 47  2  0  0  0  0
 47 48  1  0  0  0  0
 48 49  2  0  0  0  0
 49 50  1  0  0  0  0
 49 51  1  0  0  0  0
 51 52  2  0  0  0  0
 45 53  1  0  0  0  0
 53 54  2  0  0  0  0
 54 55  1  0  0  0  0
 55 56  2  0  0  0  0
 56 57  1  0  0  0  0
 56 58  1  0  0  0  0
 58 59  2  0  0  0  0
 44 60  1  0  0  0  0
 60 61  1  0  0  0  0
 43 62  1  0  0  0  0
 62 63  2  0  0  0  0
 63 64  1  0  0  0  0
 63 65  1  0  0  0  0
 65 66  1  0  0  0  0
 65 67  2  0  0  0  0
 67 68  1  0  0  0  0
 68 69  2  0  0  0  0
 69 70  1  0  0  0  0
 70 71  1  0  0  0  0
 71 72  1  0  0  0  0
 70 73  2  0  0  0  0
 73 74  1  0  0  0  0
 74 75  2  0  0  0  0
 73 76  1  0  0  0  0
 76 77  1  0  0  0  0
 67 78  1  0  0  0  0
 78 79  2  0  0  0  0
 79 80  1  0  0  0  0
 80 81  2  0  0  0  0
 81 82  1  0  0  0  0
 82 83  2  0  0  0  0
 81 84  1  0  0  0  0
 84 85  2  0  0  0  0
 85 86  1  0  0  0  0
 86 87  2  0  0  0  0
 86 88  1  0  0  0  0
 88 89  2  0  0  0  0
 89 90  1  0  0  0  0
 90 91  2  0  0  0  0
 91 92  1  0  0  0  0
 92 93  2  0  0  0  0
 93 94  1  0  0  0  0
 94 95  2  0  0  0  0
 95 96  1  0  0  0  0
 96 97  3  0  0  0  0
 95 98  1  0  0  0  0
 98 99  3  0  0  0  0
 91100  1  0  0  0  0
100101  1  0  0  0  0
101102  1  0  0  0  0
102103  2  0  0  0  0
103104  1  0  0  0  0
104105  1  0  0  0  0
104106  1  0  0  0  0
 11  2  1  0  0  0  0
 23 17  1  0  0  0  0
 61 24  1  0  0  0  0
 75 62  1  0  0  0  0
 83 78  1  0  0  0  0
 94 85  1  0  0  0  0
106100  1  0  0  0  0
 10  5  1  0  0  0  0
 22 18  1  0  0  0  0
 33 27  1  0  0  0  0
 40 34  1  0  0  0  0
 60 41  2  0  0  0  0
 75 68  1  0  0  0  0
 93 88  1  0  0  0  0
105101  1  0  0  0  0
 23  7  1  0  0  0  0
 52 46  1  0  0  0  0
 59 53  1  0  0  0  0
106 90  1  0  0  0  0
  1107  1  0  0  0  0
  6108  1  0  0  0  0
  9109  1  0  0  0  0
 17110  1  0  0  0  0
 18111  1  0  0  0  0
 19112  1  0  0  0  0
 20113  1  0  0  0  0
 21114  1  0  0  0  0
 22115  1  0  0  0  0
 22116  1  0  0  0  0
 23117  1  0  0  0  0
 28118  1  0  0  0  0
 29119  1  0  0  0  0
 31120  1  0  0  0  0
 31121  1  0  0  0  0
 31122  1  0  0  0  0
 32123  1  0  0  0  0
 33124  1  0  0  0  0
 35125  1  0  0  0  0
 36126  1  0  0  0  0
 38127  1  0  0  0  0
 38128  1  0  0  0  0
 38129  1  0  0  0  0
 39130  1  0  0  0  0
 40131  1  0  0  0  0
 47132  1  0  0  0  0
 48133  1  0  0  0  0
 50134  1  0  0  0  0
 50135  1  0  0  0  0
 50136  1  0  0  0  0
 51137  1  0  0  0  0
 52138  1  0  0  0  0
 54139  1  0  0  0  0
 55140  1  0  0  0  0
 57141  1  0  0  0  0
 57142  1  0  0  0  0
 57143  1  0  0  0  0
 58144  1  0  0  0  0
 59145  1  0  0  0  0
 71146  1  0  0  0  0
 71147  1  0  0  0  0
 72148  1  0  0  0  0
 72149  1  0  0  0  0
 72150  1  0  0  0  0
 76151  1  0  0  0  0
 76152  1  0  0  0  0
 77153  1  0  0  0  0
 77154  1  0  0  0  0
 77155  1  0  0  0  0
 79156  1  0  0  0  0
 80157  1  0  0  0  0
 82158  1  0  0  0  0
 84159  1  0  0  0  0
 89160  1  0  0  0  0
 92161  1  0  0  0  0
100162  1  0  0  0  0
101163  1  0  0  0  0
102164  1  0  0  0  0
103165  1  0  0  0  0
104166  1  0  0  0  0
105167  1  0  0  0  0
105168  1  0  0  0  0
106169  1  0  0  0  0
M  END
