180

C         -2.05200       -1.50580        6.07850
C         -2.26340       -2.19370        7.24520
C         -2.14100       -3.64510        7.50080
O         -1.66180       -4.50830        6.78970
C         -2.74050       -3.87310        8.82810
C         -2.91240       -5.10180        9.46130
C         -3.51670       -5.01720       10.69220
C         -3.91720       -3.79800       11.25520
C         -3.74720       -2.57860       10.64370
C         -3.13710       -2.64300        9.38770
C         -2.79460       -1.57840        8.44850
C         -2.89800       -0.23450        8.70840
C         -3.40710        0.30830        9.90700
N         -3.80940        0.82610       10.84970
C         -2.47920        0.81410        7.86420
N         -2.14850        1.73860        7.26600
C         -4.46350       -4.45920       12.49580
C         -5.99950       -4.62000       12.61130
C         -6.53270       -4.66870       11.20090
C         -6.15540       -5.82180       10.66510
C         -5.36070       -6.57410       11.70390
C         -6.07770       -6.10980       12.98170
C         -4.01900       -5.81760       11.86750
C         -1.53130       -1.91240        4.83820
C         -0.93260       -3.08320        4.40190
C         -0.53150       -3.05210        3.06600
O          0.13980       -4.00620        2.38680
C          0.57780       -5.15420        3.09910
C         -0.52440       -6.16680        3.38670
C         -0.81020       -1.82760        2.44320
S         -1.57930       -0.73670        3.54540
C         -0.47650       -1.35060        1.14880
C         -0.27560       -1.99800       -0.06520
N         -0.38930       -3.35180       -0.34370
C          0.66830       -3.88520       -1.10250
C          0.45280       -4.68070       -2.22680
C          1.52340       -5.17400       -2.93840
C          2.82970       -4.87400       -2.55560
S          4.12590       -5.57300       -3.52790
C          5.64210       -5.14620       -2.62410
C          3.04820       -4.06130       -1.45230
C          1.97430       -3.57590       -0.73380
C         -1.48600       -4.11040        0.04600
C         -2.67730       -3.49770        0.44430
C         -3.75770       -4.25430        0.83550
C         -3.69570       -5.64610        0.82130
S         -5.14670       -6.50580        1.34590
C         -4.70610       -8.25830        1.16940
C         -2.52370       -6.26270        0.40690
C         -1.43060       -5.50300        0.03500
C          0.05350       -1.06830       -1.08190
S          0.37300       -1.21610       -2.77530
C          0.51610        0.54340       -2.92560
C          0.40320        1.18700       -1.68570
N          0.58580        2.52300       -1.38580
C          1.54670        3.33520       -1.97820
C          2.69730        2.80300       -2.56090
C          3.54910        3.60100       -3.29820
C          3.27730        4.95450       -3.44570
S          4.20060        6.04160       -4.48620
C          5.22270        4.91760       -5.48050
C          2.19720        5.51280       -2.76310
C          1.34020        4.71680       -2.04160
C         -0.18270        3.01190       -0.30380
C          0.43070        3.57170        0.81180
C         -0.31640        3.89130        1.92810
C         -1.68670        3.65470        1.94180
S         -2.69630        3.91000        3.36290
C         -1.50830        3.76870        4.72860
C         -2.31260        3.17790        0.79120
C         -1.56800        2.85610       -0.32120
C          0.09390        0.25160       -0.66920
S         -0.27910        0.39360        1.01120
C          0.71420        1.11110       -4.20380
C          1.19730        0.46490       -5.35270
C          1.40400       -0.98850       -5.51280
C          2.67180       -1.55520       -5.37650
C          2.84950       -2.89620       -5.68050
C          1.79620       -3.68700       -6.11280
C          2.02910       -5.10360       -6.55140
C          2.44040       -5.13660       -8.02480
C          0.53550       -3.11700       -6.20140
C          0.32190       -1.77940       -5.91160
C         -1.05230       -1.19450       -6.08760
C         -1.24810       -0.67860       -7.51410
C          3.83910       -0.75170       -4.87160
C          4.08150       -1.04280       -3.39010
C          1.46510        1.36270       -6.36980
C          1.16100        2.69560       -6.06880
S          0.39990        2.79400       -4.50310
C          1.60210        3.77510       -6.83510
C          1.49270        5.12420       -6.57190
C          0.61160        5.70950       -5.56120
O         -0.16010        5.12520       -4.81870
C          0.80230        7.16950       -5.64730
C          0.21440        8.16010       -4.89240
C          0.57420        9.48250       -5.15660
C         -0.00510       10.61600       -4.39130
O          0.22610       11.77790       -4.61870
O         -0.81850       10.20580       -3.40850
C         -1.41610       11.23200       -2.63120
C          1.49640        9.77120       -6.16170
C          2.08730        8.77000       -6.91770
C          1.74000        7.45400       -6.65660
C          2.19490        6.19140       -7.24170
C          3.17550        6.07280       -8.19730
C          3.84530        7.16160       -8.78990
N          4.43780        7.99260       -9.31700
C          3.68990        4.85640       -8.68630
N          4.18270        3.90670       -9.10750
H         -2.35630       -0.46570        6.08140
H         -2.58720       -6.01680        8.99110
H         -4.06370       -1.65090       11.08980
H         -4.00590       -4.15850       13.43620
H         -6.47830       -3.91110       13.28130
H         -7.06390       -3.86040       10.73350
H         -6.30820       -6.16930        9.66000
H         -5.25910       -7.64500       11.54770
H         -7.10180       -6.47440       13.04600
H         -5.54040       -6.35870       13.89580
H         -3.27350       -6.40560       12.39950
H         -0.79460       -3.91230        5.06900
H          1.07050       -4.84790        4.03010
H          1.32510       -5.59930        2.43560
H         -1.03310       -6.42990        2.46360
H         -0.07860       -7.05930        3.81750
H         -1.25790       -5.77490        4.08530
H         -0.55560       -4.90450       -2.53950
H          1.35990       -5.79540       -3.80390
H          5.58630       -5.52490       -1.60790
H          5.80110       -4.07160       -2.63730
H          6.44720       -5.64130       -3.15820
H          4.04550       -3.80500       -1.13270
H          2.14470       -2.95790        0.13550
H         -2.76090       -2.42210        0.43700
H         -4.67160       -3.77350        1.14910
H         -5.59000       -8.81180        1.47050
H         -3.87720       -8.50270        1.82760
H         -4.46870       -8.47990        0.13300
H         -2.44010       -7.33780        0.37630
H         -0.51760       -6.00110       -0.25340
H          2.90870        1.74840       -2.46820
H          4.41150        3.15180       -3.76430
H          5.99220        4.46220       -4.86390
H          5.68770        5.53670       -6.24210
H          4.59420        4.16420       -5.94820
H          2.01700        6.57380       -2.84510
H          0.47260        5.14790       -1.56790
H          1.49960        3.72710        0.81060
H          0.17890        4.30560        2.79140
H         -2.09240        3.56110        5.61940
H         -0.95880        4.69750        4.85240
H         -0.84130        2.93560        4.53130
H         -3.38230        3.03810        0.79520
H         -2.04370        2.45390       -1.20320
H          3.83500       -3.33100       -5.59440
H          2.81950       -5.55590       -5.95000
H          1.11570       -5.68830       -6.42300
H          2.61160       -6.16040       -8.34910
H          1.66110       -4.70010       -8.64580
H          3.35460       -4.56710       -8.17400
H         -0.30050       -3.72320       -6.52170
H         -1.79800       -1.96490       -5.88060
H         -1.21030       -0.37500       -5.38450
H         -1.07910       -1.47820       -8.23190
H         -0.54900        0.12690       -7.72640
H         -2.25960       -0.30120       -7.64490
H          3.65350        0.31540       -5.00710
H          4.73510       -1.01630       -5.43780
H          4.25980       -2.10500       -3.24340
H          4.94190       -0.48620       -3.02330
H          3.20950       -0.77050       -2.79940
H          1.92260        1.07810       -7.30230
H          2.16030        3.48340       -7.71700
H         -0.49910        7.91630       -4.12140
H         -2.01150       11.89130       -3.26660
H         -2.04670       10.73180       -1.90040
H         -0.64760       11.82710       -2.13280
H          1.74510       10.80670       -6.33920
H          2.79790        9.02720       -7.68570
