
  xtb     02142213163D
 energy: -338.952817959518 gnorm: 0.000452268781 xtb: 6.4.1 (unknown)
206229  0     0  0            999 V2000
   -5.9499    7.1742   -1.5455 C   0  0  0  0  0  0  0  0  0  0  0  0
   -5.9332    8.2877   -0.7345 C   0  0  0  0  0  0  0  0  0  0  0  0
   -4.9377    8.5187    0.3237 C   0  0  0  0  0  0  0  0  0  0  0  0
   -4.0248    7.7834    0.6531 O   0  0  0  0  0  0  0  0  0  0  0  0
   -5.1813    9.8933    0.8102 C   0  0  0  0  0  0  0  0  0  0  0  0
   -4.4849   10.5661    1.8092 C   0  0  0  0  0  0  0  0  0  0  0  0
   -4.9478   11.8373    2.0551 C   0  0  0  0  0  0  0  0  0  0  0  0
   -6.0110   12.4062    1.3445 C   0  0  0  0  0  0  0  0  0  0  0  0
   -6.7009   11.7556    0.3487 C   0  0  0  0  0  0  0  0  0  0  0  0
   -6.2574   10.4555    0.0975 C   0  0  0  0  0  0  0  0  0  0  0  0
   -6.7548    9.4592   -0.8491 C   0  0  0  0  0  0  0  0  0  0  0  0
   -7.9087    9.5571   -1.5889 C   0  0  0  0  0  0  0  0  0  0  0  0
   -8.4231    8.5171   -2.3876 C   0  0  0  0  0  0  0  0  0  0  0  0
   -8.9156    7.7045   -3.0337 N   0  0  0  0  0  0  0  0  0  0  0  0
   -8.7696   10.6691   -1.5772 C   0  0  0  0  0  0  0  0  0  0  0  0
   -9.5261   11.5344   -1.5935 N   0  0  0  0  0  0  0  0  0  0  0  0
   -5.9407   13.7012    2.1165 C   0  0  0  0  0  0  0  0  0  0  0  0
   -7.0162   13.9107    3.2031 C   0  0  0  0  0  0  0  0  0  0  0  0
   -6.4296   14.9820    4.0934 C   0  0  0  0  0  0  0  0  0  0  0  0
   -5.4277   14.4382    4.7725 C   0  0  0  0  0  0  0  0  0  0  0  0
   -5.3199   12.9904    4.3516 C   0  0  0  0  0  0  0  0  0  0  0  0
   -6.7996   12.6797    4.0924 C   0  0  0  0  0  0  0  0  0  0  0  0
   -4.7592   13.0630    2.9153 C   0  0  0  0  0  0  0  0  0  0  0  0
   -5.4400    5.9131   -1.2243 C   0  0  0  0  0  0  0  0  0  0  0  0
   -5.2192    5.2796    0.0163 C   0  0  0  0  0  0  0  0  0  0  0  0
   -5.6195    5.7236    1.2436 N   0  0  0  0  0  0  0  0  0  0  0  0
   -4.9320    5.2794    2.3952 C   0  0  0  0  0  0  0  0  0  0  0  0
   -3.5455    5.3476    2.4572 C   0  0  0  0  0  0  0  0  0  0  0  0
   -2.8895    4.9461    3.6045 C   0  0  0  0  0  0  0  0  0  0  0  0
   -3.5912    4.4573    4.6989 C   0  0  0  0  0  0  0  0  0  0  0  0
   -2.8809    4.0032    5.9379 C   0  0  0  0  0  0  0  0  0  0  0  0
   -4.9788    4.3933    4.6235 C   0  0  0  0  0  0  0  0  0  0  0  0
   -5.6485    4.8039    3.4888 C   0  0  0  0  0  0  0  0  0  0  0  0
   -6.6875    6.6109    1.4293 C   0  0  0  0  0  0  0  0  0  0  0  0
   -7.8467    6.5263    0.6583 C   0  0  0  0  0  0  0  0  0  0  0  0
   -8.8647    7.4396    0.8325 C   0  0  0  0  0  0  0  0  0  0  0  0
   -8.7672    8.4601    1.7763 C   0  0  0  0  0  0  0  0  0  0  0  0
   -9.8592    9.4741    1.9111 C   0  0  0  0  0  0  0  0  0  0  0  0
   -7.6322    8.5071    2.5735 C   0  0  0  0  0  0  0  0  0  0  0  0
   -6.6034    7.5989    2.4086 C   0  0  0  0  0  0  0  0  0  0  0  0
   -4.6297    4.0052   -0.1767 C   0  0  0  0  0  0  0  0  0  0  0  0
   -4.0534    2.7686    0.8948 S   0  0  0  0  0  0  0  0  0  0  0  0
   -3.7037    1.7348   -0.4678 C   0  0  0  0  0  0  0  0  0  0  0  0
   -3.9135    2.3541   -1.6953 C   0  0  0  0  0  0  0  0  0  0  0  0
   -3.5301    1.8472   -2.9203 N   0  0  0  0  0  0  0  0  0  0  0  0
   -2.3825    1.0478   -3.0339 C   0  0  0  0  0  0  0  0  0  0  0  0
   -1.2453    1.3240   -2.2745 C   0  0  0  0  0  0  0  0  0  0  0  0
   -0.1538    0.4832   -2.3270 C   0  0  0  0  0  0  0  0  0  0  0  0
   -0.1486   -0.6425   -3.1458 C   0  0  0  0  0  0  0  0  0  0  0  0
    1.0466   -1.5444   -3.1863 C   0  0  0  0  0  0  0  0  0  0  0  0
   -1.2673   -0.8875   -3.9305 C   0  0  0  0  0  0  0  0  0  0  0  0
   -2.3731   -0.0596   -3.8784 C   0  0  0  0  0  0  0  0  0  0  0  0
   -4.2980    2.1451   -4.0574 C   0  0  0  0  0  0  0  0  0  0  0  0
   -3.6799    2.4055   -5.2761 C   0  0  0  0  0  0  0  0  0  0  0  0
   -4.4423    2.7141   -6.3857 C   0  0  0  0  0  0  0  0  0  0  0  0
   -5.8277    2.7794   -6.3098 C   0  0  0  0  0  0  0  0  0  0  0  0
   -6.6577    3.1373   -7.5039 C   0  0  0  0  0  0  0  0  0  0  0  0
   -6.4362    2.5087   -5.0891 C   0  0  0  0  0  0  0  0  0  0  0  0
   -5.6876    2.1892   -3.9751 C   0  0  0  0  0  0  0  0  0  0  0  0
   -4.4737    3.6409   -1.5081 C   0  0  0  0  0  0  0  0  0  0  0  0
   -5.0362    4.8590   -2.5880 S   0  0  0  0  0  0  0  0  0  0  0  0
   -3.1613    0.4173   -0.2793 C   0  0  0  0  0  0  0  0  0  0  0  0
   -3.5116   -0.6449   -1.0951 C   0  0  0  0  0  0  0  0  0  0  0  0
   -4.5706   -0.5358   -1.9185 F   0  0  0  0  0  0  0  0  0  0  0  0
   -2.7780   -1.8300   -1.1293 C   0  0  0  0  0  0  0  0  0  0  0  0
   -3.1698   -2.7561   -2.0234 F   0  0  0  0  0  0  0  0  0  0  0  0
   -1.6614   -2.0463   -0.3332 C   0  0  0  0  0  0  0  0  0  0  0  0
   -1.4123   -1.0521    0.6670 C   0  0  0  0  0  0  0  0  0  0  0  0
   -0.4838   -1.2495    1.6129 N   0  0  0  0  0  0  0  0  0  0  0  0
   -0.2034   -0.3091    2.4838 C   0  0  0  0  0  0  0  0  0  0  0  0
    0.8446   -0.6672    3.4956 C   0  0  0  0  0  0  0  0  0  0  0  0
    2.2277   -0.1849    3.0533 C   0  0  0  0  0  0  0  0  0  0  0  0
   -0.8668    0.9448    2.4230 C   0  0  0  0  0  0  0  0  0  0  0  0
   -1.8263    1.1330    1.5490 N   0  0  0  0  0  0  0  0  0  0  0  0
   -2.1406    0.1665    0.6779 C   0  0  0  0  0  0  0  0  0  0  0  0
   -0.5398    2.1218    3.2894 C   0  0  0  0  0  0  0  0  0  0  0  0
    0.1792    3.1882    2.4596 C   0  0  0  0  0  0  0  0  0  0  0  0
   -0.7598   -3.1436   -0.5569 C   0  0  0  0  0  0  0  0  0  0  0  0
    0.3972   -3.4132    0.1182 C   0  0  0  0  0  0  0  0  0  0  0  0
    1.1516   -4.4749   -0.4275 C   0  0  0  0  0  0  0  0  0  0  0  0
    2.4126   -4.9219    0.0034 C   0  0  0  0  0  0  0  0  0  0  0  0
    3.0151   -4.3832    1.2289 C   0  0  0  0  0  0  0  0  0  0  0  0
    2.2479   -4.3574    2.4158 C   0  0  0  0  0  0  0  0  0  0  0  0
    2.7679   -3.8526    3.5708 C   0  0  0  0  0  0  0  0  0  0  0  0
    4.0795   -3.3336    3.6093 C   0  0  0  0  0  0  0  0  0  0  0  0
    4.6369   -2.7840    4.7814 C   0  0  0  0  0  0  0  0  0  0  0  0
    5.9140   -2.2962    4.7841 C   0  0  0  0  0  0  0  0  0  0  0  0
    6.6916   -2.3408    3.6160 C   0  0  0  0  0  0  0  0  0  0  0  0
    6.1786   -2.8659    2.4634 C   0  0  0  0  0  0  0  0  0  0  0  0
    4.8621   -3.3717    2.4258 C   0  0  0  0  0  0  0  0  0  0  0  0
    4.3035   -3.9076    1.2495 C   0  0  0  0  0  0  0  0  0  0  0  0
    3.0279   -5.8917   -0.7714 C   0  0  0  0  0  0  0  0  0  0  0  0
    2.4149   -6.4566   -1.9248 C   0  0  0  0  0  0  0  0  0  0  0  0
    1.1445   -6.0026   -2.3627 C   0  0  0  0  0  0  0  0  0  0  0  0
    0.5399   -6.4895   -3.5779 C   0  0  0  0  0  0  0  0  0  0  0  0
    1.1343   -6.8004   -4.7746 C   0  0  0  0  0  0  0  0  0  0  0  0
    0.2256   -7.1529   -5.7829 C   0  0  0  0  0  0  0  0  0  0  0  0
   -1.0759   -7.1211   -5.3603 C   0  0  0  0  0  0  0  0  0  0  0  0
   -2.4650   -7.5241   -6.3306 S   0  0  0  0  0  0  0  0  0  0  0  0
   -3.8252   -6.7404   -5.3893 C   0  0  0  0  0  0  0  0  0  0  0  0
   -3.7752   -5.2267   -5.4426 C   0  0  0  0  0  0  0  0  0  0  0  0
   -1.1905   -6.6690   -3.6893 S   0  0  0  0  0  0  0  0  0  0  0  0
    0.5395   -5.0249   -1.5811 C   0  0  0  0  0  0  0  0  0  0  0  0
   -0.9785   -4.2382   -1.9124 S   0  0  0  0  0  0  0  0  0  0  0  0
    3.2061   -7.4802   -2.4636 C   0  0  0  0  0  0  0  0  0  0  0  0
    4.4079   -7.6793   -1.8053 C   0  0  0  0  0  0  0  0  0  0  0  0
    4.5893   -6.5924   -0.4448 S   0  0  0  0  0  0  0  0  0  0  0  0
    5.3299   -8.6539   -2.2400 C   0  0  0  0  0  0  0  0  0  0  0  0
    6.5850   -8.9557   -1.7925 C   0  0  0  0  0  0  0  0  0  0  0  0
    7.3098   -8.2787   -0.7019 C   0  0  0  0  0  0  0  0  0  0  0  0
    6.9035   -7.3901    0.0223 O   0  0  0  0  0  0  0  0  0  0  0  0
    8.6505   -8.8862   -0.6608 C   0  0  0  0  0  0  0  0  0  0  0  0
    9.6979   -8.5399    0.1898 C   0  0  0  0  0  0  0  0  0  0  0  0
   10.8458   -9.2672   -0.0121 C   0  0  0  0  0  0  0  0  0  0  0  0
   10.9459  -10.2634   -0.9929 C   0  0  0  0  0  0  0  0  0  0  0  0
    9.9202  -10.6147   -1.8375 C   0  0  0  0  0  0  0  0  0  0  0  0
    8.7395   -9.8907   -1.6454 C   0  0  0  0  0  0  0  0  0  0  0  0
    7.4603   -9.9737   -2.3471 C   0  0  0  0  0  0  0  0  0  0  0  0
    7.1603  -10.8717   -3.3392 C   0  0  0  0  0  0  0  0  0  0  0  0
    5.9314  -10.9730   -4.0245 C   0  0  0  0  0  0  0  0  0  0  0  0
    4.9716  -11.1294   -4.6369 N   0  0  0  0  0  0  0  0  0  0  0  0
    8.0495  -11.8537   -3.8247 C   0  0  0  0  0  0  0  0  0  0  0  0
    8.7115  -12.6787   -4.2716 N   0  0  0  0  0  0  0  0  0  0  0  0
   12.3792  -10.5758   -0.6428 C   0  0  0  0  0  0  0  0  0  0  0  0
   12.6590  -11.8530    0.1869 C   0  0  0  0  0  0  0  0  0  0  0  0
   11.4101  -12.1259    0.9880 C   0  0  0  0  0  0  0  0  0  0  0  0
   11.3126  -11.1858    1.9185 C   0  0  0  0  0  0  0  0  0  0  0  0
   12.4942  -10.2605    1.7638 C   0  0  0  0  0  0  0  0  0  0  0  0
   13.5590  -11.2590    1.2822 C   0  0  0  0  0  0  0  0  0  0  0  0
   12.2664   -9.4687    0.4523 C   0  0  0  0  0  0  0  0  0  0  0  0
   -6.3579    7.2696   -2.5448 H   0  0  0  0  0  0  0  0  0  0  0  0
   -3.6636   10.0956    2.3273 H   0  0  0  0  0  0  0  0  0  0  0  0
   -7.5095   12.2093   -0.2001 H   0  0  0  0  0  0  0  0  0  0  0  0
   -5.7474   14.5968    1.5293 H   0  0  0  0  0  0  0  0  0  0  0  0
   -8.0192   14.0843    2.8230 H   0  0  0  0  0  0  0  0  0  0  0  0
   -6.7559   16.0054    4.0958 H   0  0  0  0  0  0  0  0  0  0  0  0
   -4.7497   14.9169    5.4548 H   0  0  0  0  0  0  0  0  0  0  0  0
   -4.7779   12.3260    5.0197 H   0  0  0  0  0  0  0  0  0  0  0  0
   -7.3953   12.7179    5.0034 H   0  0  0  0  0  0  0  0  0  0  0  0
   -6.9694   11.7335    3.5818 H   0  0  0  0  0  0  0  0  0  0  0  0
   -3.7802   13.5363    2.8643 H   0  0  0  0  0  0  0  0  0  0  0  0
   -3.0019    5.7552    1.6199 H   0  0  0  0  0  0  0  0  0  0  0  0
   -1.8146    5.0326    3.6535 H   0  0  0  0  0  0  0  0  0  0  0  0
   -1.8308    4.2836    5.9116 H   0  0  0  0  0  0  0  0  0  0  0  0
   -2.9467    2.9190    6.0323 H   0  0  0  0  0  0  0  0  0  0  0  0
   -3.3381    4.4399    6.8240 H   0  0  0  0  0  0  0  0  0  0  0  0
   -5.5404    4.0192    5.4672 H   0  0  0  0  0  0  0  0  0  0  0  0
   -6.7269    4.7598    3.4422 H   0  0  0  0  0  0  0  0  0  0  0  0
   -7.9455    5.7468   -0.0820 H   0  0  0  0  0  0  0  0  0  0  0  0
   -9.7507    7.3667    0.2187 H   0  0  0  0  0  0  0  0  0  0  0  0
   -9.6717   10.1402    2.7495 H   0  0  0  0  0  0  0  0  0  0  0  0
   -9.9320   10.0744    1.0040 H   0  0  0  0  0  0  0  0  0  0  0  0
  -10.8203    8.9843    2.0584 H   0  0  0  0  0  0  0  0  0  0  0  0
   -7.5403    9.2745    3.3287 H   0  0  0  0  0  0  0  0  0  0  0  0
   -5.7207    7.6589    3.0273 H   0  0  0  0  0  0  0  0  0  0  0  0
   -1.2278    2.1940   -1.6344 H   0  0  0  0  0  0  0  0  0  0  0  0
    0.7149    0.7035   -1.7228 H   0  0  0  0  0  0  0  0  0  0  0  0
    1.4043   -1.7551   -2.1793 H   0  0  0  0  0  0  0  0  0  0  0  0
    1.8590   -1.0669   -3.7349 H   0  0  0  0  0  0  0  0  0  0  0  0
    0.8087   -2.4839   -3.6791 H   0  0  0  0  0  0  0  0  0  0  0  0
   -1.2875   -1.7531   -4.5764 H   0  0  0  0  0  0  0  0  0  0  0  0
   -3.2478   -0.2817   -4.4709 H   0  0  0  0  0  0  0  0  0  0  0  0
   -2.6026    2.3695   -5.3462 H   0  0  0  0  0  0  0  0  0  0  0  0
   -3.9484    2.9173   -7.3250 H   0  0  0  0  0  0  0  0  0  0  0  0
   -6.0439    3.2139   -8.3976 H   0  0  0  0  0  0  0  0  0  0  0  0
   -7.1539    4.0937   -7.3417 H   0  0  0  0  0  0  0  0  0  0  0  0
   -7.4296    2.3879   -7.6718 H   0  0  0  0  0  0  0  0  0  0  0  0
   -7.5130    2.5441   -5.0133 H   0  0  0  0  0  0  0  0  0  0  0  0
   -6.1728    1.9566   -3.0390 H   0  0  0  0  0  0  0  0  0  0  0  0
    0.5957   -0.2441    4.4698 H   0  0  0  0  0  0  0  0  0  0  0  0
    0.8653   -1.7544    3.5803 H   0  0  0  0  0  0  0  0  0  0  0  0
    2.9803   -0.5009    3.7713 H   0  0  0  0  0  0  0  0  0  0  0  0
    2.2567    0.8989    2.9732 H   0  0  0  0  0  0  0  0  0  0  0  0
    2.4807   -0.6130    2.0860 H   0  0  0  0  0  0  0  0  0  0  0  0
   -1.4778    2.5403    3.6572 H   0  0  0  0  0  0  0  0  0  0  0  0
    0.0793    1.8259    4.1350 H   0  0  0  0  0  0  0  0  0  0  0  0
    1.0908    2.7880    2.0200 H   0  0  0  0  0  0  0  0  0  0  0  0
   -0.4713    3.5272    1.6580 H   0  0  0  0  0  0  0  0  0  0  0  0
    0.4448    4.0383    3.0834 H   0  0  0  0  0  0  0  0  0  0  0  0
    0.7103   -2.8359    0.9664 H   0  0  0  0  0  0  0  0  0  0  0  0
    1.2486   -4.7671    2.3986 H   0  0  0  0  0  0  0  0  0  0  0  0
    2.1820   -3.8494    4.4798 H   0  0  0  0  0  0  0  0  0  0  0  0
    4.0352   -2.7571    5.6795 H   0  0  0  0  0  0  0  0  0  0  0  0
    6.3355   -1.8757    5.6856 H   0  0  0  0  0  0  0  0  0  0  0  0
    7.7008   -1.9562    3.6387 H   0  0  0  0  0  0  0  0  0  0  0  0
    6.7740   -2.9067    1.5628 H   0  0  0  0  0  0  0  0  0  0  0  0
    4.9022   -3.9200    0.3505 H   0  0  0  0  0  0  0  0  0  0  0  0
    2.1922   -6.7128   -4.9452 H   0  0  0  0  0  0  0  0  0  0  0  0
    0.5059   -7.4065   -6.7885 H   0  0  0  0  0  0  0  0  0  0  0  0
   -4.7275   -7.1226   -5.8658 H   0  0  0  0  0  0  0  0  0  0  0  0
   -3.7733   -7.1128   -4.3663 H   0  0  0  0  0  0  0  0  0  0  0  0
   -3.7835   -4.8815   -6.4740 H   0  0  0  0  0  0  0  0  0  0  0  0
   -4.6408   -4.8159   -4.9279 H   0  0  0  0  0  0  0  0  0  0  0  0
   -2.8822   -4.8476   -4.9514 H   0  0  0  0  0  0  0  0  0  0  0  0
    2.9118   -8.0894   -3.2994 H   0  0  0  0  0  0  0  0  0  0  0  0
    4.9614   -9.2271   -3.0823 H   0  0  0  0  0  0  0  0  0  0  0  0
    9.5774   -7.7608    0.9263 H   0  0  0  0  0  0  0  0  0  0  0  0
   10.0184  -11.3800   -2.5889 H   0  0  0  0  0  0  0  0  0  0  0  0
   13.1054  -10.4317   -1.4403 H   0  0  0  0  0  0  0  0  0  0  0  0
   13.0525  -12.6870   -0.3878 H   0  0  0  0  0  0  0  0  0  0  0  0
   10.7174  -12.9162    0.7657 H   0  0  0  0  0  0  0  0  0  0  0  0
   10.5216  -11.0333    2.6292 H   0  0  0  0  0  0  0  0  0  0  0  0
   12.7383   -9.6452    2.6260 H   0  0  0  0  0  0  0  0  0  0  0  0
   14.4575  -10.7815    0.8937 H   0  0  0  0  0  0  0  0  0  0  0  0
   13.8299  -11.9868    2.0455 H   0  0  0  0  0  0  0  0  0  0  0  0
   12.9215   -8.6033    0.3717 H   0  0  0  0  0  0  0  0  0  0  0  0
  1  2  2  0  0  0  0
  2  3  1  0  0  0  0
  3  4  2  0  0  0  0
  3  5  1  0  0  0  0
  5  6  2  0  0  0  0
  6  7  1  0  0  0  0
  7  8  2  0  0  0  0
  8  9  1  0  0  0  0
  9 10  2  0  0  0  0
 10 11  1  0  0  0  0
 11 12  2  0  0  0  0
 12 13  1  0  0  0  0
 13 14  3  0  0  0  0
 12 15  1  0  0  0  0
 15 16  3  0  0  0  0
  8 17  1  0  0  0  0
 17 18  1  0  0  0  0
 18 19  1  0  0  0  0
 19 20  2  0  0  0  0
 20 21  1  0  0  0  0
 21 22  1  0  0  0  0
 21 23  1  0  0  0  0
  1 24  1  0  0  0  0
 24 25  2  0  0  0  0
 25 26  1  0  0  0  0
 26 27  1  0  0  0  0
 27 28  2  0  0  0  0
 28 29  1  0  0  0  0
 29 30  2  0  0  0  0
 30 31  1  0  0  0  0
 30 32  1  0  0  0  0
 32 33  2  0  0  0  0
 26 34  1  0  0  0  0
 34 35  2  0  0  0  0
 35 36  1  0  0  0  0
 36 37  2  0  0  0  0
 37 38  1  0  0  0  0
 37 39  1  0  0  0  0
 39 40  2  0  0  0  0
 25 41  1  0  0  0  0
 41 42  1  0  0  0  0
 42 43  1  0  0  0  0
 43 44  2  0  0  0  0
 44 45  1  0  0  0  0
 45 46  1  0  0  0  0
 46 47  2  0  0  0  0
 47 48  1  0  0  0  0
 48 49  2  0  0  0  0
 49 50  1  0  0  0  0
 49 51  1  0  0  0  0
 51 52  2  0  0  0  0
 45 53  1  0  0  0  0
 53 54  2  0  0  0  0
 54 55  1  0  0  0  0
 55 56  2  0  0  0  0
 56 57  1  0  0  0  0
 56 58  1  0  0  0  0
 58 59  2  0  0  0  0
 44 60  1  0  0  0  0
 60 61  1  0  0  0  0
 43 62  1  0  0  0  0
 62 63  2  0  0  0  0
 63 64  1  0  0  0  0
 63 65  1  0  0  0  0
 65 66  1  0  0  0  0
 65 67  2  0  0  0  0
 67 68  1  0  0  0  0
 68 69  2  0  0  0  0
 69 70  1  0  0  0  0
 70 71  1  0  0  0  0
 71 72  1  0  0  0  0
 70 73  2  0  0  0  0
 73 74  1  0  0  0  0
 74 75  2  0  0  0  0
 73 76  1  0  0  0  0
 76 77  1  0  0  0  0
 67 78  1  0  0  0  0
 78 79  2  0  0  0  0
 79 80  1  0  0  0  0
 80 81  2  0  0  0  0
 81 82  1  0  0  0  0
 82 83  2  0  0  0  0
 83 84  1  0  0  0  0
 84 85  2  0  0  0  0
 85 86  1  0  0  0  0
 86 87  2  0  0  0  0
 87 88  1  0  0  0  0
 88 89  2  0  0  0  0
 89 90  1  0  0  0  0
 90 91  2  0  0  0  0
 81 92  1  0  0  0  0
 92 93  2  0  0  0  0
 93 94  1  0  0  0  0
 94 95  1  0  0  0  0
 95 96  2  0  0  0  0
 96 97  1  0  0  0  0
 97 98  2  0  0  0  0
 98 99  1  0  0  0  0
 99100  1  0  0  0  0
100101  1  0  0  0  0
 98102  1  0  0  0  0
 94103  2  0  0  0  0
103104  1  0  0  0  0
 93105  1  0  0  0  0
105106  2  0  0  0  0
106107  1  0  0  0  0
106108  1  0  0  0  0
108109  2  0  0  0  0
109110  1  0  0  0  0
110111  2  0  0  0  0
110112  1  0  0  0  0
112113  2  0  0  0  0
113114  1  0  0  0  0
114115  2  0  0  0  0
115116  1  0  0  0  0
116117  2  0  0  0  0
117118  1  0  0  0  0
118119  2  0  0  0  0
119120  1  0  0  0  0
120121  3  0  0  0  0
119122  1  0  0  0  0
122123  3  0  0  0  0
115124  1  0  0  0  0
124125  1  0  0  0  0
125126  1  0  0  0  0
126127  2  0  0  0  0
127128  1  0  0  0  0
128129  1  0  0  0  0
128130  1  0  0  0  0
 11  2  1  0  0  0  0
 23 17  1  0  0  0  0
 61 24  1  0  0  0  0
 75 62  1  0  0  0  0
104 78  1  0  0  0  0
118109  1  0  0  0  0
130124  1  0  0  0  0
 10  5  1  0  0  0  0
 22 18  1  0  0  0  0
 33 27  1  0  0  0  0
 40 34  1  0  0  0  0
 60 41  2  0  0  0  0
 75 68  1  0  0  0  0
103 80  1  0  0  0  0
117112  1  0  0  0  0
129125  1  0  0  0  0
 23  7  1  0  0  0  0
 52 46  1  0  0  0  0
 59 53  1  0  0  0  0
 91 82  1  0  0  0  0
107 92  1  0  0  0  0
130114  1  0  0  0  0
 90 85  1  0  0  0  0
102 95  1  0  0  0  0
  1131  1  0  0  0  0
  6132  1  0  0  0  0
  9133  1  0  0  0  0
 17134  1  0  0  0  0
 18135  1  0  0  0  0
 19136  1  0  0  0  0
 20137  1  0  0  0  0
 21138  1  0  0  0  0
 22139  1  0  0  0  0
 22140  1  0  0  0  0
 23141  1  0  0  0  0
 28142  1  0  0  0  0
 29143  1  0  0  0  0
 31144  1  0  0  0  0
 31145  1  0  0  0  0
 31146  1  0  0  0  0
 32147  1  0  0  0  0
 33148  1  0  0  0  0
 35149  1  0  0  0  0
 36150  1  0  0  0  0
 38151  1  0  0  0  0
 38152  1  0  0  0  0
 38153  1  0  0  0  0
 39154  1  0  0  0  0
 40155  1  0  0  0  0
 47156  1  0  0  0  0
 48157  1  0  0  0  0
 50158  1  0  0  0  0
 50159  1  0  0  0  0
 50160  1  0  0  0  0
 51161  1  0  0  0  0
 52162  1  0  0  0  0
 54163  1  0  0  0  0
 55164  1  0  0  0  0
 57165  1  0  0  0  0
 57166  1  0  0  0  0
 57167  1  0  0  0  0
 58168  1  0  0  0  0
 59169  1  0  0  0  0
 71170  1  0  0  0  0
 71171  1  0  0  0  0
 72172  1  0  0  0  0
 72173  1  0  0  0  0
 72174  1  0  0  0  0
 76175  1  0  0  0  0
 76176  1  0  0  0  0
 77177  1  0  0  0  0
 77178  1  0  0  0  0
 77179  1  0  0  0  0
 79180  1  0  0  0  0
 83181  1  0  0  0  0
 84182  1  0  0  0  0
 86183  1  0  0  0  0
 87184  1  0  0  0  0
 88185  1  0  0  0  0
 89186  1  0  0  0  0
 91187  1  0  0  0  0
 96188  1  0  0  0  0
 97189  1  0  0  0  0
100190  1  0  0  0  0
100191  1  0  0  0  0
101192  1  0  0  0  0
101193  1  0  0  0  0
101194  1  0  0  0  0
105195  1  0  0  0  0
108196  1  0  0  0  0
113197  1  0  0  0  0
116198  1  0  0  0  0
124199  1  0  0  0  0
125200  1  0  0  0  0
126201  1  0  0  0  0
127202  1  0  0  0  0
128203  1  0  0  0  0
129204  1  0  0  0  0
129205  1  0  0  0  0
130206  1  0  0  0  0
M  END
