
  xtb     02132213573D
 energy: -374.544317194633 gnorm: 0.000377977717 xtb: 6.4.1 (unknown)
230253  0     0  0            999 V2000
   -4.3865    1.8987   -7.8484 C   0  0  0  0  0  0  0  0  0  0  0  0
   -3.9967    2.7054   -8.8952 C   0  0  0  0  0  0  0  0  0  0  0  0
   -3.1268    3.8829   -8.7500 C   0  0  0  0  0  0  0  0  0  0  0  0
   -2.6104    4.2989   -7.7290 O   0  0  0  0  0  0  0  0  0  0  0  0
   -3.1187    4.5402  -10.0751 C   0  0  0  0  0  0  0  0  0  0  0  0
   -2.4304    5.6940  -10.4369 C   0  0  0  0  0  0  0  0  0  0  0  0
   -2.5945    6.0542  -11.7540 C   0  0  0  0  0  0  0  0  0  0  0  0
   -3.4056    5.3357  -12.6397 C   0  0  0  0  0  0  0  0  0  0  0  0
   -4.0996    4.2006  -12.2922 C   0  0  0  0  0  0  0  0  0  0  0  0
   -3.9261    3.8055  -10.9641 C   0  0  0  0  0  0  0  0  0  0  0  0
   -4.4553    2.6434  -10.2537 C   0  0  0  0  0  0  0  0  0  0  0  0
   -5.1135    1.5809  -10.8255 C   0  0  0  0  0  0  0  0  0  0  0  0
   -5.4351    1.4853  -12.1909 C   0  0  0  0  0  0  0  0  0  0  0  0
   -5.7040    1.3384  -13.2989 N   0  0  0  0  0  0  0  0  0  0  0  0
   -5.4629    0.4066  -10.1305 C   0  0  0  0  0  0  0  0  0  0  0  0
   -5.7431   -0.5930   -9.6381 N   0  0  0  0  0  0  0  0  0  0  0  0
   -3.1028    6.2589  -13.7947 C   0  0  0  0  0  0  0  0  0  0  0  0
   -2.1022    5.7345  -14.8459 C   0  0  0  0  0  0  0  0  0  0  0  0
   -1.6316    6.9830  -15.5560 C   0  0  0  0  0  0  0  0  0  0  0  0
   -0.8527    7.6546  -14.7176 C   0  0  0  0  0  0  0  0  0  0  0  0
   -0.7850    6.8717  -13.4263 C   0  0  0  0  0  0  0  0  0  0  0  0
   -0.8708    5.4433  -13.9790 C   0  0  0  0  0  0  0  0  0  0  0  0
   -2.1882    7.0543  -12.8089 C   0  0  0  0  0  0  0  0  0  0  0  0
   -3.6826    1.6925   -6.6589 C   0  0  0  0  0  0  0  0  0  0  0  0
   -2.3112    1.8126   -6.3511 C   0  0  0  0  0  0  0  0  0  0  0  0
   -1.2885    2.0404   -7.2272 N   0  0  0  0  0  0  0  0  0  0  0  0
   -1.3545    1.7115   -8.5870 C   0  0  0  0  0  0  0  0  0  0  0  0
   -1.9882    0.5482   -9.0235 C   0  0  0  0  0  0  0  0  0  0  0  0
   -2.0746    0.2684  -10.3708 C   0  0  0  0  0  0  0  0  0  0  0  0
   -1.5342    1.1287  -11.3241 C   0  0  0  0  0  0  0  0  0  0  0  0
   -1.6899    0.8369  -12.7834 C   0  0  0  0  0  0  0  0  0  0  0  0
   -0.8625    2.2589  -10.8791 C   0  0  0  0  0  0  0  0  0  0  0  0
   -0.7698    2.5526   -9.5318 C   0  0  0  0  0  0  0  0  0  0  0  0
   -0.0937    2.6180   -6.7447 C   0  0  0  0  0  0  0  0  0  0  0  0
   -0.1372    3.7432   -5.9272 C   0  0  0  0  0  0  0  0  0  0  0  0
    1.0370    4.3022   -5.4664 C   0  0  0  0  0  0  0  0  0  0  0  0
    2.2726    3.7618   -5.8076 C   0  0  0  0  0  0  0  0  0  0  0  0
    3.5362    4.3720   -5.2837 C   0  0  0  0  0  0  0  0  0  0  0  0
    2.3026    2.6447   -6.6328 C   0  0  0  0  0  0  0  0  0  0  0  0
    1.1348    2.0728   -7.1000 C   0  0  0  0  0  0  0  0  0  0  0  0
   -2.0860    1.5283   -4.9816 C   0  0  0  0  0  0  0  0  0  0  0  0
   -0.6633    1.4421   -3.9894 S   0  0  0  0  0  0  0  0  0  0  0  0
   -1.6252    0.9235   -2.6371 C   0  0  0  0  0  0  0  0  0  0  0  0
   -2.9585    0.7606   -2.9433 C   0  0  0  0  0  0  0  0  0  0  0  0
   -3.8584    0.1902   -2.0525 N   0  0  0  0  0  0  0  0  0  0  0  0
   -5.1294    0.7212   -1.8554 C   0  0  0  0  0  0  0  0  0  0  0  0
   -5.3832    2.0644   -2.1304 C   0  0  0  0  0  0  0  0  0  0  0  0
   -6.6544    2.5766   -1.9721 C   0  0  0  0  0  0  0  0  0  0  0  0
   -7.7026    1.7788   -1.5266 C   0  0  0  0  0  0  0  0  0  0  0  0
   -9.0806    2.3511   -1.3764 C   0  0  0  0  0  0  0  0  0  0  0  0
   -7.4354    0.4475   -1.2339 C   0  0  0  0  0  0  0  0  0  0  0  0
   -6.1704   -0.0815   -1.3950 C   0  0  0  0  0  0  0  0  0  0  0  0
   -3.4189   -0.9846   -1.4079 C   0  0  0  0  0  0  0  0  0  0  0  0
   -2.8817   -2.0198   -2.1668 C   0  0  0  0  0  0  0  0  0  0  0  0
   -2.3726   -3.1459   -1.5495 C   0  0  0  0  0  0  0  0  0  0  0  0
   -2.3735   -3.2616   -0.1666 C   0  0  0  0  0  0  0  0  0  0  0  0
   -1.7899   -4.4544    0.5264 C   0  0  0  0  0  0  0  0  0  0  0  0
   -2.9325   -2.2304    0.5806 C   0  0  0  0  0  0  0  0  0  0  0  0
   -3.4591   -1.1074   -0.0235 C   0  0  0  0  0  0  0  0  0  0  0  0
   -3.2183    1.1304   -4.2839 C   0  0  0  0  0  0  0  0  0  0  0  0
   -4.6230    1.1059   -5.2762 S   0  0  0  0  0  0  0  0  0  0  0  0
   -1.0703    0.6695   -1.3110 C   0  0  0  0  0  0  0  0  0  0  0  0
   -1.3327    1.5130   -0.2535 C   0  0  0  0  0  0  0  0  0  0  0  0
   -1.9956    2.6628   -0.4702 F   0  0  0  0  0  0  0  0  0  0  0  0
   -0.9159    1.2405    1.0553 C   0  0  0  0  0  0  0  0  0  0  0  0
   -1.0502    2.2354    1.9501 F   0  0  0  0  0  0  0  0  0  0  0  0
   -0.3331    0.0294    1.4059 C   0  0  0  0  0  0  0  0  0  0  0  0
    0.0155   -0.8162    0.3079 C   0  0  0  0  0  0  0  0  0  0  0  0
    0.6996   -1.9362    0.5581 N   0  0  0  0  0  0  0  0  0  0  0  0
    1.0867   -2.7123   -0.4247 C   0  0  0  0  0  0  0  0  0  0  0  0
    1.8930   -3.9125   -0.0414 C   0  0  0  0  0  0  0  0  0  0  0  0
    3.3684   -3.5323    0.0998 C   0  0  0  0  0  0  0  0  0  0  0  0
    0.7765   -2.3629   -1.7689 C   0  0  0  0  0  0  0  0  0  0  0  0
    0.0914   -1.2803   -2.0368 N   0  0  0  0  0  0  0  0  0  0  0  0
   -0.3050   -0.4865   -1.0302 C   0  0  0  0  0  0  0  0  0  0  0  0
    1.2068   -3.2063   -2.9314 C   0  0  0  0  0  0  0  0  0  0  0  0
    0.7605   -2.6208   -4.2641 C   0  0  0  0  0  0  0  0  0  0  0  0
    0.0249   -0.3733    2.7328 C   0  0  0  0  0  0  0  0  0  0  0  0
   -0.3781    0.1396    3.9652 C   0  0  0  0  0  0  0  0  0  0  0  0
   -1.4065    1.0385    4.2029 N   0  0  0  0  0  0  0  0  0  0  0  0
   -2.6960    0.7869    3.7110 C   0  0  0  0  0  0  0  0  0  0  0  0
   -3.5174    1.8367    3.3082 C   0  0  0  0  0  0  0  0  0  0  0  0
   -4.7971    1.5965    2.8503 C   0  0  0  0  0  0  0  0  0  0  0  0
   -5.2897    0.2979    2.8091 C   0  0  0  0  0  0  0  0  0  0  0  0
   -6.9077   -0.1289    2.2531 S   0  0  0  0  0  0  0  0  0  0  0  0
   -7.7247    1.4758    2.0385 C   0  0  0  0  0  0  0  0  0  0  0  0
   -4.4744   -0.7544    3.2228 C   0  0  0  0  0  0  0  0  0  0  0  0
   -3.1888   -0.5163    3.6573 C   0  0  0  0  0  0  0  0  0  0  0  0
   -1.1834    2.0503    5.1406 C   0  0  0  0  0  0  0  0  0  0  0  0
    0.0776    2.6358    5.2326 C   0  0  0  0  0  0  0  0  0  0  0  0
    0.3400    3.6084    6.1758 C   0  0  0  0  0  0  0  0  0  0  0  0
   -0.6617    4.0211    7.0432 C   0  0  0  0  0  0  0  0  0  0  0  0
   -0.4460    5.2523    8.2902 S   0  0  0  0  0  0  0  0  0  0  0  0
    1.3464    5.5420    8.3051 C   0  0  0  0  0  0  0  0  0  0  0  0
   -1.9303    3.4530    6.9424 C   0  0  0  0  0  0  0  0  0  0  0  0
   -2.1901    2.4771    6.0077 C   0  0  0  0  0  0  0  0  0  0  0  0
    0.3672   -0.4372    5.0217 C   0  0  0  0  0  0  0  0  0  0  0  0
    0.3797   -0.2081    6.7330 S   0  0  0  0  0  0  0  0  0  0  0  0
    1.6828   -1.3849    6.8997 C   0  0  0  0  0  0  0  0  0  0  0  0
    2.0151   -1.9806    5.6801 C   0  0  0  0  0  0  0  0  0  0  0  0
    2.8138   -3.0793    5.4835 N   0  0  0  0  0  0  0  0  0  0  0  0
    3.9167   -3.3850    6.3235 C   0  0  0  0  0  0  0  0  0  0  0  0
    3.7810   -4.3325    7.3341 C   0  0  0  0  0  0  0  0  0  0  0  0
    4.8470   -4.6072    8.1622 C   0  0  0  0  0  0  0  0  0  0  0  0
    6.0666   -3.9535    7.9841 C   0  0  0  0  0  0  0  0  0  0  0  0
    7.3267   -4.3242    9.1586 S   0  0  0  0  0  0  0  0  0  0  0  0
    8.7619   -3.3746    8.5817 C   0  0  0  0  0  0  0  0  0  0  0  0
    6.2187   -3.0582    6.9335 C   0  0  0  0  0  0  0  0  0  0  0  0
    5.1469   -2.7819    6.1039 C   0  0  0  0  0  0  0  0  0  0  0  0
    2.4328   -4.0749    4.5733 C   0  0  0  0  0  0  0  0  0  0  0  0
    1.0888   -4.3781    4.3458 C   0  0  0  0  0  0  0  0  0  0  0  0
    0.7396   -5.3587    3.4465 C   0  0  0  0  0  0  0  0  0  0  0  0
    1.7201   -6.0709    2.7573 C   0  0  0  0  0  0  0  0  0  0  0  0
    1.1446   -7.2643    1.5894 S   0  0  0  0  0  0  0  0  0  0  0  0
    2.6654   -8.0261    0.9559 C   0  0  0  0  0  0  0  0  0  0  0  0
    3.0580   -5.8032    3.0111 C   0  0  0  0  0  0  0  0  0  0  0  0
    3.4077   -4.8154    3.9112 C   0  0  0  0  0  0  0  0  0  0  0  0
    1.2651   -1.4071    4.6213 C   0  0  0  0  0  0  0  0  0  0  0  0
    1.2006   -1.6700    2.9037 S   0  0  0  0  0  0  0  0  0  0  0  0
    2.1716   -1.6242    8.2112 C   0  0  0  0  0  0  0  0  0  0  0  0
    3.4842   -1.5133    8.5691 C   0  0  0  0  0  0  0  0  0  0  0  0
    4.4392   -0.6735    7.8142 C   0  0  0  0  0  0  0  0  0  0  0  0
    4.2577   -0.1272    6.7454 O   0  0  0  0  0  0  0  0  0  0  0  0
    5.6147   -0.5300    8.6967 C   0  0  0  0  0  0  0  0  0  0  0  0
    6.7704    0.2043    8.4396 C   0  0  0  0  0  0  0  0  0  0  0  0
    7.7142    0.1326    9.4371 C   0  0  0  0  0  0  0  0  0  0  0  0
    7.5230   -0.6115   10.6093 C   0  0  0  0  0  0  0  0  0  0  0  0
    6.3859   -1.3361   10.8791 C   0  0  0  0  0  0  0  0  0  0  0  0
    5.4142   -1.2737    9.8772 C   0  0  0  0  0  0  0  0  0  0  0  0
    4.1090   -1.9216    9.8009 C   0  0  0  0  0  0  0  0  0  0  0  0
    3.6049   -2.8545   10.6710 C   0  0  0  0  0  0  0  0  0  0  0  0
    2.4073   -3.5569   10.4287 C   0  0  0  0  0  0  0  0  0  0  0  0
    1.4620   -4.1871   10.2597 N   0  0  0  0  0  0  0  0  0  0  0  0
    4.2379   -3.2669   11.8587 C   0  0  0  0  0  0  0  0  0  0  0  0
    4.6993   -3.6300   12.8458 N   0  0  0  0  0  0  0  0  0  0  0  0
    8.8718   -0.2303   11.1676 C   0  0  0  0  0  0  0  0  0  0  0  0
    8.8798    0.8530   12.2663 C   0  0  0  0  0  0  0  0  0  0  0  0
   10.3053    1.3559   12.2689 C   0  0  0  0  0  0  0  0  0  0  0  0
   10.4865    2.0614   11.1598 C   0  0  0  0  0  0  0  0  0  0  0  0
    9.1862    2.0467   10.3887 C   0  0  0  0  0  0  0  0  0  0  0  0
    8.1887    2.0230   11.5540 C   0  0  0  0  0  0  0  0  0  0  0  0
    9.0859    0.5999    9.8608 C   0  0  0  0  0  0  0  0  0  0  0  0
   -5.3401    1.3887   -7.9189 H   0  0  0  0  0  0  0  0  0  0  0  0
   -1.8235    6.2265   -9.7210 H   0  0  0  0  0  0  0  0  0  0  0  0
   -4.7299    3.6623  -12.9804 H   0  0  0  0  0  0  0  0  0  0  0  0
   -3.9578    6.7678  -14.2355 H   0  0  0  0  0  0  0  0  0  0  0  0
   -2.4783    4.9281  -15.4696 H   0  0  0  0  0  0  0  0  0  0  0  0
   -1.9486    7.2682  -16.5420 H   0  0  0  0  0  0  0  0  0  0  0  0
   -0.3896    8.6130  -14.8633 H   0  0  0  0  0  0  0  0  0  0  0  0
    0.0408    7.1016  -12.7578 H   0  0  0  0  0  0  0  0  0  0  0  0
   -1.0402    4.6843  -13.2174 H   0  0  0  0  0  0  0  0  0  0  0  0
    0.0013    5.1781  -14.5750 H   0  0  0  0  0  0  0  0  0  0  0  0
   -2.4280    8.0953  -12.5997 H   0  0  0  0  0  0  0  0  0  0  0  0
   -2.4175   -0.1335   -8.3047 H   0  0  0  0  0  0  0  0  0  0  0  0
   -2.5787   -0.6316  -10.6920 H   0  0  0  0  0  0  0  0  0  0  0  0
   -1.0956    1.5208  -13.3839 H   0  0  0  0  0  0  0  0  0  0  0  0
   -1.3852   -0.1844  -13.0051 H   0  0  0  0  0  0  0  0  0  0  0  0
   -2.7345    0.9395  -13.0788 H   0  0  0  0  0  0  0  0  0  0  0  0
   -0.4146    2.9320  -11.5960 H   0  0  0  0  0  0  0  0  0  0  0  0
   -0.2570    3.4439   -9.2032 H   0  0  0  0  0  0  0  0  0  0  0  0
   -1.0928    4.1834   -5.6905 H   0  0  0  0  0  0  0  0  0  0  0  0
    0.9966    5.1794   -4.8374 H   0  0  0  0  0  0  0  0  0  0  0  0
    3.6676    4.1109   -4.2334 H   0  0  0  0  0  0  0  0  0  0  0  0
    3.4971    5.4573   -5.3536 H   0  0  0  0  0  0  0  0  0  0  0  0
    4.4017    4.0141   -5.8356 H   0  0  0  0  0  0  0  0  0  0  0  0
    3.2525    2.2124   -6.9128 H   0  0  0  0  0  0  0  0  0  0  0  0
    1.1686    1.2031   -7.7401 H   0  0  0  0  0  0  0  0  0  0  0  0
   -4.5789    2.7061   -2.4579 H   0  0  0  0  0  0  0  0  0  0  0  0
   -6.8368    3.6185   -2.1942 H   0  0  0  0  0  0  0  0  0  0  0  0
   -9.4699    2.6542   -2.3480 H   0  0  0  0  0  0  0  0  0  0  0  0
   -9.7610    1.6194   -0.9478 H   0  0  0  0  0  0  0  0  0  0  0  0
   -9.0667    3.2332   -0.7365 H   0  0  0  0  0  0  0  0  0  0  0  0
   -8.2296   -0.1933   -0.8789 H   0  0  0  0  0  0  0  0  0  0  0  0
   -5.9862   -1.1211   -1.1705 H   0  0  0  0  0  0  0  0  0  0  0  0
   -2.8592   -1.9306   -3.2428 H   0  0  0  0  0  0  0  0  0  0  0  0
   -1.9632   -3.9429   -2.1537 H   0  0  0  0  0  0  0  0  0  0  0  0
   -1.0567   -4.1357    1.2661 H   0  0  0  0  0  0  0  0  0  0  0  0
   -1.3039   -5.1239   -0.1784 H   0  0  0  0  0  0  0  0  0  0  0  0
   -2.5704   -5.0099    1.0453 H   0  0  0  0  0  0  0  0  0  0  0  0
   -2.9407   -2.3060    1.6564 H   0  0  0  0  0  0  0  0  0  0  0  0
   -3.8834   -0.3127    0.5711 H   0  0  0  0  0  0  0  0  0  0  0  0
    1.5341   -4.2649    0.9252 H   0  0  0  0  0  0  0  0  0  0  0  0
    1.7769   -4.7063   -0.7789 H   0  0  0  0  0  0  0  0  0  0  0  0
    3.4750   -2.7646    0.8616 H   0  0  0  0  0  0  0  0  0  0  0  0
    3.7669   -3.1522   -0.8385 H   0  0  0  0  0  0  0  0  0  0  0  0
    3.9517   -4.3988    0.4001 H   0  0  0  0  0  0  0  0  0  0  0  0
    2.2956   -3.3058   -2.9120 H   0  0  0  0  0  0  0  0  0  0  0  0
    0.7880   -4.2094   -2.8079 H   0  0  0  0  0  0  0  0  0  0  0  0
    1.0906   -3.2553   -5.0830 H   0  0  0  0  0  0  0  0  0  0  0  0
   -0.3220   -2.5393   -4.2916 H   0  0  0  0  0  0  0  0  0  0  0  0
    1.1739   -1.6249   -4.3960 H   0  0  0  0  0  0  0  0  0  0  0  0
   -3.1412    2.8474    3.3448 H   0  0  0  0  0  0  0  0  0  0  0  0
   -5.3965    2.4303    2.5232 H   0  0  0  0  0  0  0  0  0  0  0  0
   -7.2653    2.0191    1.2179 H   0  0  0  0  0  0  0  0  0  0  0  0
   -7.6824    2.0367    2.9676 H   0  0  0  0  0  0  0  0  0  0  0  0
   -8.7567    1.2473    1.7921 H   0  0  0  0  0  0  0  0  0  0  0  0
   -4.8707   -1.7582    3.2019 H   0  0  0  0  0  0  0  0  0  0  0  0
   -2.5647   -1.3353    3.9853 H   0  0  0  0  0  0  0  0  0  0  0  0
    0.8593    2.3278    4.5543 H   0  0  0  0  0  0  0  0  0  0  0  0
    1.3278    4.0378    6.2166 H   0  0  0  0  0  0  0  0  0  0  0  0
    1.5285    6.2089    9.1421 H   0  0  0  0  0  0  0  0  0  0  0  0
    1.8682    4.6021    8.4591 H   0  0  0  0  0  0  0  0  0  0  0  0
    1.6574    6.0203    7.3807 H   0  0  0  0  0  0  0  0  0  0  0  0
   -2.7053    3.7785    7.6193 H   0  0  0  0  0  0  0  0  0  0  0  0
   -3.1702    2.0279    5.9561 H   0  0  0  0  0  0  0  0  0  0  0  0
    2.8334   -4.8280    7.4826 H   0  0  0  0  0  0  0  0  0  0  0  0
    4.7469   -5.3221    8.9650 H   0  0  0  0  0  0  0  0  0  0  0  0
    9.0476   -3.7018    7.5864 H   0  0  0  0  0  0  0  0  0  0  0  0
    9.5577   -3.5995    9.2849 H   0  0  0  0  0  0  0  0  0  0  0  0
    8.5383   -2.3119    8.6046 H   0  0  0  0  0  0  0  0  0  0  0  0
    7.1606   -2.5663    6.7529 H   0  0  0  0  0  0  0  0  0  0  0  0
    5.2541   -2.0728    5.2972 H   0  0  0  0  0  0  0  0  0  0  0  0
    0.3189   -3.8538    4.8905 H   0  0  0  0  0  0  0  0  0  0  0  0
   -0.2988   -5.5955    3.2725 H   0  0  0  0  0  0  0  0  0  0  0  0
    3.2145   -8.4906    1.7695 H   0  0  0  0  0  0  0  0  0  0  0  0
    2.3404   -8.7854    0.2515 H   0  0  0  0  0  0  0  0  0  0  0  0
    3.2698   -7.2831    0.4435 H   0  0  0  0  0  0  0  0  0  0  0  0
    3.8412   -6.3521    2.5138 H   0  0  0  0  0  0  0  0  0  0  0  0
    4.4512   -4.6119    4.0981 H   0  0  0  0  0  0  0  0  0  0  0  0
    1.4239   -1.8079    8.9753 H   0  0  0  0  0  0  0  0  0  0  0  0
    6.8825    0.7580    7.5201 H   0  0  0  0  0  0  0  0  0  0  0  0
    6.2499   -1.9074   11.7820 H   0  0  0  0  0  0  0  0  0  0  0  0
    9.5495   -1.0554   11.3791 H   0  0  0  0  0  0  0  0  0  0  0  0
    8.4708    0.5347   13.2211 H   0  0  0  0  0  0  0  0  0  0  0  0
   11.0271    1.1093   13.0252 H   0  0  0  0  0  0  0  0  0  0  0  0
   11.3896    2.5217   10.8042 H   0  0  0  0  0  0  0  0  0  0  0  0
    9.0565    2.8174    9.6333 H   0  0  0  0  0  0  0  0  0  0  0  0
    8.2208    2.9391   12.1415 H   0  0  0  0  0  0  0  0  0  0  0  0
    7.1622    1.8177   11.2562 H   0  0  0  0  0  0  0  0  0  0  0  0
    9.9099    0.3310    9.2012 H   0  0  0  0  0  0  0  0  0  0  0  0
  1  2  2  0  0  0  0
  2  3  1  0  0  0  0
  3  4  2  0  0  0  0
  3  5  1  0  0  0  0
  5  6  2  0  0  0  0
  6  7  1  0  0  0  0
  7  8  2  0  0  0  0
  8  9  1  0  0  0  0
  9 10  2  0  0  0  0
 10 11  1  0  0  0  0
 11 12  2  0  0  0  0
 12 13  1  0  0  0  0
 13 14  3  0  0  0  0
 12 15  1  0  0  0  0
 15 16  3  0  0  0  0
  8 17  1  0  0  0  0
 17 18  1  0  0  0  0
 18 19  1  0  0  0  0
 19 20  2  0  0  0  0
 20 21  1  0  0  0  0
 21 22  1  0  0  0  0
 21 23  1  0  0  0  0
  1 24  1  0  0  0  0
 24 25  2  0  0  0  0
 25 26  1  0  0  0  0
 26 27  1  0  0  0  0
 27 28  2  0  0  0  0
 28 29  1  0  0  0  0
 29 30  2  0  0  0  0
 30 31  1  0  0  0  0
 30 32  1  0  0  0  0
 32 33  2  0  0  0  0
 26 34  1  0  0  0  0
 34 35  2  0  0  0  0
 35 36  1  0  0  0  0
 36 37  2  0  0  0  0
 37 38  1  0  0  0  0
 37 39  1  0  0  0  0
 39 40  2  0  0  0  0
 25 41  1  0  0  0  0
 41 42  1  0  0  0  0
 42 43  1  0  0  0  0
 43 44  2  0  0  0  0
 44 45  1  0  0  0  0
 45 46  1  0  0  0  0
 46 47  2  0  0  0  0
 47 48  1  0  0  0  0
 48 49  2  0  0  0  0
 49 50  1  0  0  0  0
 49 51  1  0  0  0  0
 51 52  2  0  0  0  0
 45 53  1  0  0  0  0
 53 54  2  0  0  0  0
 54 55  1  0  0  0  0
 55 56  2  0  0  0  0
 56 57  1  0  0  0  0
 56 58  1  0  0  0  0
 58 59  2  0  0  0  0
 44 60  1  0  0  0  0
 60 61  1  0  0  0  0
 43 62  1  0  0  0  0
 62 63  2  0  0  0  0
 63 64  1  0  0  0  0
 63 65  1  0  0  0  0
 65 66  1  0  0  0  0
 65 67  2  0  0  0  0
 67 68  1  0  0  0  0
 68 69  2  0  0  0  0
 69 70  1  0  0  0  0
 70 71  1  0  0  0  0
 71 72  1  0  0  0  0
 70 73  2  0  0  0  0
 73 74  1  0  0  0  0
 74 75  2  0  0  0  0
 73 76  1  0  0  0  0
 76 77  1  0  0  0  0
 67 78  1  0  0  0  0
 78 79  2  0  0  0  0
 79 80  1  0  0  0  0
 80 81  1  0  0  0  0
 81 82  2  0  0  0  0
 82 83  1  0  0  0  0
 83 84  2  0  0  0  0
 84 85  1  0  0  0  0
 85 86  1  0  0  0  0
 84 87  1  0  0  0  0
 87 88  2  0  0  0  0
 80 89  1  0  0  0  0
 89 90  2  0  0  0  0
 90 91  1  0  0  0  0
 91 92  2  0  0  0  0
 92 93  1  0  0  0  0
 93 94  1  0  0  0  0
 92 95  1  0  0  0  0
 95 96  2  0  0  0  0
 79 97  1  0  0  0  0
 97 98  1  0  0  0  0
 98 99  1  0  0  0  0
 99100  2  0  0  0  0
100101  1  0  0  0  0
101102  1  0  0  0  0
102103  2  0  0  0  0
103104  1  0  0  0  0
104105  2  0  0  0  0
105106  1  0  0  0  0
106107  1  0  0  0  0
105108  1  0  0  0  0
108109  2  0  0  0  0
101110  1  0  0  0  0
110111  2  0  0  0  0
111112  1  0  0  0  0
112113  2  0  0  0  0
113114  1  0  0  0  0
114115  1  0  0  0  0
113116  1  0  0  0  0
116117  2  0  0  0  0
100118  1  0  0  0  0
118119  1  0  0  0  0
 99120  1  0  0  0  0
120121  2  0  0  0  0
121122  1  0  0  0  0
122123  2  0  0  0  0
122124  1  0  0  0  0
124125  2  0  0  0  0
125126  1  0  0  0  0
126127  2  0  0  0  0
127128  1  0  0  0  0
128129  2  0  0  0  0
129130  1  0  0  0  0
130131  2  0  0  0  0
131132  1  0  0  0  0
132133  3  0  0  0  0
131134  1  0  0  0  0
134135  3  0  0  0  0
127136  1  0  0  0  0
136137  1  0  0  0  0
137138  1  0  0  0  0
138139  2  0  0  0  0
139140  1  0  0  0  0
140141  1  0  0  0  0
140142  1  0  0  0  0
 11  2  1  0  0  0  0
 23 17  1  0  0  0  0
 61 24  1  0  0  0  0
 75 62  1  0  0  0  0
119 78  1  0  0  0  0
130121  1  0  0  0  0
142136  1  0  0  0  0
 10  5  1  0  0  0  0
 22 18  1  0  0  0  0
 33 27  1  0  0  0  0
 40 34  1  0  0  0  0
 60 41  2  0  0  0  0
 75 68  1  0  0  0  0
 88 81  1  0  0  0  0
 96 89  1  0  0  0  0
118 97  2  0  0  0  0
129124  1  0  0  0  0
141137  1  0  0  0  0
 23  7  1  0  0  0  0
 52 46  1  0  0  0  0
 59 53  1  0  0  0  0
109102  1  0  0  0  0
117110  1  0  0  0  0
142126  1  0  0  0  0
  1143  1  0  0  0  0
  6144  1  0  0  0  0
  9145  1  0  0  0  0
 17146  1  0  0  0  0
 18147  1  0  0  0  0
 19148  1  0  0  0  0
 20149  1  0  0  0  0
 21150  1  0  0  0  0
 22151  1  0  0  0  0
 22152  1  0  0  0  0
 23153  1  0  0  0  0
 28154  1  0  0  0  0
 29155  1  0  0  0  0
 31156  1  0  0  0  0
 31157  1  0  0  0  0
 31158  1  0  0  0  0
 32159  1  0  0  0  0
 33160  1  0  0  0  0
 35161  1  0  0  0  0
 36162  1  0  0  0  0
 38163  1  0  0  0  0
 38164  1  0  0  0  0
 38165  1  0  0  0  0
 39166  1  0  0  0  0
 40167  1  0  0  0  0
 47168  1  0  0  0  0
 48169  1  0  0  0  0
 50170  1  0  0  0  0
 50171  1  0  0  0  0
 50172  1  0  0  0  0
 51173  1  0  0  0  0
 52174  1  0  0  0  0
 54175  1  0  0  0  0
 55176  1  0  0  0  0
 57177  1  0  0  0  0
 57178  1  0  0  0  0
 57179  1  0  0  0  0
 58180  1  0  0  0  0
 59181  1  0  0  0  0
 71182  1  0  0  0  0
 71183  1  0  0  0  0
 72184  1  0  0  0  0
 72185  1  0  0  0  0
 72186  1  0  0  0  0
 76187  1  0  0  0  0
 76188  1  0  0  0  0
 77189  1  0  0  0  0
 77190  1  0  0  0  0
 77191  1  0  0  0  0
 82192  1  0  0  0  0
 83193  1  0  0  0  0
 86194  1  0  0  0  0
 86195  1  0  0  0  0
 86196  1  0  0  0  0
 87197  1  0  0  0  0
 88198  1  0  0  0  0
 90199  1  0  0  0  0
 91200  1  0  0  0  0
 94201  1  0  0  0  0
 94202  1  0  0  0  0
 94203  1  0  0  0  0
 95204  1  0  0  0  0
 96205  1  0  0  0  0
103206  1  0  0  0  0
104207  1  0  0  0  0
107208  1  0  0  0  0
107209  1  0  0  0  0
107210  1  0  0  0  0
108211  1  0  0  0  0
109212  1  0  0  0  0
111213  1  0  0  0  0
112214  1  0  0  0  0
115215  1  0  0  0  0
115216  1  0  0  0  0
115217  1  0  0  0  0
116218  1  0  0  0  0
117219  1  0  0  0  0
120220  1  0  0  0  0
125221  1  0  0  0  0
128222  1  0  0  0  0
136223  1  0  0  0  0
137224  1  0  0  0  0
138225  1  0  0  0  0
139226  1  0  0  0  0
140227  1  0  0  0  0
141228  1  0  0  0  0
141229  1  0  0  0  0
142230  1  0  0  0  0
M  END
