
  xtb     02132204223D
 energy: -382.054254633101 gnorm: 0.000627455454 xtb: 6.4.1 (unknown)
234258  0     0  0            999 V2000
    7.3005    0.9967   -3.3367 C   0  0  0  0  0  0  0  0  0  0  0  0
    7.9807    0.8042   -4.5160 C   0  0  0  0  0  0  0  0  0  0  0  0
    7.5100    0.0390   -5.6724 C   0  0  0  0  0  0  0  0  0  0  0  0
    6.5208   -0.6706   -5.7457 O   0  0  0  0  0  0  0  0  0  0  0  0
    8.4694    0.3052   -6.7600 C   0  0  0  0  0  0  0  0  0  0  0  0
    8.4149   -0.1780   -8.0642 C   0  0  0  0  0  0  0  0  0  0  0  0
    9.4479    0.2509   -8.8631 C   0  0  0  0  0  0  0  0  0  0  0  0
   10.4605    1.0990   -8.3978 C   0  0  0  0  0  0  0  0  0  0  0  0
   10.5253    1.5831   -7.1122 C   0  0  0  0  0  0  0  0  0  0  0  0
    9.4842    1.1589   -6.2829 C   0  0  0  0  0  0  0  0  0  0  0  0
    9.2213    1.4503   -4.8732 C   0  0  0  0  0  0  0  0  0  0  0  0
   10.0318    2.1971   -4.0517 C   0  0  0  0  0  0  0  0  0  0  0  0
    9.8538    2.3750   -2.6663 C   0  0  0  0  0  0  0  0  0  0  0  0
    9.8095    2.5416   -1.5291 N   0  0  0  0  0  0  0  0  0  0  0  0
   11.1905    2.8766   -4.4760 C   0  0  0  0  0  0  0  0  0  0  0  0
   12.1347    3.4727   -4.7471 N   0  0  0  0  0  0  0  0  0  0  0  0
   11.1695    1.1146   -9.7292 C   0  0  0  0  0  0  0  0  0  0  0  0
   12.4422    0.2453   -9.8797 C   0  0  0  0  0  0  0  0  0  0  0  0
   12.3049   -0.8895   -8.8954 C   0  0  0  0  0  0  0  0  0  0  0  0
   11.3463   -1.6935   -9.3356 C   0  0  0  0  0  0  0  0  0  0  0  0
   10.8180   -1.1167  -10.6256 C   0  0  0  0  0  0  0  0  0  0  0  0
   12.1031   -0.4880  -11.1874 C   0  0  0  0  0  0  0  0  0  0  0  0
   10.0409    0.1685  -10.2476 C   0  0  0  0  0  0  0  0  0  0  0  0
    6.0744    0.4939   -2.9027 C   0  0  0  0  0  0  0  0  0  0  0  0
    5.4753    0.8900   -1.6815 C   0  0  0  0  0  0  0  0  0  0  0  0
    5.9074    1.8957   -0.8572 N   0  0  0  0  0  0  0  0  0  0  0  0
    6.4202    3.1121   -1.3380 C   0  0  0  0  0  0  0  0  0  0  0  0
    5.9551    3.6609   -2.5312 C   0  0  0  0  0  0  0  0  0  0  0  0
    6.4815    4.8486   -2.9972 C   0  0  0  0  0  0  0  0  0  0  0  0
    7.4622    5.5291   -2.2846 C   0  0  0  0  0  0  0  0  0  0  0  0
    8.0561    6.8024   -2.8027 C   0  0  0  0  0  0  0  0  0  0  0  0
    7.8947    4.9902   -1.0789 C   0  0  0  0  0  0  0  0  0  0  0  0
    7.3899    3.7950   -0.6077 C   0  0  0  0  0  0  0  0  0  0  0  0
    5.7268    1.7415    0.5338 C   0  0  0  0  0  0  0  0  0  0  0  0
    5.1428    2.7511    1.2921 C   0  0  0  0  0  0  0  0  0  0  0  0
    5.0081    2.5983    2.6575 C   0  0  0  0  0  0  0  0  0  0  0  0
    5.4638    1.4526    3.2994 C   0  0  0  0  0  0  0  0  0  0  0  0
    5.3767    1.3192    4.7871 C   0  0  0  0  0  0  0  0  0  0  0  0
    6.0413    0.4491    2.5307 C   0  0  0  0  0  0  0  0  0  0  0  0
    6.1645    0.5799    1.1612 C   0  0  0  0  0  0  0  0  0  0  0  0
    4.3223    0.1319   -1.4220 C   0  0  0  0  0  0  0  0  0  0  0  0
    3.1118    0.1791   -0.1884 S   0  0  0  0  0  0  0  0  0  0  0  0
    2.1476   -1.0269   -1.0571 C   0  0  0  0  0  0  0  0  0  0  0  0
    2.7539   -1.4218   -2.2346 C   0  0  0  0  0  0  0  0  0  0  0  0
    2.2666   -2.3738   -3.1225 N   0  0  0  0  0  0  0  0  0  0  0  0
    1.0249   -2.1710   -3.7400 C   0  0  0  0  0  0  0  0  0  0  0  0
    0.2646   -3.2562   -4.1663 C   0  0  0  0  0  0  0  0  0  0  0  0
   -0.9099   -3.0507   -4.8622 C   0  0  0  0  0  0  0  0  0  0  0  0
   -1.3640   -1.7669   -5.1363 C   0  0  0  0  0  0  0  0  0  0  0  0
   -2.5904   -1.5328   -5.9631 C   0  0  0  0  0  0  0  0  0  0  0  0
   -0.6298   -0.6890   -4.6581 C   0  0  0  0  0  0  0  0  0  0  0  0
    0.5518   -0.8806   -3.9719 C   0  0  0  0  0  0  0  0  0  0  0  0
    3.2129   -3.2489   -3.6820 C   0  0  0  0  0  0  0  0  0  0  0  0
    4.2541   -3.7196   -2.8849 C   0  0  0  0  0  0  0  0  0  0  0  0
    5.2305   -4.5373   -3.4177 C   0  0  0  0  0  0  0  0  0  0  0  0
    5.1871   -4.9301   -4.7482 C   0  0  0  0  0  0  0  0  0  0  0  0
    6.2561   -5.7997   -5.3355 C   0  0  0  0  0  0  0  0  0  0  0  0
    4.1366   -4.4698   -5.5336 C   0  0  0  0  0  0  0  0  0  0  0  0
    3.1662   -3.6345   -5.0191 C   0  0  0  0  0  0  0  0  0  0  0  0
    3.9994   -0.7678   -2.4253 C   0  0  0  0  0  0  0  0  0  0  0  0
    5.1297   -0.7479   -3.7316 S   0  0  0  0  0  0  0  0  0  0  0  0
    0.9079   -1.3698   -0.4283 C   0  0  0  0  0  0  0  0  0  0  0  0
    0.7976   -1.5092    0.9476 C   0  0  0  0  0  0  0  0  0  0  0  0
    1.8936   -1.7023    1.7806 N   0  0  0  0  0  0  0  0  0  0  0  0
    2.8523   -2.6492    1.3930 C   0  0  0  0  0  0  0  0  0  0  0  0
    2.4678   -3.8107    0.7291 C   0  0  0  0  0  0  0  0  0  0  0  0
    3.4073   -4.7378    0.3235 C   0  0  0  0  0  0  0  0  0  0  0  0
    4.7549   -4.5176    0.5748 C   0  0  0  0  0  0  0  0  0  0  0  0
    6.0439   -5.6223    0.0889 S   0  0  0  0  0  0  0  0  0  0  0  0
    5.1670   -7.0011   -0.7014 C   0  0  0  0  0  0  0  0  0  0  0  0
    5.1443   -3.3548    1.2380 C   0  0  0  0  0  0  0  0  0  0  0  0
    4.2064   -2.4314    1.6423 C   0  0  0  0  0  0  0  0  0  0  0  0
    1.9724   -1.0228    2.9943 C   0  0  0  0  0  0  0  0  0  0  0  0
    2.5612   -1.6130    4.1098 C   0  0  0  0  0  0  0  0  0  0  0  0
    2.6375   -0.9334    5.3087 C   0  0  0  0  0  0  0  0  0  0  0  0
    2.1110    0.3457    5.4178 C   0  0  0  0  0  0  0  0  0  0  0  0
    2.2049    1.3228    6.8905 S   0  0  0  0  0  0  0  0  0  0  0  0
    2.7047    0.1386    8.1710 C   0  0  0  0  0  0  0  0  0  0  0  0
    1.5079    0.9358    4.3109 C   0  0  0  0  0  0  0  0  0  0  0  0
    1.4430    0.2633    3.1117 C   0  0  0  0  0  0  0  0  0  0  0  0
   -0.5481   -1.5424    1.3619 C   0  0  0  0  0  0  0  0  0  0  0  0
   -1.3193   -1.5410    2.9030 S   0  0  0  0  0  0  0  0  0  0  0  0
   -2.8944   -1.5209    2.1301 C   0  0  0  0  0  0  0  0  0  0  0  0
   -2.8102   -1.4968    0.7433 C   0  0  0  0  0  0  0  0  0  0  0  0
   -3.8856   -1.3898   -0.1297 N   0  0  0  0  0  0  0  0  0  0  0  0
   -5.0234   -0.6503    0.2226 C   0  0  0  0  0  0  0  0  0  0  0  0
   -6.3037   -1.0952   -0.1151 C   0  0  0  0  0  0  0  0  0  0  0  0
   -7.4191   -0.3882    0.2745 C   0  0  0  0  0  0  0  0  0  0  0  0
   -7.2898    0.7853    1.0114 C   0  0  0  0  0  0  0  0  0  0  0  0
   -8.7794    1.6203    1.4669 S   0  0  0  0  0  0  0  0  0  0  0  0
   -8.2159    3.3301    1.6961 C   0  0  0  0  0  0  0  0  0  0  0  0
   -6.0219    1.2383    1.3499 C   0  0  0  0  0  0  0  0  0  0  0  0
   -4.9044    0.5320    0.9513 C   0  0  0  0  0  0  0  0  0  0  0  0
   -3.8980   -2.1883   -1.2781 C   0  0  0  0  0  0  0  0  0  0  0  0
   -4.5648   -1.7614   -2.4249 C   0  0  0  0  0  0  0  0  0  0  0  0
   -4.6628   -2.5799   -3.5310 C   0  0  0  0  0  0  0  0  0  0  0  0
   -4.0627   -3.8312   -3.5253 C   0  0  0  0  0  0  0  0  0  0  0  0
   -4.1485   -4.9563   -4.8882 S   0  0  0  0  0  0  0  0  0  0  0  0
   -5.6253   -4.4020   -5.7916 C   0  0  0  0  0  0  0  0  0  0  0  0
   -3.3450   -4.2399   -2.4058 C   0  0  0  0  0  0  0  0  0  0  0  0
   -3.2732   -3.4356   -1.2901 C   0  0  0  0  0  0  0  0  0  0  0  0
   -1.4588   -1.4950    0.3172 C   0  0  0  0  0  0  0  0  0  0  0  0
   -0.6614   -1.4081   -1.2232 S   0  0  0  0  0  0  0  0  0  0  0  0
   -4.1089   -1.5028    2.8960 C   0  0  0  0  0  0  0  0  0  0  0  0
   -4.3506   -0.6761    4.0045 C   0  0  0  0  0  0  0  0  0  0  0  0
   -3.4098    0.1257    4.7024 C   0  0  0  0  0  0  0  0  0  0  0  0
   -3.9580    0.8017    5.7475 C   0  0  0  0  0  0  0  0  0  0  0  0
   -3.3017    1.7079    6.6942 C   0  0  0  0  0  0  0  0  0  0  0  0
   -3.8677    2.2509    7.6116 O   0  0  0  0  0  0  0  0  0  0  0  0
   -1.9999    1.8463    6.4150 O   0  0  0  0  0  0  0  0  0  0  0  0
   -1.2569    2.7326    7.2547 C   0  0  0  0  0  0  0  0  0  0  0  0
   -1.4221    4.1808    6.8167 C   0  0  0  0  0  0  0  0  0  0  0  0
   -5.6662    0.5424    5.9069 S   0  0  0  0  0  0  0  0  0  0  0  0
   -5.6683   -0.5084    4.5344 C   0  0  0  0  0  0  0  0  0  0  0  0
   -6.7984   -1.1486    4.0144 C   0  0  0  0  0  0  0  0  0  0  0  0
   -6.4989   -2.1425    3.0521 C   0  0  0  0  0  0  0  0  0  0  0  0
   -5.1959   -2.3013    2.4981 C   0  0  0  0  0  0  0  0  0  0  0  0
   -5.2619   -3.3002    1.6014 N   0  0  0  0  0  0  0  0  0  0  0  0
   -6.5063   -3.6760    1.6358 N   0  0  0  0  0  0  0  0  0  0  0  0
   -6.9811   -4.7728    0.8421 C   0  0  0  0  0  0  0  0  0  0  0  0
   -7.2146   -5.9980    1.7197 C   0  0  0  0  0  0  0  0  0  0  0  0
   -7.2964   -3.0341    2.4507 N   0  0  0  0  0  0  0  0  0  0  0  0
   -8.1723   -0.9479    4.3263 C   0  0  0  0  0  0  0  0  0  0  0  0
   -8.8267    0.1971    4.6722 C   0  0  0  0  0  0  0  0  0  0  0  0
   -8.3016    1.5726    4.6040 C   0  0  0  0  0  0  0  0  0  0  0  0
   -7.1750    1.9332    4.3070 O   0  0  0  0  0  0  0  0  0  0  0  0
   -9.4400    2.4623    4.8909 C   0  0  0  0  0  0  0  0  0  0  0  0
   -9.4199    3.8546    4.9404 C   0  0  0  0  0  0  0  0  0  0  0  0
  -10.6434    4.4243    5.1958 C   0  0  0  0  0  0  0  0  0  0  0  0
  -11.8060    3.6658    5.3845 C   0  0  0  0  0  0  0  0  0  0  0  0
  -11.8393    2.2926    5.3432 C   0  0  0  0  0  0  0  0  0  0  0  0
  -10.6017    1.6914    5.0905 C   0  0  0  0  0  0  0  0  0  0  0  0
  -10.2444    0.2800    4.9893 C   0  0  0  0  0  0  0  0  0  0  0  0
  -11.0902   -0.7723    5.2179 C   0  0  0  0  0  0  0  0  0  0  0  0
  -10.7365   -2.1391    5.2027 C   0  0  0  0  0  0  0  0  0  0  0  0
  -10.5554   -3.2732    5.2347 N   0  0  0  0  0  0  0  0  0  0  0  0
  -12.4587   -0.6425    5.5366 C   0  0  0  0  0  0  0  0  0  0  0  0
  -13.5769   -0.6190    5.7970 N   0  0  0  0  0  0  0  0  0  0  0  0
  -12.6645    4.8882    5.5989 C   0  0  0  0  0  0  0  0  0  0  0  0
  -13.0511    5.2123    7.0574 C   0  0  0  0  0  0  0  0  0  0  0  0
  -13.4549    6.6683    7.0092 C   0  0  0  0  0  0  0  0  0  0  0  0
  -12.3537    7.3869    6.8308 C   0  0  0  0  0  0  0  0  0  0  0  0
  -11.1871    6.4285    6.7555 C   0  0  0  0  0  0  0  0  0  0  0  0
  -11.6747    5.3422    7.7227 C   0  0  0  0  0  0  0  0  0  0  0  0
  -11.3672    5.7337    5.3892 C   0  0  0  0  0  0  0  0  0  0  0  0
    7.7698    1.6666   -2.6276 H   0  0  0  0  0  0  0  0  0  0  0  0
    7.6147   -0.8290   -8.3805 H   0  0  0  0  0  0  0  0  0  0  0  0
   11.3104    2.2371   -6.7716 H   0  0  0  0  0  0  0  0  0  0  0  0
   11.2750    2.0892  -10.2020 H   0  0  0  0  0  0  0  0  0  0  0  0
   13.3753    0.8011   -9.8442 H   0  0  0  0  0  0  0  0  0  0  0  0
   12.8609   -0.9573   -7.9786 H   0  0  0  0  0  0  0  0  0  0  0  0
   10.9410   -2.5672   -8.8595 H   0  0  0  0  0  0  0  0  0  0  0  0
   10.2726   -1.8014  -11.2701 H   0  0  0  0  0  0  0  0  0  0  0  0
   11.9267    0.1825  -12.0275 H   0  0  0  0  0  0  0  0  0  0  0  0
   12.8513   -1.2308  -11.4604 H   0  0  0  0  0  0  0  0  0  0  0  0
    9.4104    0.5258  -11.0598 H   0  0  0  0  0  0  0  0  0  0  0  0
    5.1876    3.1493   -3.0935 H   0  0  0  0  0  0  0  0  0  0  0  0
    6.1170    5.2573   -3.9289 H   0  0  0  0  0  0  0  0  0  0  0  0
    8.1051    7.5521   -2.0152 H   0  0  0  0  0  0  0  0  0  0  0  0
    9.0727    6.6227   -3.1533 H   0  0  0  0  0  0  0  0  0  0  0  0
    7.4728    7.1980   -3.6305 H   0  0  0  0  0  0  0  0  0  0  0  0
    8.6549    5.5028   -0.5092 H   0  0  0  0  0  0  0  0  0  0  0  0
    7.7539    3.3781    0.3179 H   0  0  0  0  0  0  0  0  0  0  0  0
    4.7990    3.6508    0.8036 H   0  0  0  0  0  0  0  0  0  0  0  0
    4.5467    3.3836    3.2378 H   0  0  0  0  0  0  0  0  0  0  0  0
    6.2961    1.6858    5.2456 H   0  0  0  0  0  0  0  0  0  0  0  0
    5.2482    0.2779    5.0740 H   0  0  0  0  0  0  0  0  0  0  0  0
    4.5478    1.9011    5.1813 H   0  0  0  0  0  0  0  0  0  0  0  0
    6.4200   -0.4395    3.0162 H   0  0  0  0  0  0  0  0  0  0  0  0
    6.6174   -0.2046    0.5723 H   0  0  0  0  0  0  0  0  0  0  0  0
    0.6134   -4.2588   -3.9682 H   0  0  0  0  0  0  0  0  0  0  0  0
   -1.4759   -3.9040   -5.2052 H   0  0  0  0  0  0  0  0  0  0  0  0
   -3.2899   -0.8861   -5.4361 H   0  0  0  0  0  0  0  0  0  0  0  0
   -2.3217   -1.0419   -6.8988 H   0  0  0  0  0  0  0  0  0  0  0  0
   -3.0777   -2.4744   -6.1983 H   0  0  0  0  0  0  0  0  0  0  0  0
   -0.9750    0.3170   -4.8494 H   0  0  0  0  0  0  0  0  0  0  0  0
    1.1309   -0.0313   -3.6393 H   0  0  0  0  0  0  0  0  0  0  0  0
    4.3020   -3.4285   -1.8458 H   0  0  0  0  0  0  0  0  0  0  0  0
    6.0448   -4.8659   -2.7878 H   0  0  0  0  0  0  0  0  0  0  0  0
    6.8491   -6.2698   -4.5545 H   0  0  0  0  0  0  0  0  0  0  0  0
    6.9227   -5.1988   -5.9544 H   0  0  0  0  0  0  0  0  0  0  0  0
    5.8233   -6.5744   -5.9661 H   0  0  0  0  0  0  0  0  0  0  0  0
    4.0890   -4.7538   -6.5751 H   0  0  0  0  0  0  0  0  0  0  0  0
    2.3804   -3.2629   -5.6591 H   0  0  0  0  0  0  0  0  0  0  0  0
    1.4227   -3.9935    0.5273 H   0  0  0  0  0  0  0  0  0  0  0  0
    3.0729   -5.6239   -0.1908 H   0  0  0  0  0  0  0  0  0  0  0  0
    4.5018   -7.4758    0.0141 H   0  0  0  0  0  0  0  0  0  0  0  0
    4.6271   -6.6465   -1.5754 H   0  0  0  0  0  0  0  0  0  0  0  0
    5.9399   -7.7011   -1.0039 H   0  0  0  0  0  0  0  0  0  0  0  0
    6.1941   -3.1831    1.4215 H   0  0  0  0  0  0  0  0  0  0  0  0
    4.5087   -1.5237    2.1401 H   0  0  0  0  0  0  0  0  0  0  0  0
    2.9605   -2.6136    4.0373 H   0  0  0  0  0  0  0  0  0  0  0  0
    3.1049   -1.4177    6.1513 H   0  0  0  0  0  0  0  0  0  0  0  0
    3.7302   -0.1808    8.0083 H   0  0  0  0  0  0  0  0  0  0  0  0
    2.0218   -0.7056    8.1735 H   0  0  0  0  0  0  0  0  0  0  0  0
    2.6338    0.6761    9.1115 H   0  0  0  0  0  0  0  0  0  0  0  0
    1.0999    1.9307    4.4011 H   0  0  0  0  0  0  0  0  0  0  0  0
    0.9935    0.7340    2.2505 H   0  0  0  0  0  0  0  0  0  0  0  0
   -6.4206   -2.0106   -0.6759 H   0  0  0  0  0  0  0  0  0  0  0  0
   -8.4058   -0.7441    0.0204 H   0  0  0  0  0  0  0  0  0  0  0  0
   -7.6001    3.3943    2.5884 H   0  0  0  0  0  0  0  0  0  0  0  0
   -9.1148    3.9264    1.8184 H   0  0  0  0  0  0  0  0  0  0  0  0
   -7.6684    3.6472    0.8137 H   0  0  0  0  0  0  0  0  0  0  0  0
   -5.8934    2.1305    1.9395 H   0  0  0  0  0  0  0  0  0  0  0  0
   -3.9239    0.8994    1.2159 H   0  0  0  0  0  0  0  0  0  0  0  0
   -5.0235   -0.7840   -2.4425 H   0  0  0  0  0  0  0  0  0  0  0  0
   -5.2088   -2.2304   -4.3925 H   0  0  0  0  0  0  0  0  0  0  0  0
   -5.8600   -5.1988   -6.4905 H   0  0  0  0  0  0  0  0  0  0  0  0
   -6.4454   -4.2655   -5.0935 H   0  0  0  0  0  0  0  0  0  0  0  0
   -5.4204   -3.4859   -6.3385 H   0  0  0  0  0  0  0  0  0  0  0  0
   -2.8681   -5.2080   -2.4114 H   0  0  0  0  0  0  0  0  0  0  0  0
   -2.7631   -3.7853   -0.4061 H   0  0  0  0  0  0  0  0  0  0  0  0
   -2.3644    0.1878    4.4640 H   0  0  0  0  0  0  0  0  0  0  0  0
   -0.2192    2.4077    7.1593 H   0  0  0  0  0  0  0  0  0  0  0  0
   -1.5977    2.6098    8.2879 H   0  0  0  0  0  0  0  0  0  0  0  0
   -0.7933    4.8191    7.4304 H   0  0  0  0  0  0  0  0  0  0  0  0
   -2.4583    4.4900    6.9314 H   0  0  0  0  0  0  0  0  0  0  0  0
   -1.1322    4.2931    5.7746 H   0  0  0  0  0  0  0  0  0  0  0  0
   -7.9178   -4.4671    0.3698 H   0  0  0  0  0  0  0  0  0  0  0  0
   -6.2210   -4.9678    0.0829 H   0  0  0  0  0  0  0  0  0  0  0  0
   -7.9377   -5.7623    2.4964 H   0  0  0  0  0  0  0  0  0  0  0  0
   -7.5976   -6.8166    1.1174 H   0  0  0  0  0  0  0  0  0  0  0  0
   -6.2844   -6.3117    2.1870 H   0  0  0  0  0  0  0  0  0  0  0  0
   -8.7711   -1.8334    4.1497 H   0  0  0  0  0  0  0  0  0  0  0  0
   -8.5034    4.4052    4.7946 H   0  0  0  0  0  0  0  0  0  0  0  0
  -12.7429    1.7245    5.4866 H   0  0  0  0  0  0  0  0  0  0  0  0
  -13.4894    5.0181    4.9009 H   0  0  0  0  0  0  0  0  0  0  0  0
  -13.7609    4.5216    7.5041 H   0  0  0  0  0  0  0  0  0  0  0  0
  -14.4722    7.0107    7.0523 H   0  0  0  0  0  0  0  0  0  0  0  0
  -12.2676    8.4492    6.6950 H   0  0  0  0  0  0  0  0  0  0  0  0
  -10.1987    6.8461    6.9279 H   0  0  0  0  0  0  0  0  0  0  0  0
  -11.7452    5.7048    8.7468 H   0  0  0  0  0  0  0  0  0  0  0  0
  -11.0824    4.4295    7.6997 H   0  0  0  0  0  0  0  0  0  0  0  0
  -11.3279    6.4274    4.5509 H   0  0  0  0  0  0  0  0  0  0  0  0
  1  2  2  0  0  0  0
  2  3  1  0  0  0  0
  3  4  2  0  0  0  0
  3  5  1  0  0  0  0
  5  6  2  0  0  0  0
  6  7  1  0  0  0  0
  7  8  2  0  0  0  0
  8  9  1  0  0  0  0
  9 10  2  0  0  0  0
 10 11  1  0  0  0  0
 11 12  2  0  0  0  0
 12 13  1  0  0  0  0
 13 14  3  0  0  0  0
 12 15  1  0  0  0  0
 15 16  3  0  0  0  0
  8 17  1  0  0  0  0
 17 18  1  0  0  0  0
 18 19  1  0  0  0  0
 19 20  2  0  0  0  0
 20 21  1  0  0  0  0
 21 22  1  0  0  0  0
 21 23  1  0  0  0  0
  1 24  1  0  0  0  0
 24 25  2  0  0  0  0
 25 26  1  0  0  0  0
 26 27  1  0  0  0  0
 27 28  2  0  0  0  0
 28 29  1  0  0  0  0
 29 30  2  0  0  0  0
 30 31  1  0  0  0  0
 30 32  1  0  0  0  0
 32 33  2  0  0  0  0
 26 34  1  0  0  0  0
 34 35  2  0  0  0  0
 35 36  1  0  0  0  0
 36 37  2  0  0  0  0
 37 38  1  0  0  0  0
 37 39  1  0  0  0  0
 39 40  2  0  0  0  0
 25 41  1  0  0  0  0
 41 42  1  0  0  0  0
 42 43  1  0  0  0  0
 43 44  2  0  0  0  0
 44 45  1  0  0  0  0
 45 46  1  0  0  0  0
 46 47  2  0  0  0  0
 47 48  1  0  0  0  0
 48 49  2  0  0  0  0
 49 50  1  0  0  0  0
 49 51  1  0  0  0  0
 51 52  2  0  0  0  0
 45 53  1  0  0  0  0
 53 54  2  0  0  0  0
 54 55  1  0  0  0  0
 55 56  2  0  0  0  0
 56 57  1  0  0  0  0
 56 58  1  0  0  0  0
 58 59  2  0  0  0  0
 44 60  1  0  0  0  0
 60 61  1  0  0  0  0
 43 62  1  0  0  0  0
 62 63  2  0  0  0  0
 63 64  1  0  0  0  0
 64 65  1  0  0  0  0
 65 66  2  0  0  0  0
 66 67  1  0  0  0  0
 67 68  2  0  0  0  0
 68 69  1  0  0  0  0
 69 70  1  0  0  0  0
 68 71  1  0  0  0  0
 71 72  2  0  0  0  0
 64 73  1  0  0  0  0
 73 74  2  0  0  0  0
 74 75  1  0  0  0  0
 75 76  2  0  0  0  0
 76 77  1  0  0  0  0
 77 78  1  0  0  0  0
 76 79  1  0  0  0  0
 79 80  2  0  0  0  0
 63 81  1  0  0  0  0
 81 82  1  0  0  0  0
 82 83  1  0  0  0  0
 83 84  2  0  0  0  0
 84 85  1  0  0  0  0
 85 86  1  0  0  0  0
 86 87  2  0  0  0  0
 87 88  1  0  0  0  0
 88 89  2  0  0  0  0
 89 90  1  0  0  0  0
 90 91  1  0  0  0  0
 89 92  1  0  0  0  0
 92 93  2  0  0  0  0
 85 94  1  0  0  0  0
 94 95  2  0  0  0  0
 95 96  1  0  0  0  0
 96 97  2  0  0  0  0
 97 98  1  0  0  0  0
 98 99  1  0  0  0  0
 97100  1  0  0  0  0
100101  2  0  0  0  0
 84102  1  0  0  0  0
102103  1  0  0  0  0
 83104  1  0  0  0  0
104105  2  0  0  0  0
105106  1  0  0  0  0
106107  2  0  0  0  0
107108  1  0  0  0  0
108109  2  0  0  0  0
108110  1  0  0  0  0
110111  1  0  0  0  0
111112  1  0  0  0  0
107113  1  0  0  0  0
113114  1  0  0  0  0
114115  2  0  0  0  0
115116  1  0  0  0  0
116117  1  0  0  0  0
117118  2  0  0  0  0
118119  1  0  0  0  0
119120  1  0  0  0  0
120121  1  0  0  0  0
119122  1  0  0  0  0
115123  1  0  0  0  0
123124  2  0  0  0  0
124125  1  0  0  0  0
125126  2  0  0  0  0
125127  1  0  0  0  0
127128  2  0  0  0  0
128129  1  0  0  0  0
129130  2  0  0  0  0
130131  1  0  0  0  0
131132  2  0  0  0  0
132133  1  0  0  0  0
133134  2  0  0  0  0
134135  1  0  0  0  0
135136  3  0  0  0  0
134137  1  0  0  0  0
137138  3  0  0  0  0
130139  1  0  0  0  0
139140  1  0  0  0  0
140141  1  0  0  0  0
141142  2  0  0  0  0
142143  1  0  0  0  0
143144  1  0  0  0  0
143145  1  0  0  0  0
 11  2  1  0  0  0  0
 23 17  1  0  0  0  0
 61 24  1  0  0  0  0
103 62  1  0  0  0  0
117104  1  0  0  0  0
133124  1  0  0  0  0
145139  1  0  0  0  0
 10  5  1  0  0  0  0
 22 18  1  0  0  0  0
 33 27  1  0  0  0  0
 40 34  1  0  0  0  0
 60 41  2  0  0  0  0
 72 65  1  0  0  0  0
 80 73  1  0  0  0  0
102 81  2  0  0  0  0
114105  1  0  0  0  0
122116  2  0  0  0  0
132127  1  0  0  0  0
144140  1  0  0  0  0
 23  7  1  0  0  0  0
 52 46  1  0  0  0  0
 59 53  1  0  0  0  0
 93 86  1  0  0  0  0
101 94  1  0  0  0  0
145129  1  0  0  0  0
  1146  1  0  0  0  0
  6147  1  0  0  0  0
  9148  1  0  0  0  0
 17149  1  0  0  0  0
 18150  1  0  0  0  0
 19151  1  0  0  0  0
 20152  1  0  0  0  0
 21153  1  0  0  0  0
 22154  1  0  0  0  0
 22155  1  0  0  0  0
 23156  1  0  0  0  0
 28157  1  0  0  0  0
 29158  1  0  0  0  0
 31159  1  0  0  0  0
 31160  1  0  0  0  0
 31161  1  0  0  0  0
 32162  1  0  0  0  0
 33163  1  0  0  0  0
 35164  1  0  0  0  0
 36165  1  0  0  0  0
 38166  1  0  0  0  0
 38167  1  0  0  0  0
 38168  1  0  0  0  0
 39169  1  0  0  0  0
 40170  1  0  0  0  0
 47171  1  0  0  0  0
 48172  1  0  0  0  0
 50173  1  0  0  0  0
 50174  1  0  0  0  0
 50175  1  0  0  0  0
 51176  1  0  0  0  0
 52177  1  0  0  0  0
 54178  1  0  0  0  0
 55179  1  0  0  0  0
 57180  1  0  0  0  0
 57181  1  0  0  0  0
 57182  1  0  0  0  0
 58183  1  0  0  0  0
 59184  1  0  0  0  0
 66185  1  0  0  0  0
 67186  1  0  0  0  0
 70187  1  0  0  0  0
 70188  1  0  0  0  0
 70189  1  0  0  0  0
 71190  1  0  0  0  0
 72191  1  0  0  0  0
 74192  1  0  0  0  0
 75193  1  0  0  0  0
 78194  1  0  0  0  0
 78195  1  0  0  0  0
 78196  1  0  0  0  0
 79197  1  0  0  0  0
 80198  1  0  0  0  0
 87199  1  0  0  0  0
 88200  1  0  0  0  0
 91201  1  0  0  0  0
 91202  1  0  0  0  0
 91203  1  0  0  0  0
 92204  1  0  0  0  0
 93205  1  0  0  0  0
 95206  1  0  0  0  0
 96207  1  0  0  0  0
 99208  1  0  0  0  0
 99209  1  0  0  0  0
 99210  1  0  0  0  0
100211  1  0  0  0  0
101212  1  0  0  0  0
106213  1  0  0  0  0
111214  1  0  0  0  0
111215  1  0  0  0  0
112216  1  0  0  0  0
112217  1  0  0  0  0
112218  1  0  0  0  0
120219  1  0  0  0  0
120220  1  0  0  0  0
121221  1  0  0  0  0
121222  1  0  0  0  0
121223  1  0  0  0  0
123224  1  0  0  0  0
128225  1  0  0  0  0
131226  1  0  0  0  0
139227  1  0  0  0  0
140228  1  0  0  0  0
141229  1  0  0  0  0
142230  1  0  0  0  0
143231  1  0  0  0  0
144232  1  0  0  0  0
144233  1  0  0  0  0
145234  1  0  0  0  0
M  END
