
  xtb     02132222193D
 energy: -352.688792447030 gnorm: 0.000361669220 xtb: 6.4.1 (unknown)
226249  0     0  0            999 V2000
    4.5276   -6.0421    2.6507 C   0  0  0  0  0  0  0  0  0  0  0  0
    4.9643   -6.0185    3.9580 C   0  0  0  0  0  0  0  0  0  0  0  0
    4.9483   -4.8670    4.8598 C   0  0  0  0  0  0  0  0  0  0  0  0
    4.4505   -3.7691    4.6686 O   0  0  0  0  0  0  0  0  0  0  0  0
    5.6805   -5.2804    6.0716 C   0  0  0  0  0  0  0  0  0  0  0  0
    5.9406   -4.5072    7.1991 C   0  0  0  0  0  0  0  0  0  0  0  0
    6.6548   -5.1625    8.1737 C   0  0  0  0  0  0  0  0  0  0  0  0
    7.0817   -6.4885    8.0335 C   0  0  0  0  0  0  0  0  0  0  0  0
    6.8317   -7.2621    6.9239 C   0  0  0  0  0  0  0  0  0  0  0  0
    6.1034   -6.6158    5.9226 C   0  0  0  0  0  0  0  0  0  0  0  0
    5.6317   -7.1080    4.6269 C   0  0  0  0  0  0  0  0  0  0  0  0
    5.7800   -8.3962    4.1681 C   0  0  0  0  0  0  0  0  0  0  0  0
    6.5083   -9.4019    4.8322 C   0  0  0  0  0  0  0  0  0  0  0  0
    7.0992  -10.2683    5.3021 N   0  0  0  0  0  0  0  0  0  0  0  0
    5.2006   -8.9207    2.9975 C   0  0  0  0  0  0  0  0  0  0  0  0
    4.7355   -9.4477    2.0869 N   0  0  0  0  0  0  0  0  0  0  0  0
    7.7365   -6.5056    9.3924 C   0  0  0  0  0  0  0  0  0  0  0  0
    6.9944   -7.2293   10.5429 C   0  0  0  0  0  0  0  0  0  0  0  0
    5.5255   -7.1811   10.2031 C   0  0  0  0  0  0  0  0  0  0  0  0
    5.1201   -5.9254   10.3366 C   0  0  0  0  0  0  0  0  0  0  0  0
    6.3078   -5.1017   10.7687 C   0  0  0  0  0  0  0  0  0  0  0  0
    7.0587   -6.1364   11.6219 C   0  0  0  0  0  0  0  0  0  0  0  0
    7.2595   -5.0272    9.5491 C   0  0  0  0  0  0  0  0  0  0  0  0
    3.8811   -5.0675    1.8961 C   0  0  0  0  0  0  0  0  0  0  0  0
    3.5211   -5.2484    0.5338 C   0  0  0  0  0  0  0  0  0  0  0  0
    3.9229   -6.2848   -0.2673 N   0  0  0  0  0  0  0  0  0  0  0  0
    5.2054   -6.8567   -0.1784 C   0  0  0  0  0  0  0  0  0  0  0  0
    5.3771   -8.2175   -0.4204 C   0  0  0  0  0  0  0  0  0  0  0  0
    6.6334   -8.7815   -0.3272 C   0  0  0  0  0  0  0  0  0  0  0  0
    7.7419   -8.0167    0.0165 C   0  0  0  0  0  0  0  0  0  0  0  0
    9.0880   -8.6568    0.1611 C   0  0  0  0  0  0  0  0  0  0  0  0
    7.5629   -6.6556    0.2352 C   0  0  0  0  0  0  0  0  0  0  0  0
    6.3153   -6.0740    0.1304 C   0  0  0  0  0  0  0  0  0  0  0  0
    3.0616   -6.7144   -1.2953 C   0  0  0  0  0  0  0  0  0  0  0  0
    1.7064   -6.9003   -1.0357 C   0  0  0  0  0  0  0  0  0  0  0  0
    0.8591   -7.3134   -2.0436 C   0  0  0  0  0  0  0  0  0  0  0  0
    1.3362   -7.5588   -3.3259 C   0  0  0  0  0  0  0  0  0  0  0  0
    0.4038   -7.9824   -4.4186 C   0  0  0  0  0  0  0  0  0  0  0  0
    2.6927   -7.3824   -3.5713 C   0  0  0  0  0  0  0  0  0  0  0  0
    3.5504   -6.9638   -2.5737 C   0  0  0  0  0  0  0  0  0  0  0  0
    2.6825   -4.2110    0.0987 C   0  0  0  0  0  0  0  0  0  0  0  0
    1.9009   -3.8330   -1.4042 S   0  0  0  0  0  0  0  0  0  0  0  0
    1.2363   -2.3517   -0.7125 C   0  0  0  0  0  0  0  0  0  0  0  0
    1.6692   -2.1434    0.5952 C   0  0  0  0  0  0  0  0  0  0  0  0
    1.3892   -1.0506    1.3995 N   0  0  0  0  0  0  0  0  0  0  0  0
    1.5256    0.2646    0.9529 C   0  0  0  0  0  0  0  0  0  0  0  0
    0.8727    1.2982    1.6242 C   0  0  0  0  0  0  0  0  0  0  0  0
    0.9763    2.5997    1.1794 C   0  0  0  0  0  0  0  0  0  0  0  0
    1.7264    2.9166    0.0532 C   0  0  0  0  0  0  0  0  0  0  0  0
    1.8161    4.3250   -0.4480 C   0  0  0  0  0  0  0  0  0  0  0  0
    2.3860    1.8853   -0.6046 C   0  0  0  0  0  0  0  0  0  0  0  0
    2.2974    0.5800   -0.1648 C   0  0  0  0  0  0  0  0  0  0  0  0
    1.2291   -1.3284    2.7724 C   0  0  0  0  0  0  0  0  0  0  0  0
    1.9419   -0.6313    3.7430 C   0  0  0  0  0  0  0  0  0  0  0  0
    1.8162   -0.9786    5.0719 C   0  0  0  0  0  0  0  0  0  0  0  0
    0.9900   -2.0245    5.4679 C   0  0  0  0  0  0  0  0  0  0  0  0
    0.9151   -2.4259    6.9086 C   0  0  0  0  0  0  0  0  0  0  0  0
    0.2702   -2.7031    4.4939 C   0  0  0  0  0  0  0  0  0  0  0  0
    0.3817   -2.3615    3.1602 C   0  0  0  0  0  0  0  0  0  0  0  0
    2.4599   -3.2250    1.0510 C   0  0  0  0  0  0  0  0  0  0  0  0
    3.2726   -3.5402    2.5420 S   0  0  0  0  0  0  0  0  0  0  0  0
    0.3165   -1.6201   -1.5003 C   0  0  0  0  0  0  0  0  0  0  0  0
   -0.0234   -1.8846   -2.8150 C   0  0  0  0  0  0  0  0  0  0  0  0
   -1.0368   -1.0691   -3.3149 C   0  0  0  0  0  0  0  0  0  0  0  0
   -1.5587   -1.1754   -4.6903 C   0  0  0  0  0  0  0  0  0  0  0  0
   -0.8931   -0.5385   -5.7391 C   0  0  0  0  0  0  0  0  0  0  0  0
   -1.3939   -0.6613   -7.0253 C   0  0  0  0  0  0  0  0  0  0  0  0
   -2.5386   -1.3969   -7.2881 C   0  0  0  0  0  0  0  0  0  0  0  0
   -3.0891   -1.5007   -8.6778 C   0  0  0  0  0  0  0  0  0  0  0  0
   -3.1806   -2.0315   -6.2333 C   0  0  0  0  0  0  0  0  0  0  0  0
   -2.7042   -1.9360   -4.9369 C   0  0  0  0  0  0  0  0  0  0  0  0
   -3.4047   -2.6255   -3.8050 C   0  0  0  0  0  0  0  0  0  0  0  0
    0.3242    0.2908   -5.4652 C   0  0  0  0  0  0  0  0  0  0  0  0
   -1.5134   -0.1664   -2.3703 C   0  0  0  0  0  0  0  0  0  0  0  0
   -0.6559   -0.3291   -0.8628 S   0  0  0  0  0  0  0  0  0  0  0  0
   -2.4832    0.8488   -2.5626 C   0  0  0  0  0  0  0  0  0  0  0  0
   -3.0702    1.6836   -1.6109 C   0  0  0  0  0  0  0  0  0  0  0  0
   -2.9379    1.5891   -0.2325 N   0  0  0  0  0  0  0  0  0  0  0  0
   -3.1309    0.3779    0.4342 C   0  0  0  0  0  0  0  0  0  0  0  0
   -2.5475    0.1613    1.6820 C   0  0  0  0  0  0  0  0  0  0  0  0
   -2.6949   -1.0506    2.3238 C   0  0  0  0  0  0  0  0  0  0  0  0
   -3.4153   -2.0871    1.7438 C   0  0  0  0  0  0  0  0  0  0  0  0
   -3.5632   -3.4111    2.4297 C   0  0  0  0  0  0  0  0  0  0  0  0
   -4.0091   -1.8617    0.5069 C   0  0  0  0  0  0  0  0  0  0  0  0
   -3.8802   -0.6491   -0.1384 C   0  0  0  0  0  0  0  0  0  0  0  0
   -2.8004    2.7952    0.4778 C   0  0  0  0  0  0  0  0  0  0  0  0
   -3.5137    3.0282    1.6499 C   0  0  0  0  0  0  0  0  0  0  0  0
   -3.3501    4.2153    2.3353 C   0  0  0  0  0  0  0  0  0  0  0  0
   -2.4887    5.2028    1.8716 C   0  0  0  0  0  0  0  0  0  0  0  0
   -2.2796    6.4676    2.6449 C   0  0  0  0  0  0  0  0  0  0  0  0
   -1.8046    4.9737    0.6830 C   0  0  0  0  0  0  0  0  0  0  0  0
   -1.9531    3.7877   -0.0078 C   0  0  0  0  0  0  0  0  0  0  0  0
   -3.8571    2.6771   -2.2290 C   0  0  0  0  0  0  0  0  0  0  0  0
   -4.8013    3.9897   -1.6296 S   0  0  0  0  0  0  0  0  0  0  0  0
   -5.2820    4.4302   -3.2753 C   0  0  0  0  0  0  0  0  0  0  0  0
   -4.7638    3.5340   -4.2259 C   0  0  0  0  0  0  0  0  0  0  0  0
   -4.9460    3.5978   -5.5813 N   0  0  0  0  0  0  0  0  0  0  0  0
   -3.8724    3.2773   -6.4352 C   0  0  0  0  0  0  0  0  0  0  0  0
   -4.0957    2.5523   -7.6006 C   0  0  0  0  0  0  0  0  0  0  0  0
   -3.0446    2.2737   -8.4519 C   0  0  0  0  0  0  0  0  0  0  0  0
   -1.7543    2.6957   -8.1588 C   0  0  0  0  0  0  0  0  0  0  0  0
   -0.6225    2.4346   -9.1055 C   0  0  0  0  0  0  0  0  0  0  0  0
   -1.5404    3.4048   -6.9823 C   0  0  0  0  0  0  0  0  0  0  0  0
   -2.5824    3.7034   -6.1285 C   0  0  0  0  0  0  0  0  0  0  0  0
   -6.1731    3.9919   -6.1351 C   0  0  0  0  0  0  0  0  0  0  0  0
   -7.3705    3.5525   -5.5728 C   0  0  0  0  0  0  0  0  0  0  0  0
   -8.5766    3.9553   -6.1089 C   0  0  0  0  0  0  0  0  0  0  0  0
   -8.6245    4.7934   -7.2176 C   0  0  0  0  0  0  0  0  0  0  0  0
   -9.9385    5.2573   -7.7632 C   0  0  0  0  0  0  0  0  0  0  0  0
   -7.4252    5.2100   -7.7831 C   0  0  0  0  0  0  0  0  0  0  0  0
   -6.2110    4.8193   -7.2536 C   0  0  0  0  0  0  0  0  0  0  0  0
   -3.9226    2.5834   -3.6096 C   0  0  0  0  0  0  0  0  0  0  0  0
   -3.0002    1.2433   -4.1988 S   0  0  0  0  0  0  0  0  0  0  0  0
   -6.0742    5.5683   -3.4816 C   0  0  0  0  0  0  0  0  0  0  0  0
   -6.1714    6.6607   -2.6601 C   0  0  0  0  0  0  0  0  0  0  0  0
   -7.3664    7.5310   -2.7126 C   0  0  0  0  0  0  0  0  0  0  0  0
   -8.2424    7.5181   -3.5525 O   0  0  0  0  0  0  0  0  0  0  0  0
   -7.2874    8.3771   -1.5016 C   0  0  0  0  0  0  0  0  0  0  0  0
   -8.2489    9.2606   -1.0176 C   0  0  0  0  0  0  0  0  0  0  0  0
   -7.9049    9.8698    0.1661 C   0  0  0  0  0  0  0  0  0  0  0  0
   -6.6997    9.6125    0.8313 C   0  0  0  0  0  0  0  0  0  0  0  0
   -5.7383    8.7479    0.3632 C   0  0  0  0  0  0  0  0  0  0  0  0
   -6.0636    8.1318   -0.8465 C   0  0  0  0  0  0  0  0  0  0  0  0
   -5.2947    7.1773   -1.6441 C   0  0  0  0  0  0  0  0  0  0  0  0
   -3.9262    7.0449   -1.6028 C   0  0  0  0  0  0  0  0  0  0  0  0
   -3.1770    6.2992   -2.5316 C   0  0  0  0  0  0  0  0  0  0  0  0
   -2.5093    5.7524   -3.2913 N   0  0  0  0  0  0  0  0  0  0  0  0
   -3.1000    7.7634   -0.7224 C   0  0  0  0  0  0  0  0  0  0  0  0
   -2.3724    8.3436   -0.0473 N   0  0  0  0  0  0  0  0  0  0  0  0
   -7.0293   10.5556    1.9623 C   0  0  0  0  0  0  0  0  0  0  0  0
   -6.3218   11.9269    1.9447 C   0  0  0  0  0  0  0  0  0  0  0  0
   -7.1741   12.7857    2.8507 C   0  0  0  0  0  0  0  0  0  0  0  0
   -8.3131   13.0340    2.2168 C   0  0  0  0  0  0  0  0  0  0  0  0
   -8.2497   12.3468    0.8719 C   0  0  0  0  0  0  0  0  0  0  0  0
   -6.7497   12.4782    0.5785 C   0  0  0  0  0  0  0  0  0  0  0  0
   -8.3711   10.8475    1.2171 C   0  0  0  0  0  0  0  0  0  0  0  0
    4.7132   -6.9628    2.1129 H   0  0  0  0  0  0  0  0  0  0  0  0
    5.5949   -3.4870    7.2628 H   0  0  0  0  0  0  0  0  0  0  0  0
    7.1705   -8.2805    6.8317 H   0  0  0  0  0  0  0  0  0  0  0  0
    8.8074   -6.6993    9.4039 H   0  0  0  0  0  0  0  0  0  0  0  0
    7.3966   -8.2068   10.7950 H   0  0  0  0  0  0  0  0  0  0  0  0
    4.9637   -8.0279    9.8545 H   0  0  0  0  0  0  0  0  0  0  0  0
    4.1513   -5.5134   10.1218 H   0  0  0  0  0  0  0  0  0  0  0  0
    6.0851   -4.1416   11.2275 H   0  0  0  0  0  0  0  0  0  0  0  0
    6.5192   -6.4066   12.5285 H   0  0  0  0  0  0  0  0  0  0  0  0
    8.0746   -5.8353   11.8742 H   0  0  0  0  0  0  0  0  0  0  0  0
    8.0198   -4.2566    9.6633 H   0  0  0  0  0  0  0  0  0  0  0  0
    4.5227   -8.8288   -0.6642 H   0  0  0  0  0  0  0  0  0  0  0  0
    6.7508   -9.8400   -0.5031 H   0  0  0  0  0  0  0  0  0  0  0  0
    9.3006   -9.3012   -0.6898 H   0  0  0  0  0  0  0  0  0  0  0  0
    9.1109   -9.2751    1.0588 H   0  0  0  0  0  0  0  0  0  0  0  0
    9.8716   -7.9074    0.2404 H   0  0  0  0  0  0  0  0  0  0  0  0
    8.4134   -6.0377    0.4853 H   0  0  0  0  0  0  0  0  0  0  0  0
    6.1939   -5.0137    0.2974 H   0  0  0  0  0  0  0  0  0  0  0  0
    1.3271   -6.7272   -0.0391 H   0  0  0  0  0  0  0  0  0  0  0  0
   -0.1903   -7.4549   -1.8296 H   0  0  0  0  0  0  0  0  0  0  0  0
   -0.3845   -8.6224   -4.0285 H   0  0  0  0  0  0  0  0  0  0  0  0
   -0.0662   -7.1057   -4.8658 H   0  0  0  0  0  0  0  0  0  0  0  0
    0.9378   -8.5158   -5.2011 H   0  0  0  0  0  0  0  0  0  0  0  0
    3.0839   -7.5690   -4.5609 H   0  0  0  0  0  0  0  0  0  0  0  0
    4.6012   -6.8237   -2.7792 H   0  0  0  0  0  0  0  0  0  0  0  0
    0.2846    1.0699    2.4996 H   0  0  0  0  0  0  0  0  0  0  0  0
    0.4556    3.3826    1.7115 H   0  0  0  0  0  0  0  0  0  0  0  0
    1.1277    4.4735   -1.2807 H   0  0  0  0  0  0  0  0  0  0  0  0
    2.8205    4.5457   -0.8040 H   0  0  0  0  0  0  0  0  0  0  0  0
    1.5550    5.0318    0.3353 H   0  0  0  0  0  0  0  0  0  0  0  0
    2.9866    2.1080   -1.4753 H   0  0  0  0  0  0  0  0  0  0  0  0
    2.8319   -0.2000   -0.6868 H   0  0  0  0  0  0  0  0  0  0  0  0
    2.6082    0.1650    3.4465 H   0  0  0  0  0  0  0  0  0  0  0  0
    2.3876   -0.4432    5.8158 H   0  0  0  0  0  0  0  0  0  0  0  0
    1.8081   -2.9917    7.1750 H   0  0  0  0  0  0  0  0  0  0  0  0
    0.0462   -3.0517    7.0976 H   0  0  0  0  0  0  0  0  0  0  0  0
    0.8681   -1.5511    7.5541 H   0  0  0  0  0  0  0  0  0  0  0  0
   -0.3809   -3.5169    4.7814 H   0  0  0  0  0  0  0  0  0  0  0  0
   -0.1773   -2.8977    2.4066 H   0  0  0  0  0  0  0  0  0  0  0  0
    0.4538   -2.6584   -3.3917 H   0  0  0  0  0  0  0  0  0  0  0  0
   -0.8802   -0.1705   -7.8379 H   0  0  0  0  0  0  0  0  0  0  0  0
   -3.3738   -2.5264   -8.9050 H   0  0  0  0  0  0  0  0  0  0  0  0
   -2.3590   -1.1684   -9.4115 H   0  0  0  0  0  0  0  0  0  0  0  0
   -3.9790   -0.8782   -8.7707 H   0  0  0  0  0  0  0  0  0  0  0  0
   -4.0702   -2.6141   -6.4289 H   0  0  0  0  0  0  0  0  0  0  0  0
   -4.2049   -3.2610   -4.1760 H   0  0  0  0  0  0  0  0  0  0  0  0
   -3.8328   -1.8919   -3.1224 H   0  0  0  0  0  0  0  0  0  0  0  0
   -2.7048   -3.2340   -3.2338 H   0  0  0  0  0  0  0  0  0  0  0  0
    0.7838    0.6169   -6.3943 H   0  0  0  0  0  0  0  0  0  0  0  0
    1.0557   -0.2714   -4.8871 H   0  0  0  0  0  0  0  0  0  0  0  0
    0.0495    1.1728   -4.8868 H   0  0  0  0  0  0  0  0  0  0  0  0
   -1.9665    0.9485    2.1348 H   0  0  0  0  0  0  0  0  0  0  0  0
   -2.2255   -1.1968    3.2860 H   0  0  0  0  0  0  0  0  0  0  0  0
   -2.9340   -3.4593    3.3149 H   0  0  0  0  0  0  0  0  0  0  0  0
   -3.2887   -4.2236    1.7582 H   0  0  0  0  0  0  0  0  0  0  0  0
   -4.5983   -3.5678    2.7335 H   0  0  0  0  0  0  0  0  0  0  0  0
   -4.5864   -2.6490    0.0428 H   0  0  0  0  0  0  0  0  0  0  0  0
   -4.3621   -0.4915   -1.0926 H   0  0  0  0  0  0  0  0  0  0  0  0
   -4.1972    2.2772    2.0177 H   0  0  0  0  0  0  0  0  0  0  0  0
   -3.9079    4.3802    3.2462 H   0  0  0  0  0  0  0  0  0  0  0  0
   -3.1396    6.6849    3.2747 H   0  0  0  0  0  0  0  0  0  0  0  0
   -1.4052    6.3689    3.2895 H   0  0  0  0  0  0  0  0  0  0  0  0
   -2.1065    7.3049    1.9722 H   0  0  0  0  0  0  0  0  0  0  0  0
   -1.1418    5.7340    0.2968 H   0  0  0  0  0  0  0  0  0  0  0  0
   -1.4077    3.6191   -0.9246 H   0  0  0  0  0  0  0  0  0  0  0  0
   -5.0949    2.2162   -7.8365 H   0  0  0  0  0  0  0  0  0  0  0  0
   -3.2314    1.7192   -9.3599 H   0  0  0  0  0  0  0  0  0  0  0  0
    0.2927    2.2060   -8.5634 H   0  0  0  0  0  0  0  0  0  0  0  0
   -0.4345    3.3214   -9.7122 H   0  0  0  0  0  0  0  0  0  0  0  0
   -0.8552    1.6121   -9.7779 H   0  0  0  0  0  0  0  0  0  0  0  0
   -0.5445    3.7452   -6.7394 H   0  0  0  0  0  0  0  0  0  0  0  0
   -2.4082    4.2836   -5.2345 H   0  0  0  0  0  0  0  0  0  0  0  0
   -7.3451    2.8999   -4.7121 H   0  0  0  0  0  0  0  0  0  0  0  0
   -9.4976    3.6148   -5.6588 H   0  0  0  0  0  0  0  0  0  0  0  0
   -9.8409    5.5799   -8.7968 H   0  0  0  0  0  0  0  0  0  0  0  0
  -10.6837    4.4667   -7.7061 H   0  0  0  0  0  0  0  0  0  0  0  0
  -10.2997    6.1014   -7.1752 H   0  0  0  0  0  0  0  0  0  0  0  0
   -7.4407    5.8618   -8.6444 H   0  0  0  0  0  0  0  0  0  0  0  0
   -5.2858    5.1613   -7.6931 H   0  0  0  0  0  0  0  0  0  0  0  0
   -6.7403    5.5750   -4.3373 H   0  0  0  0  0  0  0  0  0  0  0  0
   -9.1728    9.4232   -1.5504 H   0  0  0  0  0  0  0  0  0  0  0  0
   -4.8195    8.5402    0.8872 H   0  0  0  0  0  0  0  0  0  0  0  0
   -7.0724   10.1109    2.9550 H   0  0  0  0  0  0  0  0  0  0  0  0
   -5.2573   11.8927    2.1598 H   0  0  0  0  0  0  0  0  0  0  0  0
   -6.8939   13.0679    3.8487 H   0  0  0  0  0  0  0  0  0  0  0  0
   -9.1739   13.5647    2.5797 H   0  0  0  0  0  0  0  0  0  0  0  0
   -8.9419   12.6968    0.1107 H   0  0  0  0  0  0  0  0  0  0  0  0
   -6.4466   13.5147    0.4394 H   0  0  0  0  0  0  0  0  0  0  0  0
   -6.4086   11.8822   -0.2657 H   0  0  0  0  0  0  0  0  0  0  0  0
   -9.3073   10.6001    1.7148 H   0  0  0  0  0  0  0  0  0  0  0  0
  1  2  2  0  0  0  0
  2  3  1  0  0  0  0
  3  4  2  0  0  0  0
  3  5  1  0  0  0  0
  5  6  2  0  0  0  0
  6  7  1  0  0  0  0
  7  8  2  0  0  0  0
  8  9  1  0  0  0  0
  9 10  2  0  0  0  0
 10 11  1  0  0  0  0
 11 12  2  0  0  0  0
 12 13  1  0  0  0  0
 13 14  3  0  0  0  0
 12 15  1  0  0  0  0
 15 16  3  0  0  0  0
  8 17  1  0  0  0  0
 17 18  1  0  0  0  0
 18 19  1  0  0  0  0
 19 20  2  0  0  0  0
 20 21  1  0  0  0  0
 21 22  1  0  0  0  0
 21 23  1  0  0  0  0
  1 24  1  0  0  0  0
 24 25  2  0  0  0  0
 25 26  1  0  0  0  0
 26 27  1  0  0  0  0
 27 28  2  0  0  0  0
 28 29  1  0  0  0  0
 29 30  2  0  0  0  0
 30 31  1  0  0  0  0
 30 32  1  0  0  0  0
 32 33  2  0  0  0  0
 26 34  1  0  0  0  0
 34 35  2  0  0  0  0
 35 36  1  0  0  0  0
 36 37  2  0  0  0  0
 37 38  1  0  0  0  0
 37 39  1  0  0  0  0
 39 40  2  0  0  0  0
 25 41  1  0  0  0  0
 41 42  1  0  0  0  0
 42 43  1  0  0  0  0
 43 44  2  0  0  0  0
 44 45  1  0  0  0  0
 45 46  1  0  0  0  0
 46 47  2  0  0  0  0
 47 48  1  0  0  0  0
 48 49  2  0  0  0  0
 49 50  1  0  0  0  0
 49 51  1  0  0  0  0
 51 52  2  0  0  0  0
 45 53  1  0  0  0  0
 53 54  2  0  0  0  0
 54 55  1  0  0  0  0
 55 56  2  0  0  0  0
 56 57  1  0  0  0  0
 56 58  1  0  0  0  0
 58 59  2  0  0  0  0
 44 60  1  0  0  0  0
 60 61  1  0  0  0  0
 43 62  1  0  0  0  0
 62 63  2  0  0  0  0
 63 64  1  0  0  0  0
 64 65  1  0  0  0  0
 65 66  2  0  0  0  0
 66 67  1  0  0  0  0
 67 68  2  0  0  0  0
 68 69  1  0  0  0  0
 68 70  1  0  0  0  0
 70 71  2  0  0  0  0
 71 72  1  0  0  0  0
 66 73  1  0  0  0  0
 64 74  2  0  0  0  0
 74 75  1  0  0  0  0
 74 76  1  0  0  0  0
 76 77  2  0  0  0  0
 77 78  1  0  0  0  0
 78 79  1  0  0  0  0
 79 80  2  0  0  0  0
 80 81  1  0  0  0  0
 81 82  2  0  0  0  0
 82 83  1  0  0  0  0
 82 84  1  0  0  0  0
 84 85  2  0  0  0  0
 78 86  1  0  0  0  0
 86 87  2  0  0  0  0
 87 88  1  0  0  0  0
 88 89  2  0  0  0  0
 89 90  1  0  0  0  0
 89 91  1  0  0  0  0
 91 92  2  0  0  0  0
 77 93  1  0  0  0  0
 93 94  1  0  0  0  0
 94 95  1  0  0  0  0
 95 96  2  0  0  0  0
 96 97  1  0  0  0  0
 97 98  1  0  0  0  0
 98 99  2  0  0  0  0
 99100  1  0  0  0  0
100101  2  0  0  0  0
101102  1  0  0  0  0
101103  1  0  0  0  0
103104  2  0  0  0  0
 97105  1  0  0  0  0
105106  2  0  0  0  0
106107  1  0  0  0  0
107108  2  0  0  0  0
108109  1  0  0  0  0
108110  1  0  0  0  0
110111  2  0  0  0  0
 96112  1  0  0  0  0
112113  1  0  0  0  0
 95114  1  0  0  0  0
114115  2  0  0  0  0
115116  1  0  0  0  0
116117  2  0  0  0  0
116118  1  0  0  0  0
118119  2  0  0  0  0
119120  1  0  0  0  0
120121  2  0  0  0  0
121122  1  0  0  0  0
122123  2  0  0  0  0
123124  1  0  0  0  0
124125  2  0  0  0  0
125126  1  0  0  0  0
126127  3  0  0  0  0
125128  1  0  0  0  0
128129  3  0  0  0  0
121130  1  0  0  0  0
130131  1  0  0  0  0
131132  1  0  0  0  0
132133  2  0  0  0  0
133134  1  0  0  0  0
134135  1  0  0  0  0
134136  1  0  0  0  0
 11  2  1  0  0  0  0
 23 17  1  0  0  0  0
 61 24  1  0  0  0  0
 75 62  1  0  0  0  0
113 76  1  0  0  0  0
124115  1  0  0  0  0
136130  1  0  0  0  0
 10  5  1  0  0  0  0
 22 18  1  0  0  0  0
 33 27  1  0  0  0  0
 40 34  1  0  0  0  0
 60 41  2  0  0  0  0
 71 65  1  0  0  0  0
 85 79  1  0  0  0  0
 92 86  1  0  0  0  0
112 93  2  0  0  0  0
123118  1  0  0  0  0
135131  1  0  0  0  0
 23  7  1  0  0  0  0
 52 46  1  0  0  0  0
 59 53  1  0  0  0  0
104 98  1  0  0  0  0
111105  1  0  0  0  0
136120  1  0  0  0  0
  1137  1  0  0  0  0
  6138  1  0  0  0  0
  9139  1  0  0  0  0
 17140  1  0  0  0  0
 18141  1  0  0  0  0
 19142  1  0  0  0  0
 20143  1  0  0  0  0
 21144  1  0  0  0  0
 22145  1  0  0  0  0
 22146  1  0  0  0  0
 23147  1  0  0  0  0
 28148  1  0  0  0  0
 29149  1  0  0  0  0
 31150  1  0  0  0  0
 31151  1  0  0  0  0
 31152  1  0  0  0  0
 32153  1  0  0  0  0
 33154  1  0  0  0  0
 35155  1  0  0  0  0
 36156  1  0  0  0  0
 38157  1  0  0  0  0
 38158  1  0  0  0  0
 38159  1  0  0  0  0
 39160  1  0  0  0  0
 40161  1  0  0  0  0
 47162  1  0  0  0  0
 48163  1  0  0  0  0
 50164  1  0  0  0  0
 50165  1  0  0  0  0
 50166  1  0  0  0  0
 51167  1  0  0  0  0
 52168  1  0  0  0  0
 54169  1  0  0  0  0
 55170  1  0  0  0  0
 57171  1  0  0  0  0
 57172  1  0  0  0  0
 57173  1  0  0  0  0
 58174  1  0  0  0  0
 59175  1  0  0  0  0
 63176  1  0  0  0  0
 67177  1  0  0  0  0
 69178  1  0  0  0  0
 69179  1  0  0  0  0
 69180  1  0  0  0  0
 70181  1  0  0  0  0
 72182  1  0  0  0  0
 72183  1  0  0  0  0
 72184  1  0  0  0  0
 73185  1  0  0  0  0
 73186  1  0  0  0  0
 73187  1  0  0  0  0
 80188  1  0  0  0  0
 81189  1  0  0  0  0
 83190  1  0  0  0  0
 83191  1  0  0  0  0
 83192  1  0  0  0  0
 84193  1  0  0  0  0
 85194  1  0  0  0  0
 87195  1  0  0  0  0
 88196  1  0  0  0  0
 90197  1  0  0  0  0
 90198  1  0  0  0  0
 90199  1  0  0  0  0
 91200  1  0  0  0  0
 92201  1  0  0  0  0
 99202  1  0  0  0  0
100203  1  0  0  0  0
102204  1  0  0  0  0
102205  1  0  0  0  0
102206  1  0  0  0  0
103207  1  0  0  0  0
104208  1  0  0  0  0
106209  1  0  0  0  0
107210  1  0  0  0  0
109211  1  0  0  0  0
109212  1  0  0  0  0
109213  1  0  0  0  0
110214  1  0  0  0  0
111215  1  0  0  0  0
114216  1  0  0  0  0
119217  1  0  0  0  0
122218  1  0  0  0  0
130219  1  0  0  0  0
131220  1  0  0  0  0
132221  1  0  0  0  0
133222  1  0  0  0  0
134223  1  0  0  0  0
135224  1  0  0  0  0
135225  1  0  0  0  0
136226  1  0  0  0  0
M  END
