202

C         -1.96270       -5.74740       -3.07430
C         -1.94190       -5.44890       -4.40370
C         -0.86120       -4.63180       -5.00670
O          0.04300       -4.07310       -4.42440
C         -1.02250       -4.78210       -6.46390
C         -0.21400       -4.22680       -7.45250
C         -0.60350       -4.53790       -8.73260
C         -1.71090       -5.35050       -9.01250
C         -2.50780       -5.91820       -8.04720
C         -2.13080       -5.60970       -6.73630
C         -2.73120       -6.01540       -5.47020
C         -3.91550       -6.68500       -5.29450
C         -4.49540       -6.89900       -4.02700
N         -5.02620       -7.06960       -3.02280
C         -4.71280       -7.18660       -6.34110
N         -5.39510       -7.62230       -7.15570
C         -1.52010       -5.23440      -10.50460
C         -2.46640       -4.26630      -11.24630
C         -1.75780       -4.00150      -12.55500
C         -0.70270       -3.24020      -12.29540
C         -0.68120       -2.97640      -10.80710
C         -2.18830       -2.94250      -10.52220
C         -0.28150       -4.33420      -10.19290
C         -1.45090       -4.85530       -2.09160
C         -1.82680       -3.52310       -1.95300
N         -2.68020       -2.82920       -2.81860
C         -2.14900       -2.20430       -3.95340
C         -2.86890       -2.17940       -5.14510
C         -2.31920       -1.60750       -6.27500
C         -1.03940       -1.06520       -6.25530
C         -0.44960       -0.44690       -7.48720
C         -0.32700       -1.09880       -5.06350
C         -0.87170       -1.65130       -3.92110
C         -4.00290       -2.63360       -2.41400
C         -4.65380       -3.60750       -1.65920
C         -5.96360       -3.42220       -1.26160
C         -6.65970       -2.26840       -1.59520
C         -8.08710       -2.07580       -1.18260
C         -6.00120       -1.29740       -2.34250
C         -4.69310       -1.46800       -2.74510
C         -1.34680       -2.99000       -0.74310
S         -1.40380       -1.41430       -0.04910
C         -0.29670       -1.91640        1.22900
C          0.09920       -3.24060        1.09870
N          1.08020       -3.85720        1.85300
C          1.07600       -5.25650        1.97820
C         -0.12400       -5.94620        2.12640
C         -0.13080       -7.32170        2.25520
C          1.05060       -8.04910        2.23500
C          1.04440       -9.54210        2.35450
C          2.24520       -7.35530        2.07270
C          2.26520       -5.98220        1.94110
C          2.20410       -3.12380        2.26680
C          2.72530       -2.09800        1.47940
C          3.81260       -1.36960        1.91510
C          4.43510       -1.65860        3.12410
C          5.59340       -0.83580        3.59970
C          3.94030       -2.71430        3.87980
C          2.83060       -3.43000        3.47020
C         -0.55040       -3.85300       -0.00420
S         -0.48440       -5.41590       -0.74200
C          0.17840       -0.86220        2.07850
C          0.34730       -0.74800        3.45090
N         -0.04430       -1.68120        4.38880
C         -1.06920       -2.60330        4.11700
C         -2.16960       -2.27130        3.33260
C         -3.14770       -3.20750        3.05320
C         -3.05650       -4.48680        3.58350
S         -4.21500       -5.77790        3.25710
C         -5.18290       -5.13590        1.86270
C         -1.98900       -4.80380        4.42360
C         -1.00020       -3.88050        4.67420
C          0.43240       -1.61020        5.71050
C         -0.45690       -1.73560        6.78000
C         -0.00100       -1.66350        8.07550
C          1.35330       -1.46120        8.34080
S          1.81390       -1.37220       10.04260
C          3.58320       -0.96700        9.99480
C          2.24180       -1.34610        7.28320
C          1.78260       -1.41790        5.98050
C          0.90570        0.51940        3.77350
S          1.36920        1.30410        5.24100
C          1.86580        2.76420        4.36630
C          1.60020        2.65420        3.00180
N          1.76450        3.60950        2.01730
C          1.49180        4.96570        2.19580
C          2.10810        5.89950        1.35950
C          1.90590        7.24560        1.55000
C          1.10220        7.68960        2.59340
S          0.98170        9.43380        2.87940
C          1.00890        9.48040        4.69850
C          0.43290        6.77080        3.38630
C          0.62190        5.41790        3.18650
C          1.97500        3.14130        0.70150
C          1.12360        3.52840       -0.32820
C          1.28370        3.02090       -1.60160
C          2.30500        2.11720       -1.86600
S          2.57400        1.37230       -3.44030
C          1.35450        2.17350       -4.52160
C          3.17800        1.74950       -0.84290
C          3.01690        2.25630        0.42790
C          1.09320        1.36400        2.69340
S          0.59260        0.62020        1.22290
C          2.49690        3.76250        5.15030
C          2.63450        3.69090        6.53400
C          3.32320        4.76040        7.06610
C          3.73810        5.69790        6.12130
S          3.23970        5.20260        4.52670
C          4.46210        6.85210        6.48900
C          4.94800        7.91090        5.77980
C          4.69430        8.08040        4.36530
O          3.93990        7.37400        3.71100
N          5.31190        9.16080        3.72580
C          4.83150        9.50280        2.38900
C          5.45620        8.61710        1.31930
C          6.45670        9.77810        4.15640
O          7.03680       10.60210        3.49440
C          6.93540        9.32230        5.53510
C          7.79140       10.33890        6.10220
N          8.45120       11.14150        6.57610
C          5.72540        9.02640        6.44320
C          6.18110        8.74050        7.87140
H         -2.40320       -6.67090       -2.71830
H          0.63000       -3.60870       -7.19140
H         -3.34590       -6.55690       -8.27320
H         -1.36450       -6.16950      -11.03920
H         -3.49960       -4.59700      -11.30680
H         -2.05450       -4.42820      -13.49500
H          0.05820       -2.90380      -12.97500
H         -0.08450       -2.13220      -10.47140
H         -2.43900       -2.95940       -9.46290
H         -2.68120       -2.09880      -11.00310
H          0.70170       -4.67390      -10.51310
H         -3.85480       -2.62140       -5.17980
H         -2.88870       -1.59930       -7.19400
H         -0.88320       -0.88440       -8.38340
H         -0.65300        0.62520       -7.50420
H          0.62940       -0.58440       -7.51050
H          0.67580       -0.70000       -5.02540
H         -0.29930       -1.67070       -3.00720
H         -4.13980       -4.52330       -1.40720
H         -6.45540       -4.19790       -0.69290
H         -8.35650       -2.76010       -0.38190
H         -8.25780       -1.05440       -0.84750
H         -8.74980       -2.26460       -2.02760
H         -6.52140       -0.38770       -2.60700
H         -4.19430       -0.69750       -3.31410
H         -1.05220       -5.39980        2.15450
H         -1.07510       -7.83180        2.37650
H          1.10740       -9.99490        1.36440
H          0.12950       -9.88960        2.82780
H          1.89720       -9.88830        2.93460
H          3.17700       -7.90160        2.04000
H          3.20410       -5.46720        1.80170
H          2.28720       -1.87950        0.51720
H          4.19440       -0.57160        1.29530
H          6.11650       -1.33230        4.41330
H          6.29630       -0.65360        2.78900
H          5.24150        0.13240        3.95980
H          4.41930       -2.97490        4.81310
H          2.44340       -4.23020        4.08300
H         -2.27750       -1.26870        2.94780
H         -3.97890       -2.91830        2.43000
H         -5.77280       -5.97420        1.50490
H         -5.83960       -4.33640        2.19430
H         -4.51310       -4.79330        1.07990
H         -1.93170       -5.79350        4.84930
H         -0.16250       -4.14300        5.30200
H         -1.50870       -1.88340        6.58610
H         -0.68960       -1.75270        8.90160
H          3.73550       -0.04180        9.44690
H          4.14280       -1.78610        9.55240
H          3.88060       -0.83680       11.03070
H          3.29630       -1.19890        7.45060
H          2.48270       -1.33800        5.16520
H          2.77210        5.55950        0.57950
H          2.39480        7.96490        0.91250
H          1.71770        8.73780        5.05270
H          1.33360       10.47850        4.97580
H          0.01710        9.29370        5.10010
H         -0.23100        7.10070        4.17040
H          0.09890        4.70770        3.80970
H          0.31890        4.21840       -0.12170
H          0.59310        3.32380       -2.37130
H          1.55300        1.79230       -5.51860
H          1.49820        3.24990       -4.50630
H          0.34810        1.89950       -4.21780
H          3.97750        1.05800       -1.06130
H          3.68600        1.96590        1.22450
H          2.22640        2.88410        7.11780
H          3.51960        4.88000        8.11760
H          4.65950        6.86570        7.55390
H          5.09240       10.54840        2.21660
H          3.74660        9.38700        2.39530
H          5.18990        7.57730        1.49340
H          5.09060        8.91620        0.34090
H          6.53900        8.72030        1.33160
H          7.53270        8.40890        5.40550
H          5.09640        9.92890        6.45870
H          6.79960        9.56170        8.22720
H          5.32870        8.65380        8.54060
H          6.76800        7.82510        7.91720
