191

C         -0.00590       -7.30910        0.01050
C          1.05760       -7.96850       -0.56250
C          2.13870       -7.36260       -1.34210
O          2.37070       -6.17620       -1.50420
C          2.90540       -8.48200       -1.92130
C          4.00810       -8.39620       -2.76650
C          4.50690       -9.61500       -3.16050
C          3.95320      -10.82980       -2.73820
C          2.86840      -10.92770       -1.89870
C          2.34100       -9.69970       -1.49270
C          1.21150       -9.40230       -0.61120
C          0.46310      -10.33840        0.06280
C         -0.52890      -10.05740        1.02120
N         -1.32560       -9.92530        1.84010
C          0.60750      -11.73200       -0.08120
N          0.64810      -12.87760       -0.16060
C          4.94390      -11.64840       -3.52790
C          4.45810      -12.28610       -4.85290
C          3.33070      -11.42000       -5.35730
C          3.85310      -10.26900       -5.75900
C          5.34330      -10.33640       -5.53370
C          5.58840      -11.83190       -5.79020
C          5.56010      -10.29410       -4.00060
C         -0.28610       -5.94740        0.10360
C         -1.48010       -5.44250        0.67950
N         -2.57530       -6.18440        1.02820
C         -3.00390       -7.30310        0.28940
C         -3.58290       -8.38660        0.94510
C         -4.00390       -9.48520        0.22260
C         -3.85300       -9.53920       -1.15780
C         -4.27090      -10.75870       -1.91990
C         -3.29200       -8.44350       -1.80440
C         -2.87980       -7.33200       -1.09770
C         -3.37930       -5.73860        2.09630
C         -2.78740       -5.32100        3.28460
C         -3.57320       -4.88100        4.33100
C         -4.95810       -4.85220        4.22390
C         -5.80690       -4.34990        5.35020
C         -5.53930       -5.28160        3.03570
C         -4.76570       -5.71970        1.98040
C         -1.40700       -4.04690        0.83810
S         -2.51700       -2.84700        1.41420
C         -1.36400       -1.58800        1.03120
C         -0.20870       -2.06880        0.43090
N          0.79980       -1.29320       -0.10630
C          2.11200       -1.78470       -0.08120
C          2.56220       -2.53250        1.00470
C          3.84170       -3.05050        1.00910
C          4.70840       -2.82850       -0.05330
C          6.08130       -3.42700       -0.05990
C          4.25950       -2.06040       -1.12110
C          2.97900       -1.54560       -1.14380
C          0.52240       -0.03290       -0.65750
C          1.38310        1.04210       -0.44920
C          1.06260        2.29910       -0.92420
C         -0.11130        2.52000       -1.63250
C         -0.46210        3.88120       -2.14860
C         -0.94520        1.43390       -1.87660
C         -0.63760        0.17540       -1.40240
C         -0.23640       -3.48410        0.34600
S          0.83540       -4.65540       -0.33630
C         -1.66640       -0.20010        1.27990
C         -2.86820        0.38200        0.92280
F         -3.86210       -0.37740        0.42840
C         -3.06260        1.76560        0.94720
F         -4.23690        2.22160        0.47570
C         -2.06590        2.64800        1.33470
C         -0.86490        2.06450        1.83620
N          0.08390        2.86220        2.34700
C          1.17390        2.34140        2.85100
C          2.18380        3.27090        3.44990
C          1.66500        4.69020        3.63230
C          1.34350        0.92360        2.88010
N          0.42770        0.13150        2.38200
C         -0.67740        0.66290        1.83230
C          2.51990        0.24790        3.51940
C          3.78590        0.32020        2.66400
C         -2.17460        4.07330        1.19900
C         -3.32510        4.83640        1.09310
C         -3.06750        6.19000        0.91360
C         -4.10490        7.21700        0.81810
C         -4.01870        8.37180        1.58630
C         -4.95470        9.38920        1.43090
C         -5.99720        9.23900        0.52090
C         -6.10400        8.06650       -0.22120
O         -7.08720        7.81630       -1.12280
C         -8.06110        8.80790       -1.38080
C         -8.99800        8.26480       -2.44860
C         -5.15980        7.05470       -0.06890
O         -4.76690       10.48110        2.21160
C         -5.52380       11.64810        1.95340
C         -4.96280       12.76290        2.82200
C         -1.68960        6.47130        0.82340
S         -0.74330        5.02580        1.07210
C         -1.21110        7.74880        0.50270
C          0.06800        8.23180        0.40530
C          1.30730        7.47650        0.60580
O          1.42750        6.27500        0.78190
C          2.40580        8.45500        0.52550
C          3.76510        8.20630        0.69750
C          4.55760        9.32290        0.58220
C          4.03480       10.59550        0.31930
C          2.69580       10.85410        0.14560
C          1.87180        9.73050        0.25270
C          0.41900        9.61030        0.12760
C         -0.43170       10.63250       -0.20880
C         -0.02380       11.96040       -0.45460
N          0.22290       13.06250       -0.66510
C         -1.82780       10.54450       -0.39680
N         -2.95800       10.59850       -0.59910
C          5.39540       11.24590        0.33520
C          6.03660       11.61100       -1.02620
C          5.45350       10.66040       -2.04200
C          5.94770        9.45410       -1.79780
C          6.87410        9.56720       -0.61230
C          7.42690       10.98400       -0.83490
C          5.97860        9.82690        0.62460
H         -0.76110       -7.94220        0.45810
H          4.40420       -7.43790       -3.06460
H          2.45540      -11.87110       -1.58290
H          5.57490      -12.32160       -2.95080
H          4.25450      -13.35190       -4.79280
H          2.29490      -11.70180       -5.31610
H          3.34070       -9.39660       -6.12040
H          5.94600       -9.62700       -6.09500
H          5.41550      -12.11550       -6.82740
H          6.57490      -12.17010       -5.47580
H          6.59450      -10.08470       -3.73400
H         -3.68680       -8.36850        2.01840
H         -4.43940      -10.32400        0.74410
H         -3.54610      -11.55890       -1.76640
H         -4.33190      -10.55240       -2.98560
H         -5.23790      -11.11690       -1.57290
H         -3.18290       -8.45560       -2.87940
H         -2.45350       -6.48530       -1.61560
H         -1.71230       -5.35240        3.38370
H         -3.10200       -4.56080        5.24880
H         -6.74830       -4.89230        5.39850
H         -5.29080       -4.45030        6.30190
H         -6.03540       -3.29450        5.19840
H         -6.61450       -5.26540        2.93340
H         -5.22830       -6.04350        1.06000
H          1.90360       -2.69430        1.84460
H          4.17420       -3.63510        1.85480
H          6.04160       -4.42760       -0.49180
H          6.76590       -2.82840       -0.65640
H          6.47390       -3.51330        0.95100
H          4.91850       -1.87400       -1.95690
H          2.63900       -0.96470       -1.98840
H          2.29600        0.89070        0.10680
H          1.72540        3.12790       -0.72330
H         -0.29860        3.92710       -3.22590
H          0.15120        4.64300       -1.67450
H         -1.51130        4.10530       -1.96290
H         -1.85150        1.57780       -2.44720
H         -1.29750       -0.65570       -1.60470
H          3.06070        3.29260        2.79720
H          2.50690        2.86300        4.41200
H          2.39690        5.28410        4.17530
H          0.73260        4.68460        4.19010
H          1.48540        5.14980        2.66660
H          2.71480        0.69870        4.49510
H          2.25440       -0.79940        3.66690
H          4.60670       -0.16640        3.18510
H          3.63370       -0.19620        1.72010
H          4.07080        1.34890        2.46120
H         -4.32040        4.44080        1.17760
H         -3.23510        8.49960        2.31630
H         -6.71760       10.02850        0.39310
H         -7.57730        9.72900       -1.73410
H         -8.62410        9.03350       -0.46390
H         -9.46800        7.35010       -2.09810
H         -8.43830        8.04130       -3.35240
H         -9.76650        8.99820       -2.67550
H         -5.24490        6.16770       -0.67490
H         -6.58210       11.47560        2.19760
H         -5.44010       11.91670        0.89230
H         -5.02340       12.48350        3.87040
H         -3.92090       12.93780        2.56880
H         -5.52720       13.67710        2.66170
H         -2.00490        8.46120        0.31160
H          4.12410        7.21040        0.90560
H          2.31250       11.84060       -0.05340
H          5.54450       12.02050        1.08500
H          5.99310       12.66740       -1.27690
H          4.72000       10.94300       -2.77420
H          5.70910        8.52690       -2.28530
H          7.59450        8.76280       -0.48740
H          7.96660       11.37930        0.02460
H          8.04870       11.05850       -1.72580
H          6.51210        9.67630        1.56150
