
  xtb     02132209493D
 energy: -182.730777146342 gnorm: 0.000318948524 xtb: 6.4.1 (unknown)
 95105  0     0  0            999 V2000
    1.0358   -5.0425    3.3648 C   0  0  0  0  0  0  0  0  0  0  0  0
    1.7849   -4.7306    4.4684 C   0  0  0  0  0  0  0  0  0  0  0  0
    1.8976   -3.3965    5.0559 C   0  0  0  0  0  0  0  0  0  0  0  0
    1.3337   -2.3795    4.6760 O   0  0  0  0  0  0  0  0  0  0  0  0
    2.8163   -3.5095    6.1947 C   0  0  0  0  0  0  0  0  0  0  0  0
    3.2256   -2.4880    7.0485 C   0  0  0  0  0  0  0  0  0  0  0  0
    4.1112   -2.8933    8.0177 C   0  0  0  0  0  0  0  0  0  0  0  0
    4.5552   -4.2179    8.1303 C   0  0  0  0  0  0  0  0  0  0  0  0
    4.1506   -5.2369    7.2997 C   0  0  0  0  0  0  0  0  0  0  0  0
    3.2506   -4.8477    6.3039 C   0  0  0  0  0  0  0  0  0  0  0  0
    2.6156   -5.6339    5.2459 C   0  0  0  0  0  0  0  0  0  0  0  0
    2.7969   -6.9756    5.0364 C   0  0  0  0  0  0  0  0  0  0  0  0
    2.1915   -7.7395    4.0159 C   0  0  0  0  0  0  0  0  0  0  0  0
    1.7446   -8.4368    3.2198 N   0  0  0  0  0  0  0  0  0  0  0  0
    3.6306   -7.8029    5.8193 C   0  0  0  0  0  0  0  0  0  0  0  0
    4.2878   -8.5384    6.4067 N   0  0  0  0  0  0  0  0  0  0  0  0
    5.4445   -3.9031    9.3066 C   0  0  0  0  0  0  0  0  0  0  0  0
    6.9656   -3.7719    9.0443 C   0  0  0  0  0  0  0  0  0  0  0  0
    7.1198   -3.3484    7.6045 C   0  0  0  0  0  0  0  0  0  0  0  0
    6.6965   -2.0956    7.5030 C   0  0  0  0  0  0  0  0  0  0  0  0
    6.2474   -1.6493    8.8725 C   0  0  0  0  0  0  0  0  0  0  0  0
    7.2357   -2.4335    9.7504 C   0  0  0  0  0  0  0  0  0  0  0  0
    4.9457   -2.4286    9.1842 C   0  0  0  0  0  0  0  0  0  0  0  0
    0.2755   -4.2145    2.5177 C   0  0  0  0  0  0  0  0  0  0  0  0
   -0.3703   -4.7569    1.4008 C   0  0  0  0  0  0  0  0  0  0  0  0
   -1.0183   -3.8643    0.5708 C   0  0  0  0  0  0  0  0  0  0  0  0
   -0.9480   -2.5322    0.9640 C   0  0  0  0  0  0  0  0  0  0  0  0
   -0.0010   -2.3593    2.5852 Se  0  0  0  0  0  2  0  0  0  0  0  0
   -1.4503   -1.4122    0.2225 C   0  0  0  0  0  0  0  0  0  0  0  0
   -1.4170   -0.1350    0.7750 C   0  0  0  0  0  0  0  0  0  0  0  0
   -0.9751    0.0103    2.0414 F   0  0  0  0  0  0  0  0  0  0  0  0
   -1.7860    1.0309    0.1084 C   0  0  0  0  0  0  0  0  0  0  0  0
   -1.6760    2.1784    0.7948 F   0  0  0  0  0  0  0  0  0  0  0  0
   -2.2233    1.0138   -1.2089 C   0  0  0  0  0  0  0  0  0  0  0  0
   -2.3120   -0.2827   -1.7971 C   0  0  0  0  0  0  0  0  0  0  0  0
   -2.7500   -0.3398   -3.0620 N   0  0  0  0  0  0  0  0  0  0  0  0
   -2.8504   -1.4847   -3.6887 C   0  0  0  0  0  0  0  0  0  0  0  0
   -3.3910   -1.4268   -5.0809 C   0  0  0  0  0  0  0  0  0  0  0  0
   -4.9205   -1.3712   -5.0420 C   0  0  0  0  0  0  0  0  0  0  0  0
   -2.4938   -2.6835   -3.0071 C   0  0  0  0  0  0  0  0  0  0  0  0
   -2.0616   -2.6457   -1.7719 N   0  0  0  0  0  0  0  0  0  0  0  0
   -1.9501   -1.4764   -1.1209 C   0  0  0  0  0  0  0  0  0  0  0  0
   -2.5975   -4.0137   -3.6915 C   0  0  0  0  0  0  0  0  0  0  0  0
   -2.2413   -5.1929   -2.7978 C   0  0  0  0  0  0  0  0  0  0  0  0
   -2.5228    2.1673   -2.0008 C   0  0  0  0  0  0  0  0  0  0  0  0
   -2.4934    3.4953   -1.6084 C   0  0  0  0  0  0  0  0  0  0  0  0
   -2.6717    4.4249   -2.6287 C   0  0  0  0  0  0  0  0  0  0  0  0
   -2.9106    3.8942   -3.8820 C   0  0  0  0  0  0  0  0  0  0  0  0
   -2.9038    2.0056   -3.8175 Se  0  0  0  0  0  2  0  0  0  0  0  0
   -3.0157    4.6194   -5.0906 C   0  0  0  0  0  0  0  0  0  0  0  0
   -2.2968    5.7399   -5.3974 C   0  0  0  0  0  0  0  0  0  0  0  0
   -2.7476    6.6769   -6.4532 C   0  0  0  0  0  0  0  0  0  0  0  0
   -3.6102    6.4914   -7.2750 O   0  0  0  0  0  0  0  0  0  0  0  0
   -1.9351    7.9051   -6.2338 C   0  0  0  0  0  0  0  0  0  0  0  0
   -0.9909    7.6740   -5.2154 C   0  0  0  0  0  0  0  0  0  0  0  0
   -0.1275    8.6738   -4.8037 C   0  0  0  0  0  0  0  0  0  0  0  0
   -0.2212    9.9103   -5.4260 C   0  0  0  0  0  0  0  0  0  0  0  0
    0.5916   10.8962   -5.0403 F   0  0  0  0  0  0  0  0  0  0  0  0
   -1.1417   10.1563   -6.4428 C   0  0  0  0  0  0  0  0  0  0  0  0
   -1.1952   11.3581   -7.0225 F   0  0  0  0  0  0  0  0  0  0  0  0
   -2.0099    9.1407   -6.8523 C   0  0  0  0  0  0  0  0  0  0  0  0
   -2.8849    9.3846   -7.8220 F   0  0  0  0  0  0  0  0  0  0  0  0
   -1.1090    6.2825   -4.7808 C   0  0  0  0  0  0  0  0  0  0  0  0
   -0.1319    5.5658   -4.1357 C   0  0  0  0  0  0  0  0  0  0  0  0
   -0.1719    4.1604   -4.0517 C   0  0  0  0  0  0  0  0  0  0  0  0
   -0.1572    3.0109   -4.0531 N   0  0  0  0  0  0  0  0  0  0  0  0
    1.0362    6.1301   -3.5873 C   0  0  0  0  0  0  0  0  0  0  0  0
    1.9897    6.5494   -3.1054 N   0  0  0  0  0  0  0  0  0  0  0  0
    1.0328   -6.0819    3.0554 H   0  0  0  0  0  0  0  0  0  0  0  0
    2.8587   -1.4814    6.9233 H   0  0  0  0  0  0  0  0  0  0  0  0
    4.5001   -6.2502    7.4056 H   0  0  0  0  0  0  0  0  0  0  0  0
    5.2276   -4.4417   10.2268 H   0  0  0  0  0  0  0  0  0  0  0  0
    7.5525   -4.6312    9.3571 H   0  0  0  0  0  0  0  0  0  0  0  0
    7.4580   -4.0015    6.8215 H   0  0  0  0  0  0  0  0  0  0  0  0
    6.6098   -1.4925    6.6182 H   0  0  0  0  0  0  0  0  0  0  0  0
    6.1798   -0.5761    9.0299 H   0  0  0  0  0  0  0  0  0  0  0  0
    8.2638   -2.0950    9.6318 H   0  0  0  0  0  0  0  0  0  0  0  0
    6.9693   -2.4381   10.8064 H   0  0  0  0  0  0  0  0  0  0  0  0
    4.3980   -2.0044   10.0234 H   0  0  0  0  0  0  0  0  0  0  0  0
   -0.3411   -5.8162    1.2012 H   0  0  0  0  0  0  0  0  0  0  0  0
   -1.5363   -4.1598   -0.3214 H   0  0  0  0  0  0  0  0  0  0  0  0
   -3.0601   -2.2834   -5.6662 H   0  0  0  0  0  0  0  0  0  0  0  0
   -3.0201   -0.5085   -5.5424 H   0  0  0  0  0  0  0  0  0  0  0  0
   -5.2403   -0.4880   -4.4936 H   0  0  0  0  0  0  0  0  0  0  0  0
   -5.3164   -1.3175   -6.0522 H   0  0  0  0  0  0  0  0  0  0  0  0
   -5.3318   -2.2523   -4.5542 H   0  0  0  0  0  0  0  0  0  0  0  0
   -1.9316   -4.0010   -4.5596 H   0  0  0  0  0  0  0  0  0  0  0  0
   -3.6172   -4.1308   -4.0680 H   0  0  0  0  0  0  0  0  0  0  0  0
   -2.3393   -6.1212   -3.3549 H   0  0  0  0  0  0  0  0  0  0  0  0
   -1.2173   -5.1054   -2.4460 H   0  0  0  0  0  0  0  0  0  0  0  0
   -2.9062   -5.2329   -1.9391 H   0  0  0  0  0  0  0  0  0  0  0  0
   -2.3243    3.8030   -0.5919 H   0  0  0  0  0  0  0  0  0  0  0  0
   -2.6778    5.4879   -2.4439 H   0  0  0  0  0  0  0  0  0  0  0  0
   -3.7488    4.2977   -5.8243 H   0  0  0  0  0  0  0  0  0  0  0  0
    0.6006    8.5334   -4.0215 H   0  0  0  0  0  0  0  0  0  0  0  0
  1  2  2  0  0  0  0
  2  3  1  0  0  0  0
  3  4  2  0  0  0  0
  3  5  1  0  0  0  0
  5  6  2  0  0  0  0
  6  7  1  0  0  0  0
  7  8  2  0  0  0  0
  8  9  1  0  0  0  0
  9 10  2  0  0  0  0
 10 11  1  0  0  0  0
 11 12  2  0  0  0  0
 12 13  1  0  0  0  0
 13 14  3  0  0  0  0
 12 15  1  0  0  0  0
 15 16  3  0  0  0  0
  8 17  1  0  0  0  0
 17 18  1  0  0  0  0
 18 19  1  0  0  0  0
 19 20  2  0  0  0  0
 20 21  1  0  0  0  0
 21 22  1  0  0  0  0
 21 23  1  0  0  0  0
  1 24  1  0  0  0  0
 24 25  2  0  0  0  0
 25 26  1  0  0  0  0
 26 27  2  0  0  0  0
 27 28  1  0  0  0  0
 27 29  1  0  0  0  0
 29 30  2  0  0  0  0
 30 31  1  0  0  0  0
 30 32  1  0  0  0  0
 32 33  1  0  0  0  0
 32 34  2  0  0  0  0
 34 35  1  0  0  0  0
 35 36  2  0  0  0  0
 36 37  1  0  0  0  0
 37 38  1  0  0  0  0
 38 39  1  0  0  0  0
 37 40  2  0  0  0  0
 40 41  1  0  0  0  0
 41 42  2  0  0  0  0
 40 43  1  0  0  0  0
 43 44  1  0  0  0  0
 34 45  1  0  0  0  0
 45 46  2  0  0  0  0
 46 47  1  0  0  0  0
 47 48  2  0  0  0  0
 48 49  1  0  0  0  0
 48 50  1  0  0  0  0
 50 51  2  0  0  0  0
 51 52  1  0  0  0  0
 52 53  2  0  0  0  0
 52 54  1  0  0  0  0
 54 55  2  0  0  0  0
 55 56  1  0  0  0  0
 56 57  2  0  0  0  0
 57 58  1  0  0  0  0
 57 59  1  0  0  0  0
 59 60  1  0  0  0  0
 59 61  2  0  0  0  0
 61 62  1  0  0  0  0
 55 63  1  0  0  0  0
 63 64  2  0  0  0  0
 64 65  1  0  0  0  0
 65 66  3  0  0  0  0
 64 67  1  0  0  0  0
 67 68  3  0  0  0  0
 11  2  1  0  0  0  0
 23 17  1  0  0  0  0
 28 24  1  0  0  0  0
 42 29  1  0  0  0  0
 49 45  1  0  0  0  0
 63 51  1  0  0  0  0
 10  5  1  0  0  0  0
 22 18  1  0  0  0  0
 42 35  1  0  0  0  0
 61 54  1  0  0  0  0
 23  7  1  0  0  0  0
  1 69  1  0  0  0  0
  6 70  1  0  0  0  0
  9 71  1  0  0  0  0
 17 72  1  0  0  0  0
 18 73  1  0  0  0  0
 19 74  1  0  0  0  0
 20 75  1  0  0  0  0
 21 76  1  0  0  0  0
 22 77  1  0  0  0  0
 22 78  1  0  0  0  0
 23 79  1  0  0  0  0
 25 80  1  0  0  0  0
 26 81  1  0  0  0  0
 38 82  1  0  0  0  0
 38 83  1  0  0  0  0
 39 84  1  0  0  0  0
 39 85  1  0  0  0  0
 39 86  1  0  0  0  0
 43 87  1  0  0  0  0
 43 88  1  0  0  0  0
 44 89  1  0  0  0  0
 44 90  1  0  0  0  0
 44 91  1  0  0  0  0
 46 92  1  0  0  0  0
 47 93  1  0  0  0  0
 50 94  1  0  0  0  0
 56 95  1  0  0  0  0
M  END
