
  xtb     02142223303D
 energy: -349.337805558100 gnorm: 0.000530168343 xtb: 6.4.1 (unknown)
212235  0     0  0            999 V2000
   -0.4138    2.6762   -8.7144 C   0  0  0  0  0  0  0  0  0  0  0  0
    0.5221    3.1913   -9.5845 C   0  0  0  0  0  0  0  0  0  0  0  0
    1.8768    2.6848   -9.8057 C   0  0  0  0  0  0  0  0  0  0  0  0
    2.4433    1.7740   -9.2231 O   0  0  0  0  0  0  0  0  0  0  0  0
    2.4436    3.4851  -10.9067 C   0  0  0  0  0  0  0  0  0  0  0  0
    3.7131    3.3623  -11.4659 C   0  0  0  0  0  0  0  0  0  0  0  0
    3.9640    4.2518  -12.4833 C   0  0  0  0  0  0  0  0  0  0  0  0
    3.0180    5.1889  -12.9167 C   0  0  0  0  0  0  0  0  0  0  0  0
    1.7605    5.3178  -12.3748 C   0  0  0  0  0  0  0  0  0  0  0  0
    1.4871    4.4270  -11.3333 C   0  0  0  0  0  0  0  0  0  0  0  0
    0.2914    4.2818  -10.5011 C   0  0  0  0  0  0  0  0  0  0  0  0
   -0.8231    5.0840  -10.5724 C   0  0  0  0  0  0  0  0  0  0  0  0
   -1.9133    5.0574   -9.6820 C   0  0  0  0  0  0  0  0  0  0  0  0
   -2.8238    5.1424   -8.9842 N   0  0  0  0  0  0  0  0  0  0  0  0
   -1.0196    6.0943  -11.5343 C   0  0  0  0  0  0  0  0  0  0  0  0
   -1.2599    6.9213  -12.2951 N   0  0  0  0  0  0  0  0  0  0  0  0
    3.9432    5.7587  -13.9636 C   0  0  0  0  0  0  0  0  0  0  0  0
    4.6158    7.1067  -13.6287 C   0  0  0  0  0  0  0  0  0  0  0  0
    5.7920    7.1695  -14.5760 C   0  0  0  0  0  0  0  0  0  0  0  0
    6.6893    6.2829  -14.1645 C   0  0  0  0  0  0  0  0  0  0  0  0
    6.1345    5.6059  -12.9319 C   0  0  0  0  0  0  0  0  0  0  0  0
    5.3471    6.7728  -12.3220 C   0  0  0  0  0  0  0  0  0  0  0  0
    4.9994    4.7143  -13.4788 C   0  0  0  0  0  0  0  0  0  0  0  0
   -0.3003    1.6717   -7.7564 C   0  0  0  0  0  0  0  0  0  0  0  0
   -1.3676    1.2946   -6.8983 C   0  0  0  0  0  0  0  0  0  0  0  0
   -2.6750    1.6697   -7.0376 N   0  0  0  0  0  0  0  0  0  0  0  0
   -3.4695    1.7672   -5.8761 C   0  0  0  0  0  0  0  0  0  0  0  0
   -4.7246    1.1691   -5.8209 C   0  0  0  0  0  0  0  0  0  0  0  0
   -5.4732    1.2468   -4.6647 C   0  0  0  0  0  0  0  0  0  0  0  0
   -4.9961    1.9161   -3.5424 C   0  0  0  0  0  0  0  0  0  0  0  0
   -5.8000    1.9467   -2.2796 C   0  0  0  0  0  0  0  0  0  0  0  0
   -3.7528    2.5299   -3.6165 C   0  0  0  0  0  0  0  0  0  0  0  0
   -2.9945    2.4627   -4.7688 C   0  0  0  0  0  0  0  0  0  0  0  0
   -3.2979    1.8166   -8.2906 C   0  0  0  0  0  0  0  0  0  0  0  0
   -2.9469    1.0020   -9.3644 C   0  0  0  0  0  0  0  0  0  0  0  0
   -3.5649    1.1677  -10.5876 C   0  0  0  0  0  0  0  0  0  0  0  0
   -4.5541    2.1275  -10.7691 C   0  0  0  0  0  0  0  0  0  0  0  0
   -5.2090    2.3272  -12.1008 C   0  0  0  0  0  0  0  0  0  0  0  0
   -4.9191    2.9131   -9.6821 C   0  0  0  0  0  0  0  0  0  0  0  0
   -4.3003    2.7691   -8.4566 C   0  0  0  0  0  0  0  0  0  0  0  0
   -0.9023    0.4783   -5.8515 C   0  0  0  0  0  0  0  0  0  0  0  0
   -1.6525   -0.2599   -4.4705 S   0  0  0  0  0  0  0  0  0  0  0  0
   -0.1104   -0.9631   -4.0048 C   0  0  0  0  0  0  0  0  0  0  0  0
    0.9039   -0.7140   -4.9284 C   0  0  0  0  0  0  0  0  0  0  0  0
    2.1840   -1.2221   -4.8847 N   0  0  0  0  0  0  0  0  0  0  0  0
    3.1874   -0.4026   -5.4515 C   0  0  0  0  0  0  0  0  0  0  0  0
    3.3181    0.9079   -5.0038 C   0  0  0  0  0  0  0  0  0  0  0  0
    4.2210    1.7590   -5.6091 C   0  0  0  0  0  0  0  0  0  0  0  0
    5.0130    1.3257   -6.6648 C   0  0  0  0  0  0  0  0  0  0  0  0
    5.9331    2.2722   -7.3703 C   0  0  0  0  0  0  0  0  0  0  0  0
    4.8987    0.0047   -7.0807 C   0  0  0  0  0  0  0  0  0  0  0  0
    3.9974   -0.8553   -6.4870 C   0  0  0  0  0  0  0  0  0  0  0  0
    2.4356   -2.5841   -4.6813 C   0  0  0  0  0  0  0  0  0  0  0  0
    3.7131   -2.9988   -4.3103 C   0  0  0  0  0  0  0  0  0  0  0  0
    4.0069   -4.3443   -4.2111 C   0  0  0  0  0  0  0  0  0  0  0  0
    3.0412   -5.3132   -4.4522 C   0  0  0  0  0  0  0  0  0  0  0  0
    3.3583   -6.7741   -4.3786 C   0  0  0  0  0  0  0  0  0  0  0  0
    1.7561   -4.8890   -4.7708 C   0  0  0  0  0  0  0  0  0  0  0  0
    1.4523   -3.5492   -4.8926 C   0  0  0  0  0  0  0  0  0  0  0  0
    0.4450    0.1521   -5.9505 C   0  0  0  0  0  0  0  0  0  0  0  0
    1.2095    0.8631   -7.3277 S   0  0  0  0  0  0  0  0  0  0  0  0
   -0.0592   -1.4983   -2.7041 C   0  0  0  0  0  0  0  0  0  0  0  0
    1.4643   -1.9337   -1.8724 S   0  0  0  0  0  0  0  0  0  0  0  0
    0.5467   -2.0731   -0.4210 C   0  0  0  0  0  0  0  0  0  0  0  0
    0.8704   -2.2840    0.8535 N   0  0  0  0  0  0  0  0  0  0  0  0
   -0.1840   -2.2340    1.6170 C   0  0  0  0  0  0  0  0  0  0  0  0
   -1.7246   -1.9229    0.7561 S   0  0  0  0  0  0  0  0  0  0  0  0
   -0.8102   -1.8345   -0.6953 C   0  0  0  0  0  0  0  0  0  0  0  0
   -1.1223   -1.5212   -1.9466 N   0  0  0  0  0  0  0  0  0  0  0  0
   -0.1888   -2.2977    3.0242 C   0  0  0  0  0  0  0  0  0  0  0  0
    0.8879   -2.4695    3.8995 C   0  0  0  0  0  0  0  0  0  0  0  0
    2.1673   -2.8183    3.5429 N   0  0  0  0  0  0  0  0  0  0  0  0
    2.4098   -3.7302    2.5081 C   0  0  0  0  0  0  0  0  0  0  0  0
    1.5506   -4.8067    2.2926 C   0  0  0  0  0  0  0  0  0  0  0  0
    1.8128   -5.7124    1.2897 C   0  0  0  0  0  0  0  0  0  0  0  0
    2.9396   -5.5656    0.4855 C   0  0  0  0  0  0  0  0  0  0  0  0
    3.2028   -6.7935   -0.7529 S   0  0  0  0  0  0  0  0  0  0  0  0
    4.9633   -6.5973   -1.1572 C   0  0  0  0  0  0  0  0  0  0  0  0
    3.7892   -4.4860    0.6852 C   0  0  0  0  0  0  0  0  0  0  0  0
    3.5270   -3.5804    1.6920 C   0  0  0  0  0  0  0  0  0  0  0  0
    3.2411   -2.2994    4.2836 C   0  0  0  0  0  0  0  0  0  0  0  0
    3.2290   -0.9711    4.6991 C   0  0  0  0  0  0  0  0  0  0  0  0
    4.2674   -0.4558    5.4501 C   0  0  0  0  0  0  0  0  0  0  0  0
    5.3418   -1.2644    5.7943 C   0  0  0  0  0  0  0  0  0  0  0  0
    6.7250   -0.7220    6.7446 S   0  0  0  0  0  0  0  0  0  0  0  0
    6.2356    0.9279    7.3230 C   0  0  0  0  0  0  0  0  0  0  0  0
    5.3651   -2.5915    5.3663 C   0  0  0  0  0  0  0  0  0  0  0  0
    4.3279   -3.1058    4.6228 C   0  0  0  0  0  0  0  0  0  0  0  0
    0.4761   -2.2426    5.2348 C   0  0  0  0  0  0  0  0  0  0  0  0
    1.2856   -2.3087    6.7575 S   0  0  0  0  0  0  0  0  0  0  0  0
   -0.2036   -1.8524    7.6011 C   0  0  0  0  0  0  0  0  0  0  0  0
   -1.3004   -1.7662    6.7187 C   0  0  0  0  0  0  0  0  0  0  0  0
   -2.6171   -1.6346    7.0596 N   0  0  0  0  0  0  0  0  0  0  0  0
   -3.1149   -2.0349    8.3047 C   0  0  0  0  0  0  0  0  0  0  0  0
   -2.6638   -3.2037    8.9227 C   0  0  0  0  0  0  0  0  0  0  0  0
   -3.1075   -3.5385   10.1796 C   0  0  0  0  0  0  0  0  0  0  0  0
   -4.0093   -2.7143   10.8574 C   0  0  0  0  0  0  0  0  0  0  0  0
   -4.4264   -3.1905   12.4990 S   0  0  0  0  0  0  0  0  0  0  0  0
   -5.2510   -1.7213   13.1748 C   0  0  0  0  0  0  0  0  0  0  0  0
   -4.5159   -1.5908   10.2175 C   0  0  0  0  0  0  0  0  0  0  0  0
   -4.0732   -1.2573    8.9516 C   0  0  0  0  0  0  0  0  0  0  0  0
   -3.5196   -1.1110    6.1116 C   0  0  0  0  0  0  0  0  0  0  0  0
   -4.7372   -1.7479    5.8797 C   0  0  0  0  0  0  0  0  0  0  0  0
   -5.5853   -1.2736    4.9039 C   0  0  0  0  0  0  0  0  0  0  0  0
   -5.2343   -0.1589    4.1443 C   0  0  0  0  0  0  0  0  0  0  0  0
   -6.3628    0.3368    2.8837 S   0  0  0  0  0  0  0  0  0  0  0  0
   -5.3393    1.3677    1.7926 C   0  0  0  0  0  0  0  0  0  0  0  0
   -4.0475    0.5102    4.4152 C   0  0  0  0  0  0  0  0  0  0  0  0
   -3.1969    0.0362    5.3936 C   0  0  0  0  0  0  0  0  0  0  0  0
   -0.8732   -1.9513    5.3830 C   0  0  0  0  0  0  0  0  0  0  0  0
   -1.6952   -1.9681    3.8597 S   0  0  0  0  0  0  0  0  0  0  0  0
   -0.1137   -1.6673    8.9845 C   0  0  0  0  0  0  0  0  0  0  0  0
   -0.9595   -0.8949    9.7505 C   0  0  0  0  0  0  0  0  0  0  0  0
   -1.7249    0.2468    9.2282 C   0  0  0  0  0  0  0  0  0  0  0  0
   -1.7580    0.6541    8.0804 O   0  0  0  0  0  0  0  0  0  0  0  0
   -2.3373    0.8944   10.4077 C   0  0  0  0  0  0  0  0  0  0  0  0
   -3.1583    2.0182   10.4164 C   0  0  0  0  0  0  0  0  0  0  0  0
   -3.5879    2.3893   11.6689 C   0  0  0  0  0  0  0  0  0  0  0  0
   -3.2147    1.7025   12.8301 C   0  0  0  0  0  0  0  0  0  0  0  0
   -2.4004    0.5932   12.8355 C   0  0  0  0  0  0  0  0  0  0  0  0
   -1.9647    0.1925   11.5697 C   0  0  0  0  0  0  0  0  0  0  0  0
   -1.1329   -0.9441   11.1768 C   0  0  0  0  0  0  0  0  0  0  0  0
   -0.7320   -1.9693   11.9979 C   0  0  0  0  0  0  0  0  0  0  0  0
   -0.9926   -2.0284   13.3799 C   0  0  0  0  0  0  0  0  0  0  0  0
   -1.1756   -2.1216   14.5100 N   0  0  0  0  0  0  0  0  0  0  0  0
   -0.0639   -3.1229   11.5419 C   0  0  0  0  0  0  0  0  0  0  0  0
    0.4543   -4.1000   11.2317 N   0  0  0  0  0  0  0  0  0  0  0  0
   -3.9927    2.6327   13.7285 C   0  0  0  0  0  0  0  0  0  0  0  0
   -3.1756    3.6911   14.4988 C   0  0  0  0  0  0  0  0  0  0  0  0
   -4.2046    4.7266   14.8916 C   0  0  0  0  0  0  0  0  0  0  0  0
   -4.5637    5.3759   13.7917 C   0  0  0  0  0  0  0  0  0  0  0  0
   -3.7828    4.7906   12.6371 C   0  0  0  0  0  0  0  0  0  0  0  0
   -2.4745    4.4365   13.3558 C   0  0  0  0  0  0  0  0  0  0  0  0
   -4.4130    3.3971   12.4320 C   0  0  0  0  0  0  0  0  0  0  0  0
   -1.3945    3.1323   -8.7572 H   0  0  0  0  0  0  0  0  0  0  0  0
    4.4080    2.6199  -11.1051 H   0  0  0  0  0  0  0  0  0  0  0  0
    1.0440    6.0419  -12.7244 H   0  0  0  0  0  0  0  0  0  0  0  0
    3.5896    5.7031  -14.9914 H   0  0  0  0  0  0  0  0  0  0  0  0
    3.9447    7.9612  -13.6234 H   0  0  0  0  0  0  0  0  0  0  0  0
    5.8250    7.7915  -15.4513 H   0  0  0  0  0  0  0  0  0  0  0  0
    7.6214    6.0163  -14.6274 H   0  0  0  0  0  0  0  0  0  0  0  0
    6.8485    5.0942  -12.2919 H   0  0  0  0  0  0  0  0  0  0  0  0
    5.9977    7.5827  -11.9960 H   0  0  0  0  0  0  0  0  0  0  0  0
    4.6872    6.4845  -11.5059 H   0  0  0  0  0  0  0  0  0  0  0  0
    5.3505    3.9633  -14.1843 H   0  0  0  0  0  0  0  0  0  0  0  0
   -5.0994    0.6361   -6.6820 H   0  0  0  0  0  0  0  0  0  0  0  0
   -6.4411    0.7689   -4.6260 H   0  0  0  0  0  0  0  0  0  0  0  0
   -6.8488    2.1439   -2.4923 H   0  0  0  0  0  0  0  0  0  0  0  0
   -5.4271    2.7089   -1.5996 H   0  0  0  0  0  0  0  0  0  0  0  0
   -5.7356    0.9787   -1.7818 H   0  0  0  0  0  0  0  0  0  0  0  0
   -3.3699    3.0677   -2.7616 H   0  0  0  0  0  0  0  0  0  0  0  0
   -2.0308    2.9478   -4.8192 H   0  0  0  0  0  0  0  0  0  0  0  0
   -2.1866    0.2454   -9.2378 H   0  0  0  0  0  0  0  0  0  0  0  0
   -3.2776    0.5330  -11.4136 H   0  0  0  0  0  0  0  0  0  0  0  0
   -4.9097    3.2865  -12.5231 H   0  0  0  0  0  0  0  0  0  0  0  0
   -6.2927    2.3350  -11.9979 H   0  0  0  0  0  0  0  0  0  0  0  0
   -4.9276    1.5415  -12.7974 H   0  0  0  0  0  0  0  0  0  0  0  0
   -5.6860    3.6633   -9.8013 H   0  0  0  0  0  0  0  0  0  0  0  0
   -4.5797    3.4002   -7.6280 H   0  0  0  0  0  0  0  0  0  0  0  0
    2.6945    1.2540   -4.1920 H   0  0  0  0  0  0  0  0  0  0  0  0
    4.3035    2.7794   -5.2632 H   0  0  0  0  0  0  0  0  0  0  0  0
    6.2760    3.0587   -6.7020 H   0  0  0  0  0  0  0  0  0  0  0  0
    6.7954    1.7497   -7.7780 H   0  0  0  0  0  0  0  0  0  0  0  0
    5.3975    2.7398   -8.1973 H   0  0  0  0  0  0  0  0  0  0  0  0
    5.5071   -0.3499   -7.8994 H   0  0  0  0  0  0  0  0  0  0  0  0
    3.8976   -1.8716   -6.8380 H   0  0  0  0  0  0  0  0  0  0  0  0
    4.4766   -2.2588   -4.1219 H   0  0  0  0  0  0  0  0  0  0  0  0
    5.0141   -4.6445   -3.9569 H   0  0  0  0  0  0  0  0  0  0  0  0
    2.9816   -7.1927   -3.4452 H   0  0  0  0  0  0  0  0  0  0  0  0
    4.4315   -6.9427   -4.4249 H   0  0  0  0  0  0  0  0  0  0  0  0
    2.8828   -7.3091   -5.1981 H   0  0  0  0  0  0  0  0  0  0  0  0
    0.9850   -5.6240   -4.9507 H   0  0  0  0  0  0  0  0  0  0  0  0
    0.4551   -3.2498   -5.1791 H   0  0  0  0  0  0  0  0  0  0  0  0
    0.6831   -4.9376    2.9221 H   0  0  0  0  0  0  0  0  0  0  0  0
    1.1539   -6.5513    1.1248 H   0  0  0  0  0  0  0  0  0  0  0  0
    5.5427   -6.5728   -0.2394 H   0  0  0  0  0  0  0  0  0  0  0  0
    5.1122   -5.6963   -1.7443 H   0  0  0  0  0  0  0  0  0  0  0  0
    5.2332   -7.4699   -1.7434 H   0  0  0  0  0  0  0  0  0  0  0  0
    4.6495   -4.3316    0.0543 H   0  0  0  0  0  0  0  0  0  0  0  0
    4.1844   -2.7371    1.8391 H   0  0  0  0  0  0  0  0  0  0  0  0
    2.4012   -0.3341    4.4238 H   0  0  0  0  0  0  0  0  0  0  0  0
    4.2270    0.5781    5.7519 H   0  0  0  0  0  0  0  0  0  0  0  0
    7.0203    1.2434    8.0036 H   0  0  0  0  0  0  0  0  0  0  0  0
    6.1770    1.6179    6.4861 H   0  0  0  0  0  0  0  0  0  0  0  0
    5.2896    0.8651    7.8525 H   0  0  0  0  0  0  0  0  0  0  0  0
    6.2035   -3.2142    5.6378 H   0  0  0  0  0  0  0  0  0  0  0  0
    4.3446   -4.1382    4.3083 H   0  0  0  0  0  0  0  0  0  0  0  0
   -1.9546   -3.8417    8.4179 H   0  0  0  0  0  0  0  0  0  0  0  0
   -2.7485   -4.4340   10.6628 H   0  0  0  0  0  0  0  0  0  0  0  0
   -6.2348   -1.6008   12.7303 H   0  0  0  0  0  0  0  0  0  0  0  0
   -5.3476   -1.9095   14.2394 H   0  0  0  0  0  0  0  0  0  0  0  0
   -4.6292   -0.8460   13.0081 H   0  0  0  0  0  0  0  0  0  0  0  0
   -5.2426   -0.9569   10.6993 H   0  0  0  0  0  0  0  0  0  0  0  0
   -4.4587   -0.3752    8.4627 H   0  0  0  0  0  0  0  0  0  0  0  0
   -5.0002   -2.6252    6.4519 H   0  0  0  0  0  0  0  0  0  0  0  0
   -6.5208   -1.7726    4.7031 H   0  0  0  0  0  0  0  0  0  0  0  0
   -4.4227    0.8375    1.5522 H   0  0  0  0  0  0  0  0  0  0  0  0
   -5.9298    1.5187    0.8943 H   0  0  0  0  0  0  0  0  0  0  0  0
   -5.1330    2.3265    2.2594 H   0  0  0  0  0  0  0  0  0  0  0  0
   -3.7764    1.4012    3.8728 H   0  0  0  0  0  0  0  0  0  0  0  0
   -2.2834    0.5602    5.6269 H   0  0  0  0  0  0  0  0  0  0  0  0
    0.7280   -2.1492    9.4673 H   0  0  0  0  0  0  0  0  0  0  0  0
   -3.4195    2.5220    9.4987 H   0  0  0  0  0  0  0  0  0  0  0  0
   -2.1138    0.0775   13.7373 H   0  0  0  0  0  0  0  0  0  0  0  0
   -4.7692    2.1708   14.3364 H   0  0  0  0  0  0  0  0  0  0  0  0
   -2.5521    3.2936   15.2950 H   0  0  0  0  0  0  0  0  0  0  0  0
   -4.5931    4.8388   15.8868 H   0  0  0  0  0  0  0  0  0  0  0  0
   -5.3123    6.1389   13.6843 H   0  0  0  0  0  0  0  0  0  0  0  0
   -3.7125    5.3960   11.7373 H   0  0  0  0  0  0  0  0  0  0  0  0
   -1.8001    3.8158   12.7688 H   0  0  0  0  0  0  0  0  0  0  0  0
   -1.9444    5.3208   13.7054 H   0  0  0  0  0  0  0  0  0  0  0  0
   -5.4700    3.4416   12.1743 H   0  0  0  0  0  0  0  0  0  0  0  0
  1  2  2  0  0  0  0
  2  3  1  0  0  0  0
  3  4  2  0  0  0  0
  3  5  1  0  0  0  0
  5  6  2  0  0  0  0
  6  7  1  0  0  0  0
  7  8  2  0  0  0  0
  8  9  1  0  0  0  0
  9 10  2  0  0  0  0
 10 11  1  0  0  0  0
 11 12  2  0  0  0  0
 12 13  1  0  0  0  0
 13 14  3  0  0  0  0
 12 15  1  0  0  0  0
 15 16  3  0  0  0  0
  8 17  1  0  0  0  0
 17 18  1  0  0  0  0
 18 19  1  0  0  0  0
 19 20  2  0  0  0  0
 20 21  1  0  0  0  0
 21 22  1  0  0  0  0
 21 23  1  0  0  0  0
  1 24  1  0  0  0  0
 24 25  2  0  0  0  0
 25 26  1  0  0  0  0
 26 27  1  0  0  0  0
 27 28  2  0  0  0  0
 28 29  1  0  0  0  0
 29 30  2  0  0  0  0
 30 31  1  0  0  0  0
 30 32  1  0  0  0  0
 32 33  2  0  0  0  0
 26 34  1  0  0  0  0
 34 35  2  0  0  0  0
 35 36  1  0  0  0  0
 36 37  2  0  0  0  0
 37 38  1  0  0  0  0
 37 39  1  0  0  0  0
 39 40  2  0  0  0  0
 25 41  1  0  0  0  0
 41 42  1  0  0  0  0
 42 43  1  0  0  0  0
 43 44  2  0  0  0  0
 44 45  1  0  0  0  0
 45 46  1  0  0  0  0
 46 47  2  0  0  0  0
 47 48  1  0  0  0  0
 48 49  2  0  0  0  0
 49 50  1  0  0  0  0
 49 51  1  0  0  0  0
 51 52  2  0  0  0  0
 45 53  1  0  0  0  0
 53 54  2  0  0  0  0
 54 55  1  0  0  0  0
 55 56  2  0  0  0  0
 56 57  1  0  0  0  0
 56 58  1  0  0  0  0
 58 59  2  0  0  0  0
 44 60  1  0  0  0  0
 60 61  1  0  0  0  0
 43 62  1  0  0  0  0
 62 63  1  0  0  0  0
 63 64  1  0  0  0  0
 64 65  1  0  0  0  0
 65 66  2  0  0  0  0
 66 67  1  0  0  0  0
 67 68  1  0  0  0  0
 68 69  1  0  0  0  0
 66 70  1  0  0  0  0
 70 71  2  0  0  0  0
 71 72  1  0  0  0  0
 72 73  1  0  0  0  0
 73 74  2  0  0  0  0
 74 75  1  0  0  0  0
 75 76  2  0  0  0  0
 76 77  1  0  0  0  0
 77 78  1  0  0  0  0
 76 79  1  0  0  0  0
 79 80  2  0  0  0  0
 72 81  1  0  0  0  0
 81 82  2  0  0  0  0
 82 83  1  0  0  0  0
 83 84  2  0  0  0  0
 84 85  1  0  0  0  0
 85 86  1  0  0  0  0
 84 87  1  0  0  0  0
 87 88  2  0  0  0  0
 71 89  1  0  0  0  0
 89 90  1  0  0  0  0
 90 91  1  0  0  0  0
 91 92  2  0  0  0  0
 92 93  1  0  0  0  0
 93 94  1  0  0  0  0
 94 95  2  0  0  0  0
 95 96  1  0  0  0  0
 96 97  2  0  0  0  0
 97 98  1  0  0  0  0
 98 99  1  0  0  0  0
 97100  1  0  0  0  0
100101  2  0  0  0  0
 93102  1  0  0  0  0
102103  2  0  0  0  0
103104  1  0  0  0  0
104105  2  0  0  0  0
105106  1  0  0  0  0
106107  1  0  0  0  0
105108  1  0  0  0  0
108109  2  0  0  0  0
 92110  1  0  0  0  0
110111  1  0  0  0  0
 91112  1  0  0  0  0
112113  2  0  0  0  0
113114  1  0  0  0  0
114115  2  0  0  0  0
114116  1  0  0  0  0
116117  2  0  0  0  0
117118  1  0  0  0  0
118119  2  0  0  0  0
119120  1  0  0  0  0
120121  2  0  0  0  0
121122  1  0  0  0  0
122123  2  0  0  0  0
123124  1  0  0  0  0
124125  3  0  0  0  0
123126  1  0  0  0  0
126127  3  0  0  0  0
119128  1  0  0  0  0
128129  1  0  0  0  0
129130  1  0  0  0  0
130131  2  0  0  0  0
131132  1  0  0  0  0
132133  1  0  0  0  0
132134  1  0  0  0  0
 11  2  1  0  0  0  0
 23 17  1  0  0  0  0
 61 24  1  0  0  0  0
 69 62  2  0  0  0  0
111 70  1  0  0  0  0
122113  1  0  0  0  0
134128  1  0  0  0  0
 10  5  1  0  0  0  0
 22 18  1  0  0  0  0
 33 27  1  0  0  0  0
 40 34  1  0  0  0  0
 60 41  2  0  0  0  0
 68 64  2  0  0  0  0
 80 73  1  0  0  0  0
 88 81  1  0  0  0  0
110 89  2  0  0  0  0
121116  1  0  0  0  0
133129  1  0  0  0  0
 23  7  1  0  0  0  0
 52 46  1  0  0  0  0
 59 53  1  0  0  0  0
101 94  1  0  0  0  0
109102  1  0  0  0  0
134118  1  0  0  0  0
  1135  1  0  0  0  0
  6136  1  0  0  0  0
  9137  1  0  0  0  0
 17138  1  0  0  0  0
 18139  1  0  0  0  0
 19140  1  0  0  0  0
 20141  1  0  0  0  0
 21142  1  0  0  0  0
 22143  1  0  0  0  0
 22144  1  0  0  0  0
 23145  1  0  0  0  0
 28146  1  0  0  0  0
 29147  1  0  0  0  0
 31148  1  0  0  0  0
 31149  1  0  0  0  0
 31150  1  0  0  0  0
 32151  1  0  0  0  0
 33152  1  0  0  0  0
 35153  1  0  0  0  0
 36154  1  0  0  0  0
 38155  1  0  0  0  0
 38156  1  0  0  0  0
 38157  1  0  0  0  0
 39158  1  0  0  0  0
 40159  1  0  0  0  0
 47160  1  0  0  0  0
 48161  1  0  0  0  0
 50162  1  0  0  0  0
 50163  1  0  0  0  0
 50164  1  0  0  0  0
 51165  1  0  0  0  0
 52166  1  0  0  0  0
 54167  1  0  0  0  0
 55168  1  0  0  0  0
 57169  1  0  0  0  0
 57170  1  0  0  0  0
 57171  1  0  0  0  0
 58172  1  0  0  0  0
 59173  1  0  0  0  0
 74174  1  0  0  0  0
 75175  1  0  0  0  0
 78176  1  0  0  0  0
 78177  1  0  0  0  0
 78178  1  0  0  0  0
 79179  1  0  0  0  0
 80180  1  0  0  0  0
 82181  1  0  0  0  0
 83182  1  0  0  0  0
 86183  1  0  0  0  0
 86184  1  0  0  0  0
 86185  1  0  0  0  0
 87186  1  0  0  0  0
 88187  1  0  0  0  0
 95188  1  0  0  0  0
 96189  1  0  0  0  0
 99190  1  0  0  0  0
 99191  1  0  0  0  0
 99192  1  0  0  0  0
100193  1  0  0  0  0
101194  1  0  0  0  0
103195  1  0  0  0  0
104196  1  0  0  0  0
107197  1  0  0  0  0
107198  1  0  0  0  0
107199  1  0  0  0  0
108200  1  0  0  0  0
109201  1  0  0  0  0
112202  1  0  0  0  0
117203  1  0  0  0  0
120204  1  0  0  0  0
128205  1  0  0  0  0
129206  1  0  0  0  0
130207  1  0  0  0  0
131208  1  0  0  0  0
132209  1  0  0  0  0
133210  1  0  0  0  0
133211  1  0  0  0  0
134212  1  0  0  0  0
M  END
