
  xtb     02152201393D
 energy: -321.216752001784 gnorm: 0.000801624220 xtb: 6.4.1 (unknown)
201220  0     0  0            999 V2000
    1.2826    0.1641    6.7683 C   0  0  0  0  0  0  0  0  0  0  0  0
    2.3072   -0.2178    7.6052 C   0  0  0  0  0  0  0  0  0  0  0  0
    3.4442   -1.0738    7.2599 C   0  0  0  0  0  0  0  0  0  0  0  0
    3.7768   -1.4773    6.1580 O   0  0  0  0  0  0  0  0  0  0  0  0
    4.1214   -1.3914    8.5318 C   0  0  0  0  0  0  0  0  0  0  0  0
    5.2429   -2.1981    8.7063 C   0  0  0  0  0  0  0  0  0  0  0  0
    5.6407   -2.3271   10.0155 C   0  0  0  0  0  0  0  0  0  0  0  0
    4.9748   -1.6950   11.0728 C   0  0  0  0  0  0  0  0  0  0  0  0
    3.8743   -0.8860   10.9123 C   0  0  0  0  0  0  0  0  0  0  0  0
    3.4493   -0.7467    9.5883 C   0  0  0  0  0  0  0  0  0  0  0  0
    2.3418    0.0279    9.0268 C   0  0  0  0  0  0  0  0  0  0  0  0
    1.5119    0.8575    9.7435 C   0  0  0  0  0  0  0  0  0  0  0  0
    1.5290    0.9877   11.1455 C   0  0  0  0  0  0  0  0  0  0  0  0
    1.4653    1.1324   12.2837 N   0  0  0  0  0  0  0  0  0  0  0  0
    0.5454    1.7205    9.1934 C   0  0  0  0  0  0  0  0  0  0  0  0
   -0.2354    2.4831    8.8303 N   0  0  0  0  0  0  0  0  0  0  0  0
    5.9029   -2.2763   12.1108 C   0  0  0  0  0  0  0  0  0  0  0  0
    5.3599   -3.4667   12.9295 C   0  0  0  0  0  0  0  0  0  0  0  0
    6.6033   -4.1147   13.4942 C   0  0  0  0  0  0  0  0  0  0  0  0
    7.2373   -4.7116   12.4930 C   0  0  0  0  0  0  0  0  0  0  0  0
    6.4328   -4.4772   11.2350 C   0  0  0  0  0  0  0  0  0  0  0  0
    5.0164   -4.4740   11.8245 C   0  0  0  0  0  0  0  0  0  0  0  0
    6.6475   -2.9794   10.9309 C   0  0  0  0  0  0  0  0  0  0  0  0
    1.1027   -0.0451    5.4020 C   0  0  0  0  0  0  0  0  0  0  0  0
   -0.0778    0.3125    4.7019 C   0  0  0  0  0  0  0  0  0  0  0  0
   -1.2428    0.7469    5.2847 N   0  0  0  0  0  0  0  0  0  0  0  0
   -1.6971    0.2305    6.5124 C   0  0  0  0  0  0  0  0  0  0  0  0
   -1.5175   -1.1155    6.8235 C   0  0  0  0  0  0  0  0  0  0  0  0
   -1.9322   -1.6042    8.0460 C   0  0  0  0  0  0  0  0  0  0  0  0
   -2.5515   -0.7785    8.9774 C   0  0  0  0  0  0  0  0  0  0  0  0
   -2.9699   -1.2961   10.3190 C   0  0  0  0  0  0  0  0  0  0  0  0
   -2.7616    0.5536    8.6412 C   0  0  0  0  0  0  0  0  0  0  0  0
   -2.3390    1.0605    7.4288 C   0  0  0  0  0  0  0  0  0  0  0  0
   -2.0307    1.6994    4.6185 C   0  0  0  0  0  0  0  0  0  0  0  0
   -1.4299    2.7758    3.9715 C   0  0  0  0  0  0  0  0  0  0  0  0
   -2.2064    3.7310    3.3473 C   0  0  0  0  0  0  0  0  0  0  0  0
   -3.5934    3.6466    3.3568 C   0  0  0  0  0  0  0  0  0  0  0  0
   -4.4323    4.7059    2.7088 C   0  0  0  0  0  0  0  0  0  0  0  0
   -4.1847    2.5692    4.0079 C   0  0  0  0  0  0  0  0  0  0  0  0
   -3.4195    1.6017    4.6259 C   0  0  0  0  0  0  0  0  0  0  0  0
    0.0808    0.1362    3.3173 C   0  0  0  0  0  0  0  0  0  0  0  0
   -0.9473    0.3972    1.9366 S   0  0  0  0  0  0  0  0  0  0  0  0
    0.3031   -0.2449    0.8692 C   0  0  0  0  0  0  0  0  0  0  0  0
    1.4866   -0.5576    1.5548 C   0  0  0  0  0  0  0  0  0  0  0  0
    2.7066   -0.9688    1.0599 N   0  0  0  0  0  0  0  0  0  0  0  0
    3.2929   -0.5591   -0.1369 C   0  0  0  0  0  0  0  0  0  0  0  0
    4.2821   -1.3556   -0.7226 C   0  0  0  0  0  0  0  0  0  0  0  0
    4.8391   -1.0054   -1.9313 C   0  0  0  0  0  0  0  0  0  0  0  0
    4.4351    0.1438   -2.6043 C   0  0  0  0  0  0  0  0  0  0  0  0
    4.9872    0.4796   -3.9549 C   0  0  0  0  0  0  0  0  0  0  0  0
    3.4764    0.9447   -2.0051 C   0  0  0  0  0  0  0  0  0  0  0  0
    2.9065    0.6084   -0.7893 C   0  0  0  0  0  0  0  0  0  0  0  0
    3.4667   -1.8042    1.9167 C   0  0  0  0  0  0  0  0  0  0  0  0
    4.7475   -1.4375    2.3132 C   0  0  0  0  0  0  0  0  0  0  0  0
    5.4504   -2.2362    3.1928 C   0  0  0  0  0  0  0  0  0  0  0  0
    4.8980   -3.4080    3.6928 C   0  0  0  0  0  0  0  0  0  0  0  0
    5.6298   -4.2395    4.6988 C   0  0  0  0  0  0  0  0  0  0  0  0
    3.6280   -3.7795    3.2673 C   0  0  0  0  0  0  0  0  0  0  0  0
    2.9152   -2.9909    2.3873 C   0  0  0  0  0  0  0  0  0  0  0  0
    1.3206   -0.3672    2.9543 C   0  0  0  0  0  0  0  0  0  0  0  0
    2.3413   -0.6718    4.3176 S   0  0  0  0  0  0  0  0  0  0  0  0
   -0.0094   -0.3087   -0.5186 C   0  0  0  0  0  0  0  0  0  0  0  0
    0.6960   -1.0109   -1.4957 C   0  0  0  0  0  0  0  0  0  0  0  0
    1.4948   -2.0409   -1.1578 F   0  0  0  0  0  0  0  0  0  0  0  0
    0.5529   -0.7236   -2.8543 C   0  0  0  0  0  0  0  0  0  0  0  0
    1.4253   -1.3105   -3.6977 F   0  0  0  0  0  0  0  0  0  0  0  0
   -0.4087    0.1501   -3.3445 C   0  0  0  0  0  0  0  0  0  0  0  0
   -1.4268    0.4996   -2.4017 C   0  0  0  0  0  0  0  0  0  0  0  0
   -2.6557    0.8349   -2.8148 N   0  0  0  0  0  0  0  0  0  0  0  0
   -3.5870    1.1127   -1.9291 C   0  0  0  0  0  0  0  0  0  0  0  0
   -4.9852    1.2828   -2.4502 C   0  0  0  0  0  0  0  0  0  0  0  0
   -5.4162    2.7433   -2.6026 C   0  0  0  0  0  0  0  0  0  0  0  0
   -3.2698    1.1726   -0.5481 C   0  0  0  0  0  0  0  0  0  0  0  0
   -2.0866    0.7749   -0.1423 N   0  0  0  0  0  0  0  0  0  0  0  0
   -1.1735    0.3557   -1.0162 C   0  0  0  0  0  0  0  0  0  0  0  0
   -4.2306    1.5535    0.5344 C   0  0  0  0  0  0  0  0  0  0  0  0
   -4.7420    0.2980    1.2442 C   0  0  0  0  0  0  0  0  0  0  0  0
   -0.4342    0.6365   -4.6914 C   0  0  0  0  0  0  0  0  0  0  0  0
   -0.9585    1.8438   -5.1429 C   0  0  0  0  0  0  0  0  0  0  0  0
   -1.4952    2.8660   -4.3765 N   0  0  0  0  0  0  0  0  0  0  0  0
   -0.9635    3.2078   -3.1285 C   0  0  0  0  0  0  0  0  0  0  0  0
    0.4023    3.1026   -2.8804 C   0  0  0  0  0  0  0  0  0  0  0  0
    0.9058    3.3903   -1.6268 C   0  0  0  0  0  0  0  0  0  0  0  0
    0.0732    3.7568   -0.5791 C   0  0  0  0  0  0  0  0  0  0  0  0
    0.6069    3.9653    0.8038 C   0  0  0  0  0  0  0  0  0  0  0  0
   -1.2823    3.9093   -0.8460 C   0  0  0  0  0  0  0  0  0  0  0  0
   -1.7928    3.6613   -2.1021 C   0  0  0  0  0  0  0  0  0  0  0  0
   -2.5859    3.5671   -4.9082 C   0  0  0  0  0  0  0  0  0  0  0  0
   -3.5647    2.8888   -5.6319 C   0  0  0  0  0  0  0  0  0  0  0  0
   -4.6235    3.5795   -6.1882 C   0  0  0  0  0  0  0  0  0  0  0  0
   -4.7448    4.9540   -6.0298 C   0  0  0  0  0  0  0  0  0  0  0  0
   -5.8812    5.7083   -6.6487 C   0  0  0  0  0  0  0  0  0  0  0  0
   -3.7705    5.6215   -5.2950 C   0  0  0  0  0  0  0  0  0  0  0  0
   -2.7006    4.9459   -4.7443 C   0  0  0  0  0  0  0  0  0  0  0  0
   -0.8146    1.9566   -6.5472 C   0  0  0  0  0  0  0  0  0  0  0  0
   -1.2101    3.1909   -7.6928 S   0  0  0  0  0  0  0  0  0  0  0  0
   -0.5230    2.2252   -8.9907 C   0  0  0  0  0  0  0  0  0  0  0  0
    0.0407    1.0412   -8.5377 C   0  0  0  0  0  0  0  0  0  0  0  0
    0.7765    0.1655   -9.3141 N   0  0  0  0  0  0  0  0  0  0  0  0
    0.7243   -1.2078   -9.0350 C   0  0  0  0  0  0  0  0  0  0  0  0
    1.8650   -1.9984   -9.1454 C   0  0  0  0  0  0  0  0  0  0  0  0
    1.8023   -3.3470   -8.8597 C   0  0  0  0  0  0  0  0  0  0  0  0
    0.6144   -3.9423   -8.4507 C   0  0  0  0  0  0  0  0  0  0  0  0
    0.5651   -5.3992   -8.1068 C   0  0  0  0  0  0  0  0  0  0  0  0
   -0.5191   -3.1466   -8.3460 C   0  0  0  0  0  0  0  0  0  0  0  0
   -0.4732   -1.7982   -8.6390 C   0  0  0  0  0  0  0  0  0  0  0  0
    1.6024    0.6597  -10.3356 C   0  0  0  0  0  0  0  0  0  0  0  0
    2.2944    1.8581  -10.1715 C   0  0  0  0  0  0  0  0  0  0  0  0
    3.0330    2.3827  -11.2111 C   0  0  0  0  0  0  0  0  0  0  0  0
    3.1190    1.7277  -12.4351 C   0  0  0  0  0  0  0  0  0  0  0  0
    3.8805    2.3387  -13.5703 C   0  0  0  0  0  0  0  0  0  0  0  0
    2.4642    0.5114  -12.5758 C   0  0  0  0  0  0  0  0  0  0  0  0
    1.7121   -0.0193  -11.5454 C   0  0  0  0  0  0  0  0  0  0  0  0
   -0.1614    0.8902   -7.1433 C   0  0  0  0  0  0  0  0  0  0  0  0
    0.3093   -0.2964   -5.9833 S   0  0  0  0  0  0  0  0  0  0  0  0
   -0.5604    2.6967  -10.3395 C   0  0  0  0  0  0  0  0  0  0  0  0
   -0.7501    1.9529  -11.4829 C   0  0  0  0  0  0  0  0  0  0  0  0
   -0.6578    2.7057  -12.6548 C   0  0  0  0  0  0  0  0  0  0  0  0
   -0.4053    4.0362  -12.4157 C   0  0  0  0  0  0  0  0  0  0  0  0
   -0.2399    5.0461  -13.3608 C   0  0  0  0  0  0  0  0  0  0  0  0
   -0.0952    5.8675  -14.1512 N   0  0  0  0  0  0  0  0  0  0  0  0
   -0.2841    4.3693  -10.7138 S   0  0  0  0  0  0  0  0  0  0  0  0
    0.4687    0.6977    7.2419 H   0  0  0  0  0  0  0  0  0  0  0  0
    5.7317   -2.6591    7.8621 H   0  0  0  0  0  0  0  0  0  0  0  0
    3.3787   -0.4003   11.7361 H   0  0  0  0  0  0  0  0  0  0  0  0
    6.4497   -1.5569   12.7175 H   0  0  0  0  0  0  0  0  0  0  0  0
    4.5757   -3.2120   13.6372 H   0  0  0  0  0  0  0  0  0  0  0  0
    6.9128   -4.0274   14.5192 H   0  0  0  0  0  0  0  0  0  0  0  0
    8.1823   -5.2223   12.5148 H   0  0  0  0  0  0  0  0  0  0  0  0
    6.6264   -5.1446   10.3993 H   0  0  0  0  0  0  0  0  0  0  0  0
    4.2492   -4.1296   11.1336 H   0  0  0  0  0  0  0  0  0  0  0  0
    4.7354   -5.4461   12.2264 H   0  0  0  0  0  0  0  0  0  0  0  0
    7.6907   -2.7262   10.7498 H   0  0  0  0  0  0  0  0  0  0  0  0
   -1.0408   -1.7702    6.1087 H   0  0  0  0  0  0  0  0  0  0  0  0
   -1.7763   -2.6482    8.2777 H   0  0  0  0  0  0  0  0  0  0  0  0
   -3.9844   -0.9797   10.5540 H   0  0  0  0  0  0  0  0  0  0  0  0
   -2.9225   -2.3817   10.3522 H   0  0  0  0  0  0  0  0  0  0  0  0
   -2.3119   -0.8992   11.0927 H   0  0  0  0  0  0  0  0  0  0  0  0
   -3.2428    1.2117    9.3489 H   0  0  0  0  0  0  0  0  0  0  0  0
   -2.4847    2.1034    7.1960 H   0  0  0  0  0  0  0  0  0  0  0  0
   -0.3539    2.8682    3.9817 H   0  0  0  0  0  0  0  0  0  0  0  0
   -1.7283    4.5665    2.8575 H   0  0  0  0  0  0  0  0  0  0  0  0
   -4.6557    5.4946    3.4280 H   0  0  0  0  0  0  0  0  0  0  0  0
   -3.9102    5.1586    1.8687 H   0  0  0  0  0  0  0  0  0  0  0  0
   -5.3765    4.2947    2.3589 H   0  0  0  0  0  0  0  0  0  0  0  0
   -5.2619    2.4872    4.0280 H   0  0  0  0  0  0  0  0  0  0  0  0
   -3.8924    0.7667    5.1208 H   0  0  0  0  0  0  0  0  0  0  0  0
    4.5833   -2.2708   -0.2372 H   0  0  0  0  0  0  0  0  0  0  0  0
    5.5867   -1.6467   -2.3746 H   0  0  0  0  0  0  0  0  0  0  0  0
    6.0162    0.1404   -4.0499 H   0  0  0  0  0  0  0  0  0  0  0  0
    4.9485    1.5512   -4.1380 H   0  0  0  0  0  0  0  0  0  0  0  0
    4.3954   -0.0182   -4.7245 H   0  0  0  0  0  0  0  0  0  0  0  0
    3.1558    1.8436   -2.5101 H   0  0  0  0  0  0  0  0  0  0  0  0
    2.1672    1.2557   -0.3419 H   0  0  0  0  0  0  0  0  0  0  0  0
    5.1768   -0.5189    1.9408 H   0  0  0  0  0  0  0  0  0  0  0  0
    6.4371   -1.9329    3.5105 H   0  0  0  0  0  0  0  0  0  0  0  0
    5.5213   -5.3008    4.4831 H   0  0  0  0  0  0  0  0  0  0  0  0
    6.6870   -3.9872    4.7220 H   0  0  0  0  0  0  0  0  0  0  0  0
    5.2076   -4.0511    5.6858 H   0  0  0  0  0  0  0  0  0  0  0  0
    3.1890   -4.6945    3.6379 H   0  0  0  0  0  0  0  0  0  0  0  0
    1.9253   -3.2786    2.0641 H   0  0  0  0  0  0  0  0  0  0  0  0
   -5.6761    0.7701   -1.7779 H   0  0  0  0  0  0  0  0  0  0  0  0
   -5.0307    0.8035   -3.4289 H   0  0  0  0  0  0  0  0  0  0  0  0
   -4.8213    3.2361   -3.3660 H   0  0  0  0  0  0  0  0  0  0  0  0
   -5.3110    3.2914   -1.6692 H   0  0  0  0  0  0  0  0  0  0  0  0
   -6.4590    2.7850   -2.9086 H   0  0  0  0  0  0  0  0  0  0  0  0
   -3.6945    2.1636    1.2620 H   0  0  0  0  0  0  0  0  0  0  0  0
   -5.0681    2.1215    0.1347 H   0  0  0  0  0  0  0  0  0  0  0  0
   -5.2695   -0.3535    0.5504 H   0  0  0  0  0  0  0  0  0  0  0  0
   -3.9033   -0.2475    1.6673 H   0  0  0  0  0  0  0  0  0  0  0  0
   -5.4191    0.5736    2.0479 H   0  0  0  0  0  0  0  0  0  0  0  0
    1.0656    2.7962   -3.6759 H   0  0  0  0  0  0  0  0  0  0  0  0
    1.9702    3.3362   -1.4563 H   0  0  0  0  0  0  0  0  0  0  0  0
    0.3280    4.9473    1.1833 H   0  0  0  0  0  0  0  0  0  0  0  0
    0.1869    3.2144    1.4736 H   0  0  0  0  0  0  0  0  0  0  0  0
    1.6911    3.8821    0.8215 H   0  0  0  0  0  0  0  0  0  0  0  0
   -1.9500    4.2133   -0.0527 H   0  0  0  0  0  0  0  0  0  0  0  0
   -2.8469    3.7894   -2.2891 H   0  0  0  0  0  0  0  0  0  0  0  0
   -3.4926    1.8170   -5.7396 H   0  0  0  0  0  0  0  0  0  0  0  0
   -5.3728    3.0385   -6.7479 H   0  0  0  0  0  0  0  0  0  0  0  0
   -6.2568    6.4695   -5.9677 H   0  0  0  0  0  0  0  0  0  0  0  0
   -5.5448    6.2095   -7.5567 H   0  0  0  0  0  0  0  0  0  0  0  0
   -6.6955    5.0380   -6.9129 H   0  0  0  0  0  0  0  0  0  0  0  0
   -3.8457    6.6912   -5.1630 H   0  0  0  0  0  0  0  0  0  0  0  0
   -1.9440    5.4813   -4.1901 H   0  0  0  0  0  0  0  0  0  0  0  0
    2.7977   -1.5473   -9.4504 H   0  0  0  0  0  0  0  0  0  0  0  0
    2.6962   -3.9476   -8.9459 H   0  0  0  0  0  0  0  0  0  0  0  0
   -0.4279   -5.8069   -8.2817 H   0  0  0  0  0  0  0  0  0  0  0  0
    0.8060   -5.5380   -7.0523 H   0  0  0  0  0  0  0  0  0  0  0  0
    1.2875   -5.9621   -8.6934 H   0  0  0  0  0  0  0  0  0  0  0  0
   -1.4550   -3.5893   -8.0367 H   0  0  0  0  0  0  0  0  0  0  0  0
   -1.3675   -1.1960   -8.5676 H   0  0  0  0  0  0  0  0  0  0  0  0
    2.2421    2.3802   -9.2273 H   0  0  0  0  0  0  0  0  0  0  0  0
    3.5525    3.3200  -11.0727 H   0  0  0  0  0  0  0  0  0  0  0  0
    3.2991    3.1476  -14.0145 H   0  0  0  0  0  0  0  0  0  0  0  0
    4.8219    2.7591  -13.2224 H   0  0  0  0  0  0  0  0  0  0  0  0
    4.0867    1.6028  -14.3434 H   0  0  0  0  0  0  0  0  0  0  0  0
    2.5277   -0.0235  -13.5124 H   0  0  0  0  0  0  0  0  0  0  0  0
    1.1944   -0.9584  -11.6775 H   0  0  0  0  0  0  0  0  0  0  0  0
   -0.9709    0.9016  -11.4648 H   0  0  0  0  0  0  0  0  0  0  0  0
   -0.7733    2.3025  -13.6449 H   0  0  0  0  0  0  0  0  0  0  0  0
  1  2  2  0  0  0  0
  2  3  1  0  0  0  0
  3  4  2  0  0  0  0
  3  5  1  0  0  0  0
  5  6  2  0  0  0  0
  6  7  1  0  0  0  0
  7  8  2  0  0  0  0
  8  9  1  0  0  0  0
  9 10  2  0  0  0  0
 10 11  1  0  0  0  0
 11 12  2  0  0  0  0
 12 13  1  0  0  0  0
 13 14  3  0  0  0  0
 12 15  1  0  0  0  0
 15 16  3  0  0  0  0
  8 17  1  0  0  0  0
 17 18  1  0  0  0  0
 18 19  1  0  0  0  0
 19 20  2  0  0  0  0
 20 21  1  0  0  0  0
 21 22  1  0  0  0  0
 21 23  1  0  0  0  0
  1 24  1  0  0  0  0
 24 25  2  0  0  0  0
 25 26  1  0  0  0  0
 26 27  1  0  0  0  0
 27 28  2  0  0  0  0
 28 29  1  0  0  0  0
 29 30  2  0  0  0  0
 30 31  1  0  0  0  0
 30 32  1  0  0  0  0
 32 33  2  0  0  0  0
 26 34  1  0  0  0  0
 34 35  2  0  0  0  0
 35 36  1  0  0  0  0
 36 37  2  0  0  0  0
 37 38  1  0  0  0  0
 37 39  1  0  0  0  0
 39 40  2  0  0  0  0
 25 41  1  0  0  0  0
 41 42  1  0  0  0  0
 42 43  1  0  0  0  0
 43 44  2  0  0  0  0
 44 45  1  0  0  0  0
 45 46  1  0  0  0  0
 46 47  2  0  0  0  0
 47 48  1  0  0  0  0
 48 49  2  0  0  0  0
 49 50  1  0  0  0  0
 49 51  1  0  0  0  0
 51 52  2  0  0  0  0
 45 53  1  0  0  0  0
 53 54  2  0  0  0  0
 54 55  1  0  0  0  0
 55 56  2  0  0  0  0
 56 57  1  0  0  0  0
 56 58  1  0  0  0  0
 58 59  2  0  0  0  0
 44 60  1  0  0  0  0
 60 61  1  0  0  0  0
 43 62  1  0  0  0  0
 62 63  2  0  0  0  0
 63 64  1  0  0  0  0
 63 65  1  0  0  0  0
 65 66  1  0  0  0  0
 65 67  2  0  0  0  0
 67 68  1  0  0  0  0
 68 69  2  0  0  0  0
 69 70  1  0  0  0  0
 70 71  1  0  0  0  0
 71 72  1  0  0  0  0
 70 73  2  0  0  0  0
 73 74  1  0  0  0  0
 74 75  2  0  0  0  0
 73 76  1  0  0  0  0
 76 77  1  0  0  0  0
 67 78  1  0  0  0  0
 78 79  2  0  0  0  0
 79 80  1  0  0  0  0
 80 81  1  0  0  0  0
 81 82  2  0  0  0  0
 82 83  1  0  0  0  0
 83 84  2  0  0  0  0
 84 85  1  0  0  0  0
 84 86  1  0  0  0  0
 86 87  2  0  0  0  0
 80 88  1  0  0  0  0
 88 89  2  0  0  0  0
 89 90  1  0  0  0  0
 90 91  2  0  0  0  0
 91 92  1  0  0  0  0
 91 93  1  0  0  0  0
 93 94  2  0  0  0  0
 79 95  1  0  0  0  0
 95 96  1  0  0  0  0
 96 97  1  0  0  0  0
 97 98  2  0  0  0  0
 98 99  1  0  0  0  0
 99100  1  0  0  0  0
100101  2  0  0  0  0
101102  1  0  0  0  0
102103  2  0  0  0  0
103104  1  0  0  0  0
103105  1  0  0  0  0
105106  2  0  0  0  0
 99107  1  0  0  0  0
107108  2  0  0  0  0
108109  1  0  0  0  0
109110  2  0  0  0  0
110111  1  0  0  0  0
110112  1  0  0  0  0
112113  2  0  0  0  0
 98114  1  0  0  0  0
114115  1  0  0  0  0
 97116  1  0  0  0  0
116117  2  0  0  0  0
117118  1  0  0  0  0
118119  2  0  0  0  0
119120  1  0  0  0  0
120121  3  0  0  0  0
119122  1  0  0  0  0
 11  2  1  0  0  0  0
 23 17  1  0  0  0  0
 61 24  1  0  0  0  0
 75 62  1  0  0  0  0
115 78  1  0  0  0  0
122116  1  0  0  0  0
 10  5  1  0  0  0  0
 22 18  1  0  0  0  0
 33 27  1  0  0  0  0
 40 34  1  0  0  0  0
 60 41  2  0  0  0  0
 75 68  1  0  0  0  0
 87 81  1  0  0  0  0
 94 88  1  0  0  0  0
114 95  2  0  0  0  0
 23  7  1  0  0  0  0
 52 46  1  0  0  0  0
 59 53  1  0  0  0  0
106100  1  0  0  0  0
113107  1  0  0  0  0
  1123  1  0  0  0  0
  6124  1  0  0  0  0
  9125  1  0  0  0  0
 17126  1  0  0  0  0
 18127  1  0  0  0  0
 19128  1  0  0  0  0
 20129  1  0  0  0  0
 21130  1  0  0  0  0
 22131  1  0  0  0  0
 22132  1  0  0  0  0
 23133  1  0  0  0  0
 28134  1  0  0  0  0
 29135  1  0  0  0  0
 31136  1  0  0  0  0
 31137  1  0  0  0  0
 31138  1  0  0  0  0
 32139  1  0  0  0  0
 33140  1  0  0  0  0
 35141  1  0  0  0  0
 36142  1  0  0  0  0
 38143  1  0  0  0  0
 38144  1  0  0  0  0
 38145  1  0  0  0  0
 39146  1  0  0  0  0
 40147  1  0  0  0  0
 47148  1  0  0  0  0
 48149  1  0  0  0  0
 50150  1  0  0  0  0
 50151  1  0  0  0  0
 50152  1  0  0  0  0
 51153  1  0  0  0  0
 52154  1  0  0  0  0
 54155  1  0  0  0  0
 55156  1  0  0  0  0
 57157  1  0  0  0  0
 57158  1  0  0  0  0
 57159  1  0  0  0  0
 58160  1  0  0  0  0
 59161  1  0  0  0  0
 71162  1  0  0  0  0
 71163  1  0  0  0  0
 72164  1  0  0  0  0
 72165  1  0  0  0  0
 72166  1  0  0  0  0
 76167  1  0  0  0  0
 76168  1  0  0  0  0
 77169  1  0  0  0  0
 77170  1  0  0  0  0
 77171  1  0  0  0  0
 82172  1  0  0  0  0
 83173  1  0  0  0  0
 85174  1  0  0  0  0
 85175  1  0  0  0  0
 85176  1  0  0  0  0
 86177  1  0  0  0  0
 87178  1  0  0  0  0
 89179  1  0  0  0  0
 90180  1  0  0  0  0
 92181  1  0  0  0  0
 92182  1  0  0  0  0
 92183  1  0  0  0  0
 93184  1  0  0  0  0
 94185  1  0  0  0  0
101186  1  0  0  0  0
102187  1  0  0  0  0
104188  1  0  0  0  0
104189  1  0  0  0  0
104190  1  0  0  0  0
105191  1  0  0  0  0
106192  1  0  0  0  0
108193  1  0  0  0  0
109194  1  0  0  0  0
111195  1  0  0  0  0
111196  1  0  0  0  0
111197  1  0  0  0  0
112198  1  0  0  0  0
113199  1  0  0  0  0
117200  1  0  0  0  0
118201  1  0  0  0  0
M  END
