
  xtb     02142209043D
 energy: -366.266046895536 gnorm: 0.000361556229 xtb: 6.4.1 (unknown)
227247  0     0  0            999 V2000
   -1.4068    6.6842    1.5905 C   0  0  0  0  0  0  0  0  0  0  0  0
   -2.5194    7.1516    2.2612 C   0  0  0  0  0  0  0  0  0  0  0  0
   -3.8967    6.7019    2.0697 C   0  0  0  0  0  0  0  0  0  0  0  0
   -4.3052    5.8274    1.3223 O   0  0  0  0  0  0  0  0  0  0  0  0
   -4.7325    7.5390    2.9516 C   0  0  0  0  0  0  0  0  0  0  0  0
   -6.1115    7.4588    3.1250 C   0  0  0  0  0  0  0  0  0  0  0  0
   -6.6139    8.3646    4.0287 C   0  0  0  0  0  0  0  0  0  0  0  0
   -5.8041    9.2856    4.7035 C   0  0  0  0  0  0  0  0  0  0  0  0
   -4.4417    9.3768    4.5376 C   0  0  0  0  0  0  0  0  0  0  0  0
   -3.9093    8.4599    3.6275 C   0  0  0  0  0  0  0  0  0  0  0  0
   -2.5212    8.2234    3.2231 C   0  0  0  0  0  0  0  0  0  0  0  0
   -1.4303    8.9000    3.7204 C   0  0  0  0  0  0  0  0  0  0  0  0
   -0.0819    8.5924    3.4621 C   0  0  0  0  0  0  0  0  0  0  0  0
    1.0459    8.3948    3.3482 N   0  0  0  0  0  0  0  0  0  0  0  0
   -1.5041    9.9964    4.6004 C   0  0  0  0  0  0  0  0  0  0  0  0
   -1.4807   10.9070    5.3016 N   0  0  0  0  0  0  0  0  0  0  0  0
   -6.9671    9.8722    5.4657 C   0  0  0  0  0  0  0  0  0  0  0  0
   -7.1115    9.4398    6.9402 C   0  0  0  0  0  0  0  0  0  0  0  0
   -8.5499    9.7634    7.2733 C   0  0  0  0  0  0  0  0  0  0  0  0
   -9.3181    8.8902    6.6345 C   0  0  0  0  0  0  0  0  0  0  0  0
   -8.4115    7.9622    5.8587 C   0  0  0  0  0  0  0  0  0  0  0  0
   -7.2078    7.9144    6.8087 C   0  0  0  0  0  0  0  0  0  0  0  0
   -7.8709    8.8439    4.7131 C   0  0  0  0  0  0  0  0  0  0  0  0
   -1.2705    5.6262    0.7002 C   0  0  0  0  0  0  0  0  0  0  0  0
   -0.0187    5.2421    0.1416 C   0  0  0  0  0  0  0  0  0  0  0  0
    1.1234    5.9958    0.1532 N   0  0  0  0  0  0  0  0  0  0  0  0
    1.1035    7.4014    0.0590 C   0  0  0  0  0  0  0  0  0  0  0  0
    2.0814    8.1471    0.7122 C   0  0  0  0  0  0  0  0  0  0  0  0
    2.0755    9.5243    0.6201 C   0  0  0  0  0  0  0  0  0  0  0  0
    1.1000   10.1917   -0.1110 C   0  0  0  0  0  0  0  0  0  0  0  0
    1.0833   11.6884   -0.1630 C   0  0  0  0  0  0  0  0  0  0  0  0
    0.1400    9.4369   -0.7749 C   0  0  0  0  0  0  0  0  0  0  0  0
    0.1412    8.0582   -0.7036 C   0  0  0  0  0  0  0  0  0  0  0  0
    2.3717    5.3487    0.0418 C   0  0  0  0  0  0  0  0  0  0  0  0
    3.3063    5.7835   -0.8940 C   0  0  0  0  0  0  0  0  0  0  0  0
    4.5252    5.1468   -0.9991 C   0  0  0  0  0  0  0  0  0  0  0  0
    4.8447    4.0641   -0.1852 C   0  0  0  0  0  0  0  0  0  0  0  0
    6.1733    3.3863   -0.3208 C   0  0  0  0  0  0  0  0  0  0  0  0
    3.9067    3.6377    0.7447 C   0  0  0  0  0  0  0  0  0  0  0  0
    2.6847    4.2721    0.8658 C   0  0  0  0  0  0  0  0  0  0  0  0
   -0.1078    3.9738   -0.4457 C   0  0  0  0  0  0  0  0  0  0  0  0
    1.0407    2.9071   -1.1901 S   0  0  0  0  0  0  0  0  0  0  0  0
   -0.2252    1.7288   -1.4883 C   0  0  0  0  0  0  0  0  0  0  0  0
   -1.4854    2.2050   -1.1241 C   0  0  0  0  0  0  0  0  0  0  0  0
   -2.6722    1.5281   -1.3629 N   0  0  0  0  0  0  0  0  0  0  0  0
   -2.9787    1.0582   -2.6427 C   0  0  0  0  0  0  0  0  0  0  0  0
   -2.3869    1.6041   -3.7791 C   0  0  0  0  0  0  0  0  0  0  0  0
   -2.6856    1.0997   -5.0298 C   0  0  0  0  0  0  0  0  0  0  0  0
   -3.5780    0.0481   -5.1898 C   0  0  0  0  0  0  0  0  0  0  0  0
   -3.9171   -0.4846   -6.5489 C   0  0  0  0  0  0  0  0  0  0  0  0
   -4.1650   -0.4931   -4.0505 C   0  0  0  0  0  0  0  0  0  0  0  0
   -3.8713   -0.0039   -2.7959 C   0  0  0  0  0  0  0  0  0  0  0  0
   -3.6529    1.5768   -0.3553 C   0  0  0  0  0  0  0  0  0  0  0  0
   -4.9732    1.8991   -0.6451 C   0  0  0  0  0  0  0  0  0  0  0  0
   -5.9047    1.9731    0.3726 C   0  0  0  0  0  0  0  0  0  0  0  0
   -5.5460    1.7356    1.6920 C   0  0  0  0  0  0  0  0  0  0  0  0
   -6.5491    1.8170    2.8008 C   0  0  0  0  0  0  0  0  0  0  0  0
   -4.2228    1.4116    1.9707 C   0  0  0  0  0  0  0  0  0  0  0  0
   -3.2848    1.3289    0.9642 C   0  0  0  0  0  0  0  0  0  0  0  0
   -1.3983    3.4526   -0.4776 C   0  0  0  0  0  0  0  0  0  0  0  0
   -2.5565    4.4835    0.2829 S   0  0  0  0  0  0  0  0  0  0  0  0
    0.0985    0.3928   -1.8075 C   0  0  0  0  0  0  0  0  0  0  0  0
    1.3598   -0.1358   -2.0791 C   0  0  0  0  0  0  0  0  0  0  0  0
    2.4583    0.6294   -2.4527 N   0  0  0  0  0  0  0  0  0  0  0  0
    2.3332    1.5793   -3.4681 C   0  0  0  0  0  0  0  0  0  0  0  0
    3.1465    2.7120   -3.4788 C   0  0  0  0  0  0  0  0  0  0  0  0
    3.0073    3.6761   -4.4565 C   0  0  0  0  0  0  0  0  0  0  0  0
    2.0433    3.5310   -5.4444 C   0  0  0  0  0  0  0  0  0  0  0  0
    1.7599    4.6995   -6.7396 S   0  0  0  0  0  0  0  0  0  0  0  0
    2.9467    6.0291   -6.3964 C   0  0  0  0  0  0  0  0  0  0  0  0
    1.2285    2.4009   -5.4400 C   0  0  0  0  0  0  0  0  0  0  0  0
    1.3704    1.4358   -4.4693 C   0  0  0  0  0  0  0  0  0  0  0  0
    3.6902    0.3722   -1.8425 C   0  0  0  0  0  0  0  0  0  0  0  0
    3.7421    0.1299   -0.4706 C   0  0  0  0  0  0  0  0  0  0  0  0
    4.9500   -0.1069    0.1437 C   0  0  0  0  0  0  0  0  0  0  0  0
    6.1311   -0.1117   -0.5952 C   0  0  0  0  0  0  0  0  0  0  0  0
    7.6272   -0.3890    0.3104 S   0  0  0  0  0  0  0  0  0  0  0  0
    8.9331   -0.2891   -0.9439 C   0  0  0  0  0  0  0  0  0  0  0  0
    6.0821    0.1121   -1.9636 C   0  0  0  0  0  0  0  0  0  0  0  0
    4.8695    0.3516   -2.5808 C   0  0  0  0  0  0  0  0  0  0  0  0
    1.3541   -1.5429   -1.9784 C   0  0  0  0  0  0  0  0  0  0  0  0
    2.5312   -2.7984   -2.1783 S   0  0  0  0  0  0  0  0  0  0  0  0
    1.3146   -4.0255   -1.8584 C   0  0  0  0  0  0  0  0  0  0  0  0
    0.0479   -3.4853   -1.7238 C   0  0  0  0  0  0  0  0  0  0  0  0
   -1.1506   -4.1820   -1.7086 N   0  0  0  0  0  0  0  0  0  0  0  0
   -2.2063   -3.6547   -0.9497 C   0  0  0  0  0  0  0  0  0  0  0  0
   -3.4960   -3.6071   -1.4701 C   0  0  0  0  0  0  0  0  0  0  0  0
   -4.5254   -3.0408   -0.7441 C   0  0  0  0  0  0  0  0  0  0  0  0
   -4.2778   -2.5031    0.5125 C   0  0  0  0  0  0  0  0  0  0  0  0
   -5.5239   -1.7673    1.5240 S   0  0  0  0  0  0  0  0  0  0  0  0
   -6.8536   -1.3823    0.3490 C   0  0  0  0  0  0  0  0  0  0  0  0
   -2.9916   -2.5640    1.0433 C   0  0  0  0  0  0  0  0  0  0  0  0
   -1.9666   -3.1371    0.3238 C   0  0  0  0  0  0  0  0  0  0  0  0
   -1.2800   -5.3873   -2.3944 C   0  0  0  0  0  0  0  0  0  0  0  0
   -0.5610   -5.6326   -3.5672 C   0  0  0  0  0  0  0  0  0  0  0  0
   -0.5058   -6.9021   -4.0975 C   0  0  0  0  0  0  0  0  0  0  0  0
   -1.1724   -7.9515   -3.4748 C   0  0  0  0  0  0  0  0  0  0  0  0
   -0.8820   -9.5952   -4.0643 S   0  0  0  0  0  0  0  0  0  0  0  0
   -1.1096  -10.5697   -2.5434 C   0  0  0  0  0  0  0  0  0  0  0  0
   -2.0206   -7.6806   -2.4103 C   0  0  0  0  0  0  0  0  0  0  0  0
   -2.0820   -6.4073   -1.8842 C   0  0  0  0  0  0  0  0  0  0  0  0
    0.0979   -2.0735   -1.7308 C   0  0  0  0  0  0  0  0  0  0  0  0
   -1.1089   -0.8584   -1.5596 S   0  0  0  0  0  0  0  0  0  0  0  0
    1.6504   -5.4266   -1.8217 C   0  0  0  0  0  0  0  0  0  0  0  0
    1.0048   -6.3124   -0.9381 C   0  0  0  0  0  0  0  0  0  0  0  0
    0.1456   -6.0826    0.0688 N   0  0  0  0  0  0  0  0  0  0  0  0
   -0.0923   -7.2632    0.5658 N   0  0  0  0  0  0  0  0  0  0  0  0
   -0.8837   -7.4585    1.7495 C   0  0  0  0  0  0  0  0  0  0  0  0
   -2.2849   -6.8808    1.6203 C   0  0  0  0  0  0  0  0  0  0  0  0
    0.5241   -8.2677    0.0067 N   0  0  0  0  0  0  0  0  0  0  0  0
    1.2706   -7.7088   -0.9634 C   0  0  0  0  0  0  0  0  0  0  0  0
    2.2112   -8.2801   -1.8397 C   0  0  0  0  0  0  0  0  0  0  0  0
    2.8092   -7.4006   -2.7255 C   0  0  0  0  0  0  0  0  0  0  0  0
    2.5849   -5.9966   -2.6821 C   0  0  0  0  0  0  0  0  0  0  0  0
    3.2195   -5.1338   -3.5290 O   0  0  0  0  0  0  0  0  0  0  0  0
    4.6162   -5.2759   -3.7360 C   0  0  0  0  0  0  0  0  0  0  0  0
    3.6552   -7.8818   -3.7130 O   0  0  0  0  0  0  0  0  0  0  0  0
    3.0020   -8.0442   -4.9583 C   0  0  0  0  0  0  0  0  0  0  0  0
    2.5828   -9.7465   -1.7003 C   0  0  0  0  0  0  0  0  0  0  0  0
    2.3254  -10.1801   -0.2820 C   0  0  0  0  0  0  0  0  0  0  0  0
    3.0895   -9.6191    0.6543 C   0  0  0  0  0  0  0  0  0  0  0  0
    4.0481   -8.6229    0.1956 C   0  0  0  0  0  0  0  0  0  0  0  0
    4.0364   -7.3678    0.6988 C   0  0  0  0  0  0  0  0  0  0  0  0
    2.8605   -6.8646    1.9182 S   0  0  0  0  0  0  0  0  0  0  0  0
    3.0879   -5.1882    1.4787 C   0  0  0  0  0  0  0  0  0  0  0  0
    2.2101   -4.2366    1.9335 C   0  0  0  0  0  0  0  0  0  0  0  0
    1.1643   -4.6387    2.7855 C   0  0  0  0  0  0  0  0  0  0  0  0
    0.3159   -4.9789    3.4803 N   0  0  0  0  0  0  0  0  0  0  0  0
    2.1567   -2.8848    1.5652 C   0  0  0  0  0  0  0  0  0  0  0  0
    2.0108   -1.7762    1.3007 N   0  0  0  0  0  0  0  0  0  0  0  0
    4.1480   -5.0310    0.6460 N   0  0  0  0  0  0  0  0  0  0  0  0
    4.7998   -3.7600    0.3836 C   0  0  0  0  0  0  0  0  0  0  0  0
    5.6511   -3.3500    1.5791 C   0  0  0  0  0  0  0  0  0  0  0  0
    4.7264   -6.1993    0.1685 C   0  0  0  0  0  0  0  0  0  0  0  0
    5.6470   -6.1959   -0.6218 O   0  0  0  0  0  0  0  0  0  0  0  0
    4.8839   -9.0317   -0.9782 C   0  0  0  0  0  0  0  0  0  0  0  0
    4.0945   -9.9829   -1.8877 C   0  0  0  0  0  0  0  0  0  0  0  0
   -0.4796    7.1990    1.8072 H   0  0  0  0  0  0  0  0  0  0  0  0
   -6.6960    6.7326    2.5819 H   0  0  0  0  0  0  0  0  0  0  0  0
   -3.8345   10.0932    5.0650 H   0  0  0  0  0  0  0  0  0  0  0  0
   -7.1492   10.9346    5.3140 H   0  0  0  0  0  0  0  0  0  0  0  0
   -6.3524    9.8384    7.6078 H   0  0  0  0  0  0  0  0  0  0  0  0
   -8.8532   10.6010    7.8739 H   0  0  0  0  0  0  0  0  0  0  0  0
  -10.3912    8.8531    6.5947 H   0  0  0  0  0  0  0  0  0  0  0  0
   -8.8377    7.0138    5.5421 H   0  0  0  0  0  0  0  0  0  0  0  0
   -6.3224    7.4497    6.3793 H   0  0  0  0  0  0  0  0  0  0  0  0
   -7.4490    7.4338    7.7556 H   0  0  0  0  0  0  0  0  0  0  0  0
   -8.6556    9.2216    4.0597 H   0  0  0  0  0  0  0  0  0  0  0  0
    2.8324    7.6431    1.2996 H   0  0  0  0  0  0  0  0  0  0  0  0
    2.8306   10.0916    1.1428 H   0  0  0  0  0  0  0  0  0  0  0  0
    0.4033   12.0460   -0.9323 H   0  0  0  0  0  0  0  0  0  0  0  0
    0.7577   12.0895    0.7970 H   0  0  0  0  0  0  0  0  0  0  0  0
    2.0798   12.0778   -0.3635 H   0  0  0  0  0  0  0  0  0  0  0  0
   -0.6177    9.9337   -1.3638 H   0  0  0  0  0  0  0  0  0  0  0  0
   -0.6072    7.4865   -1.2327 H   0  0  0  0  0  0  0  0  0  0  0  0
    3.0675    6.6201   -1.5343 H   0  0  0  0  0  0  0  0  0  0  0  0
    5.2444    5.4925   -1.7284 H   0  0  0  0  0  0  0  0  0  0  0  0
    6.9803    4.1159   -0.2716 H   0  0  0  0  0  0  0  0  0  0  0  0
    6.3160    2.6499    0.4652 H   0  0  0  0  0  0  0  0  0  0  0  0
    6.2406    2.8764   -1.2823 H   0  0  0  0  0  0  0  0  0  0  0  0
    4.1358    2.8004    1.3868 H   0  0  0  0  0  0  0  0  0  0  0  0
    1.9693    3.9416    1.6040 H   0  0  0  0  0  0  0  0  0  0  0  0
   -1.6925    2.4261   -3.6847 H   0  0  0  0  0  0  0  0  0  0  0  0
   -2.2185    1.5403   -5.8990 H   0  0  0  0  0  0  0  0  0  0  0  0
   -4.8968   -0.1214   -6.8611 H   0  0  0  0  0  0  0  0  0  0  0  0
   -3.1856   -0.1636   -7.2864 H   0  0  0  0  0  0  0  0  0  0  0  0
   -3.9532   -1.5725   -6.5389 H   0  0  0  0  0  0  0  0  0  0  0  0
   -4.8538   -1.3202   -4.1495 H   0  0  0  0  0  0  0  0  0  0  0  0
   -4.3081   -0.4537   -1.9171 H   0  0  0  0  0  0  0  0  0  0  0  0
   -5.2617    2.1039   -1.6659 H   0  0  0  0  0  0  0  0  0  0  0  0
   -6.9263    2.2337    0.1341 H   0  0  0  0  0  0  0  0  0  0  0  0
   -7.5412    2.0408    2.4160 H   0  0  0  0  0  0  0  0  0  0  0  0
   -6.5861    0.8737    3.3451 H   0  0  0  0  0  0  0  0  0  0  0  0
   -6.2672    2.5986    3.5052 H   0  0  0  0  0  0  0  0  0  0  0  0
   -3.9297    1.2142    2.9913 H   0  0  0  0  0  0  0  0  0  0  0  0
   -2.2603    1.0678    1.1865 H   0  0  0  0  0  0  0  0  0  0  0  0
    3.8738    2.8515   -2.6940 H   0  0  0  0  0  0  0  0  0  0  0  0
    3.6483    4.5419   -4.4218 H   0  0  0  0  0  0  0  0  0  0  0  0
    3.9618    5.6480   -6.4614 H   0  0  0  0  0  0  0  0  0  0  0  0
    2.7477    6.4612   -5.4200 H   0  0  0  0  0  0  0  0  0  0  0  0
    2.7830    6.7734   -7.1696 H   0  0  0  0  0  0  0  0  0  0  0  0
    0.4838    2.2889   -6.2130 H   0  0  0  0  0  0  0  0  0  0  0  0
    0.7300    0.5665   -4.4816 H   0  0  0  0  0  0  0  0  0  0  0  0
    2.8329    0.1349    0.1081 H   0  0  0  0  0  0  0  0  0  0  0  0
    4.9903   -0.2744    1.2091 H   0  0  0  0  0  0  0  0  0  0  0  0
    9.8643   -0.4423   -0.4075 H   0  0  0  0  0  0  0  0  0  0  0  0
    8.7996   -1.0740   -1.6826 H   0  0  0  0  0  0  0  0  0  0  0  0
    8.9300    0.6947   -1.4040 H   0  0  0  0  0  0  0  0  0  0  0  0
    6.9779    0.1005   -2.5639 H   0  0  0  0  0  0  0  0  0  0  0  0
    4.8360    0.5230   -3.6466 H   0  0  0  0  0  0  0  0  0  0  0  0
   -3.6871   -4.0095   -2.4542 H   0  0  0  0  0  0  0  0  0  0  0  0
   -5.5152   -3.0179   -1.1718 H   0  0  0  0  0  0  0  0  0  0  0  0
   -7.5573   -0.7646    0.8973 H   0  0  0  0  0  0  0  0  0  0  0  0
   -7.3448   -2.2927    0.0171 H   0  0  0  0  0  0  0  0  0  0  0  0
   -6.4469   -0.8203   -0.4862 H   0  0  0  0  0  0  0  0  0  0  0  0
   -2.8083   -2.1590    2.0261 H   0  0  0  0  0  0  0  0  0  0  0  0
   -0.9712   -3.1888    0.7390 H   0  0  0  0  0  0  0  0  0  0  0  0
   -0.0124   -4.8316   -4.0385 H   0  0  0  0  0  0  0  0  0  0  0  0
    0.0754   -7.0976   -4.9850 H   0  0  0  0  0  0  0  0  0  0  0  0
   -0.6259  -11.5251   -2.7217 H   0  0  0  0  0  0  0  0  0  0  0  0
   -0.6350  -10.0507   -1.7150 H   0  0  0  0  0  0  0  0  0  0  0  0
   -2.1670  -10.7298   -2.3525 H   0  0  0  0  0  0  0  0  0  0  0  0
   -2.6156   -8.4638   -1.9667 H   0  0  0  0  0  0  0  0  0  0  0  0
   -2.7179   -6.2026   -1.0384 H   0  0  0  0  0  0  0  0  0  0  0  0
   -0.9033   -8.5349    1.9271 H   0  0  0  0  0  0  0  0  0  0  0  0
   -0.3732   -6.9587    2.5799 H   0  0  0  0  0  0  0  0  0  0  0  0
   -2.2260   -5.8304    1.3465 H   0  0  0  0  0  0  0  0  0  0  0  0
   -2.7921   -6.9587    2.5775 H   0  0  0  0  0  0  0  0  0  0  0  0
   -2.8630   -7.4215    0.8752 H   0  0  0  0  0  0  0  0  0  0  0  0
    4.8339   -5.9253   -4.5862 H   0  0  0  0  0  0  0  0  0  0  0  0
    5.1166   -5.6666   -2.8485 H   0  0  0  0  0  0  0  0  0  0  0  0
    4.9790   -4.2689   -3.9452 H   0  0  0  0  0  0  0  0  0  0  0  0
    2.6311   -7.0884   -5.3426 H   0  0  0  0  0  0  0  0  0  0  0  0
    3.7491   -8.4461   -5.6410 H   0  0  0  0  0  0  0  0  0  0  0  0
    2.1646   -8.7451   -4.8753 H   0  0  0  0  0  0  0  0  0  0  0  0
    2.0138  -10.3488   -2.4140 H   0  0  0  0  0  0  0  0  0  0  0  0
    1.5560  -10.8983   -0.0557 H   0  0  0  0  0  0  0  0  0  0  0  0
    2.9647   -9.7928    1.7116 H   0  0  0  0  0  0  0  0  0  0  0  0
    4.0552   -2.9990    0.1491 H   0  0  0  0  0  0  0  0  0  0  0  0
    5.4302   -3.9205   -0.4941 H   0  0  0  0  0  0  0  0  0  0  0  0
    6.2101   -2.4516    1.3385 H   0  0  0  0  0  0  0  0  0  0  0  0
    6.3584   -4.1395    1.8255 H   0  0  0  0  0  0  0  0  0  0  0  0
    5.0290   -3.1499    2.4493 H   0  0  0  0  0  0  0  0  0  0  0  0
    5.2062   -8.1488   -1.5297 H   0  0  0  0  0  0  0  0  0  0  0  0
    5.7862   -9.5240   -0.6071 H   0  0  0  0  0  0  0  0  0  0  0  0
    4.2996  -11.0240   -1.6290 H   0  0  0  0  0  0  0  0  0  0  0  0
    4.3932   -9.8198   -2.9192 H   0  0  0  0  0  0  0  0  0  0  0  0
  1  2  2  0  0  0  0
  2  3  1  0  0  0  0
  3  4  2  0  0  0  0
  3  5  1  0  0  0  0
  5  6  2  0  0  0  0
  6  7  1  0  0  0  0
  7  8  2  0  0  0  0
  8  9  1  0  0  0  0
  9 10  2  0  0  0  0
 10 11  1  0  0  0  0
 11 12  2  0  0  0  0
 12 13  1  0  0  0  0
 13 14  3  0  0  0  0
 12 15  1  0  0  0  0
 15 16  3  0  0  0  0
  8 17  1  0  0  0  0
 17 18  1  0  0  0  0
 18 19  1  0  0  0  0
 19 20  2  0  0  0  0
 20 21  1  0  0  0  0
 21 22  1  0  0  0  0
 21 23  1  0  0  0  0
  1 24  1  0  0  0  0
 24 25  2  0  0  0  0
 25 26  1  0  0  0  0
 26 27  1  0  0  0  0
 27 28  2  0  0  0  0
 28 29  1  0  0  0  0
 29 30  2  0  0  0  0
 30 31  1  0  0  0  0
 30 32  1  0  0  0  0
 32 33  2  0  0  0  0
 26 34  1  0  0  0  0
 34 35  2  0  0  0  0
 35 36  1  0  0  0  0
 36 37  2  0  0  0  0
 37 38  1  0  0  0  0
 37 39  1  0  0  0  0
 39 40  2  0  0  0  0
 25 41  1  0  0  0  0
 41 42  1  0  0  0  0
 42 43  1  0  0  0  0
 43 44  2  0  0  0  0
 44 45  1  0  0  0  0
 45 46  1  0  0  0  0
 46 47  2  0  0  0  0
 47 48  1  0  0  0  0
 48 49  2  0  0  0  0
 49 50  1  0  0  0  0
 49 51  1  0  0  0  0
 51 52  2  0  0  0  0
 45 53  1  0  0  0  0
 53 54  2  0  0  0  0
 54 55  1  0  0  0  0
 55 56  2  0  0  0  0
 56 57  1  0  0  0  0
 56 58  1  0  0  0  0
 58 59  2  0  0  0  0
 44 60  1  0  0  0  0
 60 61  1  0  0  0  0
 43 62  1  0  0  0  0
 62 63  2  0  0  0  0
 63 64  1  0  0  0  0
 64 65  1  0  0  0  0
 65 66  2  0  0  0  0
 66 67  1  0  0  0  0
 67 68  2  0  0  0  0
 68 69  1  0  0  0  0
 69 70  1  0  0  0  0
 68 71  1  0  0  0  0
 71 72  2  0  0  0  0
 64 73  1  0  0  0  0
 73 74  2  0  0  0  0
 74 75  1  0  0  0  0
 75 76  2  0  0  0  0
 76 77  1  0  0  0  0
 77 78  1  0  0  0  0
 76 79  1  0  0  0  0
 79 80  2  0  0  0  0
 63 81  1  0  0  0  0
 81 82  1  0  0  0  0
 82 83  1  0  0  0  0
 83 84  2  0  0  0  0
 84 85  1  0  0  0  0
 85 86  1  0  0  0  0
 86 87  2  0  0  0  0
 87 88  1  0  0  0  0
 88 89  2  0  0  0  0
 89 90  1  0  0  0  0
 90 91  1  0  0  0  0
 89 92  1  0  0  0  0
 92 93  2  0  0  0  0
 85 94  1  0  0  0  0
 94 95  2  0  0  0  0
 95 96  1  0  0  0  0
 96 97  2  0  0  0  0
 97 98  1  0  0  0  0
 98 99  1  0  0  0  0
 97100  1  0  0  0  0
100101  2  0  0  0  0
 84102  1  0  0  0  0
102103  1  0  0  0  0
 83104  1  0  0  0  0
104105  1  0  0  0  0
105106  2  0  0  0  0
106107  1  0  0  0  0
107108  1  0  0  0  0
108109  1  0  0  0  0
107110  1  0  0  0  0
110111  2  0  0  0  0
111112  1  0  0  0  0
112113  2  0  0  0  0
113114  1  0  0  0  0
114115  1  0  0  0  0
115116  1  0  0  0  0
113117  1  0  0  0  0
117118  1  0  0  0  0
112119  1  0  0  0  0
119120  1  0  0  0  0
120121  2  0  0  0  0
121122  1  0  0  0  0
122123  2  0  0  0  0
123124  1  0  0  0  0
124125  1  0  0  0  0
125126  2  0  0  0  0
126127  1  0  0  0  0
127128  3  0  0  0  0
126129  1  0  0  0  0
129130  3  0  0  0  0
125131  1  0  0  0  0
131132  1  0  0  0  0
132133  1  0  0  0  0
131134  1  0  0  0  0
134135  2  0  0  0  0
122136  1  0  0  0  0
136137  1  0  0  0  0
 11  2  1  0  0  0  0
 23 17  1  0  0  0  0
 61 24  1  0  0  0  0
103 62  1  0  0  0  0
114104  2  0  0  0  0
137119  1  0  0  0  0
 10  5  1  0  0  0  0
 22 18  1  0  0  0  0
 33 27  1  0  0  0  0
 40 34  1  0  0  0  0
 60 41  2  0  0  0  0
 72 65  1  0  0  0  0
 80 73  1  0  0  0  0
102 81  2  0  0  0  0
111105  1  0  0  0  0
134123  1  0  0  0  0
 23  7  1  0  0  0  0
 52 46  1  0  0  0  0
 59 53  1  0  0  0  0
 93 86  1  0  0  0  0
101 94  1  0  0  0  0
  1138  1  0  0  0  0
  6139  1  0  0  0  0
  9140  1  0  0  0  0
 17141  1  0  0  0  0
 18142  1  0  0  0  0
 19143  1  0  0  0  0
 20144  1  0  0  0  0
 21145  1  0  0  0  0
 22146  1  0  0  0  0
 22147  1  0  0  0  0
 23148  1  0  0  0  0
 28149  1  0  0  0  0
 29150  1  0  0  0  0
 31151  1  0  0  0  0
 31152  1  0  0  0  0
 31153  1  0  0  0  0
 32154  1  0  0  0  0
 33155  1  0  0  0  0
 35156  1  0  0  0  0
 36157  1  0  0  0  0
 38158  1  0  0  0  0
 38159  1  0  0  0  0
 38160  1  0  0  0  0
 39161  1  0  0  0  0
 40162  1  0  0  0  0
 47163  1  0  0  0  0
 48164  1  0  0  0  0
 50165  1  0  0  0  0
 50166  1  0  0  0  0
 50167  1  0  0  0  0
 51168  1  0  0  0  0
 52169  1  0  0  0  0
 54170  1  0  0  0  0
 55171  1  0  0  0  0
 57172  1  0  0  0  0
 57173  1  0  0  0  0
 57174  1  0  0  0  0
 58175  1  0  0  0  0
 59176  1  0  0  0  0
 66177  1  0  0  0  0
 67178  1  0  0  0  0
 70179  1  0  0  0  0
 70180  1  0  0  0  0
 70181  1  0  0  0  0
 71182  1  0  0  0  0
 72183  1  0  0  0  0
 74184  1  0  0  0  0
 75185  1  0  0  0  0
 78186  1  0  0  0  0
 78187  1  0  0  0  0
 78188  1  0  0  0  0
 79189  1  0  0  0  0
 80190  1  0  0  0  0
 87191  1  0  0  0  0
 88192  1  0  0  0  0
 91193  1  0  0  0  0
 91194  1  0  0  0  0
 91195  1  0  0  0  0
 92196  1  0  0  0  0
 93197  1  0  0  0  0
 95198  1  0  0  0  0
 96199  1  0  0  0  0
 99200  1  0  0  0  0
 99201  1  0  0  0  0
 99202  1  0  0  0  0
100203  1  0  0  0  0
101204  1  0  0  0  0
108205  1  0  0  0  0
108206  1  0  0  0  0
109207  1  0  0  0  0
109208  1  0  0  0  0
109209  1  0  0  0  0
116210  1  0  0  0  0
116211  1  0  0  0  0
116212  1  0  0  0  0
118213  1  0  0  0  0
118214  1  0  0  0  0
118215  1  0  0  0  0
119216  1  0  0  0  0
120217  1  0  0  0  0
121218  1  0  0  0  0
132219  1  0  0  0  0
132220  1  0  0  0  0
133221  1  0  0  0  0
133222  1  0  0  0  0
133223  1  0  0  0  0
136224  1  0  0  0  0
136225  1  0  0  0  0
137226  1  0  0  0  0
137227  1  0  0  0  0
M  END
