218

C         -1.39830       -8.95230       -1.49360
C         -2.38930       -9.45820       -0.67730
C         -2.75940       -8.86940        0.61860
O         -2.29100       -7.87360        1.14130
C         -3.72230       -9.81110        1.22750
C         -4.35310       -9.68590        2.46130
C         -5.21620      -10.71510        2.75540
C         -5.41970      -11.80080        1.89620
C         -4.79320      -11.94210        0.68000
C         -3.92760      -10.89580        0.35440
C         -3.12390      -10.67850       -0.84770
C         -3.19540      -11.41510       -2.00630
C         -2.50210      -11.09020       -3.18830
N         -1.99020      -10.86840       -4.19280
C         -4.03270      -12.52950       -2.18940
N         -4.71080      -13.43190       -2.40700
C         -6.41720      -12.45190        2.82330
C         -7.90470      -12.31620        2.43530
C         -8.64370      -12.60040        3.72290
C         -8.45560      -11.56620        4.53270
C         -7.58560      -10.56610        3.80620
C         -8.06750      -10.79250        2.36750
C         -6.19520      -11.23600        3.77910
C         -0.97830       -7.62180       -1.52580
C         -1.64000       -6.42840       -1.16490
N         -2.96060       -6.27100       -0.87990
C         -3.37230       -5.09250       -0.20650
C         -2.83230       -4.76720        1.03190
C         -3.20720       -3.59120        1.65280
C         -4.11620       -2.72610        1.05660
C         -4.46810       -1.41830        1.69440
C         -4.67620       -3.08410       -0.16490
C         -4.31590       -4.25820       -0.79410
C         -3.96600       -7.17150       -1.25290
C         -3.95810       -7.81470       -2.49000
C         -4.94770       -8.72210       -2.80540
C         -5.97030       -9.01830       -1.90720
C         -6.99370      -10.05860       -2.23740
C         -5.99910       -8.33460       -0.69900
C         -5.01640       -7.42050       -0.37160
C         -0.74970       -5.32850       -1.24540
S         -0.92290       -3.63740       -0.93930
C          0.75010       -3.36720       -1.39400
C          1.37330       -4.51940       -1.87070
N          2.60840       -4.57670       -2.48460
C          3.33220       -5.78220       -2.39870
C          3.47330       -6.41800       -1.16860
C          4.17180       -7.60580       -1.07650
C          4.74990       -8.18510       -2.19830
C          5.48630       -9.48530       -2.10250
C          4.60610       -7.54110       -3.42250
C          3.90530       -6.35750       -3.52930
C          3.04940       -3.55690       -3.34390
C          2.15510       -2.74030       -4.02940
C          2.62150       -1.73650       -4.85510
C          3.98200       -1.52180       -5.03430
C          4.48640       -0.42050       -5.91580
C          4.86990       -2.35250       -4.36150
C          4.41720       -3.35370       -3.52730
C          0.51120       -5.63490       -1.74200
S          0.65960       -7.31150       -2.12850
C          1.22010       -2.03670       -1.19690
C          0.45030       -0.88610       -1.25920
C          1.25690        0.21820       -0.86080
C          2.56690       -0.28100       -0.53520
O          3.57150        0.25180       -0.10910
N          2.47990       -1.67320       -0.77790
C          3.50880       -2.55360       -0.29430
C          0.48190        1.36450       -0.91000
N         -0.77650        0.99900       -1.33770
C         -1.96760        1.80100       -1.27170
C         -0.87010       -0.39520       -1.54870
O         -1.90790       -0.94730       -1.85960
C          0.84840        2.67220       -0.47840
C          0.48280        3.92690       -0.95990
N         -0.17480        4.17690       -2.14450
C         -0.86090        5.40730       -2.25650
C         -1.79710        5.76510       -1.29140
C         -2.42280        6.99380       -1.35670
C         -2.13570        7.88840       -2.37970
C         -2.76480        9.24610       -2.39960
C         -1.22330        7.50810       -3.35600
C         -0.58960        6.28320       -3.30150
C          0.02060        3.39920       -3.29660
C         -0.98420        3.35800       -4.26310
C         -0.82240        2.60700       -5.40870
C          0.33660        1.87210       -5.62720
C          0.48950        1.04270       -6.86550
C          1.33670        1.92440       -4.66460
C          1.19150        2.67990       -3.51750
C          0.96170        4.95190       -0.10600
S          0.82600        6.67600       -0.12590
C          1.76820        6.77460        1.36370
C          2.25760        5.50410        1.76790
N          3.11170        5.27420        2.80720
C          4.12930        6.17290        3.17910
C          4.48560        6.29270        4.52010
C          5.48600        7.16780        4.89250
C          6.14740        7.94670        3.95050
C          7.20090        8.92050        4.37980
C          5.79760        7.80440        2.61250
C          4.80860        6.92370        2.22290
C          3.06450        4.02260        3.45760
C          4.23070        3.29800        3.68040
C          4.16830        2.07090        4.30790
C          2.95360        1.53970        4.72780
C          2.89620        0.19050        5.37420
C          1.79710        2.27870        4.51310
C          1.84530        3.50870        3.88720
C          1.73720        4.48400        0.94850
S          1.91010        2.75970        0.91970
C          1.88440        7.91950        2.14690
C          1.43770        9.20420        1.92350
C          0.85040        9.71770        0.68590
O          0.58300        9.10000       -0.33250
C          0.65190       11.16470        0.89140
C          0.11490       12.07580       -0.01450
C          0.03790       13.36180        0.46450
C          0.46270       13.71440        1.75120
C          0.99570       12.82460        2.65450
C          1.08620       11.51120        2.18570
C          1.56320       10.29910        2.85410
C          2.01210       10.23840        4.15280
C          2.32980        9.06250        4.85830
N          2.56850        8.15620        5.52530
C          2.18810       11.35740        4.99000
N          2.37920       12.21810        5.72710
C          0.09220       15.16510        1.56350
C          1.25200       16.14450        1.28710
C          0.57110       17.35000        0.68040
C          0.17120       17.01590       -0.53990
C          0.57500       15.57880       -0.77830
C          1.87980       15.53410        0.02730
C         -0.37980       14.77200        0.12690
H         -0.85880       -9.63360       -2.14060
H         -4.16170       -8.83740        3.09980
H         -4.94730      -12.79080        0.03450
H         -6.15850      -13.44720        3.17950
H         -8.20180      -12.89140        1.56260
H         -9.16270      -13.51850        3.92700
H         -8.78560      -11.44830        5.54830
H         -7.59330       -9.54660        4.18290
H         -7.44340      -10.31770        1.61270
H         -9.10540      -10.49340        2.22800
H         -5.79310      -11.42180        4.77350
H         -2.13350       -5.44860        1.49200
H         -2.78040       -3.33890        2.61280
H         -5.52310       -1.19000        1.55920
H         -4.23890       -1.42510        2.75720
H         -3.88990       -0.62210        1.22470
H         -5.39050       -2.42600       -0.63640
H         -4.74420       -4.52550       -1.74890
H         -3.17480       -7.60450       -3.20270
H         -4.92190       -9.21890       -3.76450
H         -7.33700       -9.95010       -3.26400
H         -7.84770       -9.99280       -1.56830
H         -6.55920      -11.05420       -2.13930
H         -6.79580       -8.52680        0.00520
H         -5.04380       -6.90590        0.57710
H          3.03110       -5.97870       -0.28620
H          4.27090       -8.08810       -0.11500
H          5.85540       -9.65080       -1.09320
H          6.32480       -9.50830       -2.79490
H          4.81820      -10.30830       -2.35800
H          5.04170       -7.97990       -4.30830
H          3.79150       -5.87500       -4.48860
H          1.09160       -2.89400       -3.92870
H          1.90720       -1.11680       -5.37540
H          3.76230       -0.17960       -6.69080
H          4.66780        0.47870       -5.32520
H          5.42480       -0.70260       -6.38800
H          5.93340       -2.21100       -4.48750
H          5.12650       -3.99030       -3.01740
H          4.13050       -1.96850        0.38520
H          4.13780       -2.92560       -1.10210
H          3.06530       -3.39440        0.24030
H         -2.81060        1.10840       -1.25270
H         -2.07160        2.44780       -2.14230
H         -1.96460        2.40860       -0.36520
H         -2.01700        5.08230       -0.48340
H         -3.13790        7.26730       -0.59450
H         -3.79540        9.20570       -2.05320
H         -2.21060        9.90440       -1.73020
H         -2.74130        9.67550       -3.39820
H         -0.98860        8.18910       -4.16080
H          0.13270        6.00510       -4.05490
H         -1.89100        3.92720       -4.11450
H         -1.61310        2.58830       -6.14460
H         -0.02950        1.50170       -7.70400
H          0.05860        0.05260       -6.70930
H          1.53860        0.92240       -7.12620
H          2.25390        1.37420       -4.81290
H          1.99870        2.72020       -2.80240
H          3.96690        5.70970        5.26450
H          5.74390        7.26130        5.93650
H          7.92110        8.43990        5.03950
H          6.74520        9.74340        4.93070
H          7.72830        9.33060        3.52220
H          6.31190        8.38570        1.86070
H          4.55490        6.81830        1.17830
H          5.17770        3.69770        3.35020
H          5.07740        1.50990        4.46650
H          1.99810        0.08420        5.97760
H          3.76790        0.02420        6.00320
H          2.88400       -0.58380        4.60660
H          0.84510        1.88880        4.84290
H          0.94250        4.08140        3.73250
H          2.38740        7.75660        3.09130
H         -0.20370       11.75970       -0.99590
H          1.31390       13.11300        3.64220
H         -0.64220       15.56120        2.26230
H          1.90590       16.32670        2.13550
H          0.40570       18.27300        1.20460
H         -0.39490       17.60400       -1.23850
H          0.61290       15.24640       -1.81240
H          2.65000       16.17390       -0.40040
H          2.27750       14.53140        0.17190
H         -1.42840       14.90880       -0.13170
