201

C          3.88590       -5.48090       -5.47350
C          4.17720       -5.06520       -6.75350
C          4.50700       -3.70120       -7.16930
O          4.49440       -2.68610       -6.49160
C          4.89560       -3.78470       -8.58900
C          5.29400       -2.73480       -9.41250
C          5.59050       -3.11530      -10.69940
C          5.49970       -4.44350      -11.13350
C          5.10970       -5.48920      -10.32980
C          4.80120       -5.12360       -9.01670
C          4.32940       -5.93620       -7.89420
C          4.05700       -7.28260       -7.95000
C          3.46480       -8.04350       -6.92370
N          2.94760       -8.73330       -6.16240
C          4.30270       -8.10030       -9.07050
N          4.48970       -8.83340       -9.93530
C          5.92970       -4.09840      -12.53800
C          4.81470       -4.03370      -13.60310
C          5.43110       -3.22720      -14.72330
C          5.51890       -1.96840      -14.31300
C          4.96300       -1.90300      -12.90870
C          3.87400       -2.97910      -13.00580
C          6.03150       -2.61640      -12.05370
C          3.69520       -4.74430       -4.30650
C          3.42590       -5.33900       -3.04660
N          3.47220       -6.67200       -2.74970
C          2.62060       -7.14210       -1.72290
C          3.12130       -7.90420       -0.67450
C          2.28150       -8.30580        0.34710
C          0.93530       -7.96110        0.35140
C          0.02720       -8.37080        1.46590
C          0.44010       -7.22210       -0.71890
C          1.26580       -6.81830       -1.74720
C          4.41330       -7.55860       -3.30060
C          5.70460       -7.13400       -3.60590
C          6.61050       -8.01920       -4.15400
C          6.26630       -9.34530       -4.39170
C          7.23790      -10.29760       -5.01700
C          4.98650       -9.76630       -4.05140
C          4.06420       -8.88900       -3.51700
C          3.06350       -4.35930       -2.10430
S          2.57830       -4.42420       -0.44280
C          2.38130       -2.67550       -0.42160
C          2.66290       -2.08590       -1.65360
N          2.47330       -0.76060       -1.98870
C          3.32060       -0.19690       -2.96110
C          4.68830       -0.45410       -2.92480
C          5.51310        0.05280       -3.90750
C          5.00280        0.83200       -4.93890
C          5.90170        1.33150       -6.02640
C          3.64130        1.10740       -4.94910
C          2.80330        0.60040       -3.97610
C          1.39920       -0.02060       -1.48330
C          0.17320       -0.62520       -1.21000
C         -0.83620        0.09450       -0.60220
C         -0.66720        1.43410       -0.27280
C         -1.75510        2.20880        0.40560
C          0.53670        2.04680       -0.60310
C          1.55980        1.33540       -1.19610
C          3.08180       -3.06130       -2.59410
S          3.59200       -2.98060       -4.24280
C          1.85270       -2.09510        0.75920
S          2.18330       -0.46550        1.28020
C          0.95500       -0.50540        2.51340
C          0.41440       -1.78930        2.61370
C         -0.56280       -2.43510        3.40670
C         -0.75420       -3.73350        3.03330
C         -1.65560       -4.73130        3.60800
O         -1.72060       -5.87310        3.21640
O         -2.39770       -4.22470        4.59970
C         -3.30020       -5.12470        5.24590
C         -2.59830       -5.93570        6.32510
S          0.24020       -4.24930        1.69030
C          0.95070       -2.67100        1.63330
C          0.53710        0.70880        3.10430
C         -0.58760        0.94960        3.84960
C         -0.80750        2.31690        4.12410
C         -1.90110        2.90210        4.78410
C         -3.01310        2.07740        5.27660
C         -3.44830        2.17990        6.59320
C         -4.47220        1.36580        7.03630
F         -4.85800        1.46920        8.32340
C         -5.11580        0.43840        6.22450
C         -6.18420       -0.48230        6.73490
C         -5.57820       -1.83490        7.11780
C         -4.66490        0.38230        4.91040
F         -5.25310       -0.48930        4.06300
C         -3.64220        1.17150        4.42680
C         -1.89300        4.28230        4.92560
C         -0.84800        5.09530        4.40810
C          0.23850        4.51250        3.72000
C          1.29550        5.33310        3.11530
C          2.63610        5.05090        3.35760
C          3.61160        5.83130        2.77050
C          3.32980        6.89690        1.92210
C          4.40850        7.75390        1.33030
C          4.77770        8.88660        2.29160
C          1.97900        7.14000        1.69910
C          0.97010        6.39070        2.27100
F          1.63130        8.15000        0.87610
F          4.90170        5.54170        3.03110
C          0.23560        3.13680        3.60910
S          1.42600        2.18220        2.76010
C         -1.07380        6.45220        4.68480
C         -2.26380        6.70470        5.34120
S         -3.15300        5.22960        5.66620
C         -2.64850        8.01970        5.68450
C         -3.79970        8.48860        6.24670
C         -4.99150        7.68880        6.58650
O         -5.10980        6.47940        6.54000
C         -6.02950        8.65150        6.98810
C         -7.34490        8.36110        7.34630
C         -8.09640        9.46840        7.65760
C         -7.57640       10.76980        7.62150
C         -6.27990       11.06940        7.27680
C         -5.49730        9.95670        6.95050
C         -4.09980        9.88170        6.53280
C         -3.23330       10.94140        6.46380
C         -1.86910       10.87030        6.10960
N         -0.75230       10.90470        5.84170
C         -3.57640       12.27600        6.76870
N         -3.78120       13.38340        6.99200
C         -8.88660       11.39100        8.03670
C         -9.71450       12.06120        6.91950
C        -11.10830       12.13930        7.49960
C        -11.60130       10.90770        7.53250
C        -10.54880        9.97640        6.97530
C         -9.90390       10.90050        5.93410
C         -9.46670        9.94060        8.07600
H          3.78030       -6.54960       -5.33900
H          5.34780       -1.72530       -9.03580
H          5.04820       -6.50580      -10.68040
H          6.83090       -4.59320      -12.89500
H          4.38480       -4.99500      -13.87070
H          5.77980       -3.65140      -15.64660
H          5.95580       -1.13110      -14.82520
H          4.66760       -0.92240      -12.54480
H          3.44260       -3.26130      -12.04720
H          3.07880       -2.69920      -13.69490
H          7.00190       -2.12410      -12.08670
H          4.16930       -8.16550       -0.65850
H          2.68590       -8.88680        1.16320
H         -0.76860       -9.01170        1.08790
H         -0.44310       -7.49820        1.91760
H          0.57240       -8.91200        2.23480
H         -0.60660       -6.95770       -0.73860
H          0.87300       -6.24450       -2.57430
H          5.99010       -6.10890       -3.41950
H          7.60610       -7.67420       -4.39390
H          8.25050       -9.90320       -4.98240
H          6.97140      -10.46650       -6.06080
H          7.21530      -11.25980       -4.50970
H          4.69950      -10.79210       -4.22600
H          3.06730       -9.22440       -3.27820
H          5.09530       -1.05600       -2.12500
H          6.57120       -0.16230       -3.87640
H          6.85670        1.66040       -5.62160
H          6.09740        0.52370       -6.73160
H          5.44300        2.15540       -6.56750
H          3.22530        1.71420       -5.74030
H          1.74300        0.80520       -4.00520
H          0.02130       -1.66520       -1.45890
H         -1.77220       -0.39680       -0.37750
H         -1.34600        2.85080        1.18420
H         -2.26840        2.84670       -0.31470
H         -2.48870        1.53940        0.84840
H          0.68470        3.09060       -0.36690
H          2.50210        1.81440       -1.41450
H         -1.09300       -1.99170        4.22830
H         -4.07690       -4.48780        5.67390
H         -3.73490       -5.79070        4.49360
H         -3.32260       -6.56240        6.83700
H         -1.83750       -6.57040        5.87720
H         -2.12700       -5.27320        7.04720
H         -1.25670        0.17390        4.16680
H         -2.98690        2.87010        7.28040
H         -6.66510       -0.03620        7.60620
H         -6.93450       -0.63160        5.95610
H         -6.35600       -2.50650        7.47210
H         -5.09320       -2.28680        6.25490
H         -4.83940       -1.71070        7.90680
H         -3.35380        1.09100        3.39080
H          2.92620        4.24560        4.01290
H          4.05940        8.17700        0.38710
H          5.29090        7.14150        1.13670
H          5.55740        9.50530        1.85540
H          5.14190        8.48160        3.23300
H          3.91080        9.51160        2.49350
H         -0.05770        6.62070        2.03830
H         -0.38580        7.23700        4.42390
H         -1.89530        8.75360        5.42370
H         -7.70130        7.34310        7.36390
H         -5.89750       12.07590        7.25610
H         -8.86660       11.97020        8.95770
H         -9.29250       12.98450        6.53230
H        -11.55590       13.04470        7.86540
H        -12.54310       10.57880        7.93150
H        -10.88790        9.00060        6.63800
H         -8.97530       10.51760        5.51440
H        -10.59040       11.15380        5.12770
H         -9.83540        9.55170        9.02330
