169

C          3.75040       -1.07360        5.12090
C          3.95720       -0.30880        6.24730
C          4.01540        1.15250        6.30720
O          3.82800        1.94770        5.40090
C          4.37260        1.49460        7.69680
C          4.53350        2.76900        8.23290
C          4.85490        2.77690        9.56940
C          5.01480        1.60210       10.31430
C          4.86240        0.33780        9.79530
C          4.52580        0.30770        8.44000
C          4.24350       -0.82880        7.56200
C          4.21900       -2.14580        7.95740
C          3.79540       -3.23260        7.16960
N          3.42510       -4.17310        6.62040
C          4.57910       -2.60200        9.24050
N          4.87360       -3.05670       10.25400
C          5.31870        2.35420       11.58600
C          4.19510        2.45780       12.64660
C          2.88960        2.34660       11.89910
C          2.73180        3.45820       11.19320
C          3.92740        4.34140       11.45110
C          4.22660        3.97130       12.91260
C          5.13520        3.66420       10.75670
C          3.41630       -0.69980        3.82150
C          3.18750       -1.64300        2.78650
N          3.47960       -2.97790        2.84110
C          4.62580       -3.48000        3.48320
C          5.81430       -2.75400        3.49120
C          6.92830       -3.26000        4.13040
C          6.89530       -4.49970        4.75840
C          8.09470       -5.04210        5.47250
C          5.71260       -5.22880        4.71860
C          4.58640       -4.73070        4.09520
C          2.66660       -3.87180        2.11470
C          3.23240       -4.86090        1.31720
C          2.41980       -5.72510        0.61130
C          1.03470       -5.62650        0.67940
C          0.16040       -6.54660       -0.11460
C          0.48010       -4.63880        1.48460
C          1.28100       -3.77060        2.19870
C          2.60190       -1.02360        1.66790
S          2.08770       -1.59800        0.11780
C          1.63140        0.02900       -0.33970
C          1.93060        0.97370        0.63040
N          1.81890        2.33940        0.47510
C          1.89380        2.92080       -0.79910
C          2.81430        2.46080       -1.73810
C          2.79480        2.94710       -3.03040
C          1.87380        3.91030       -3.42140
C          1.78860        4.37570       -4.84230
C          1.01200        4.42210       -2.45810
C          1.02160        3.94380       -1.16390
C          1.57040        3.13480        1.60350
C          2.19000        4.37270        1.74240
C          1.97530        5.13010        2.87700
C          1.14940        4.67730        3.89810
C          0.96100        5.47110        5.15390
C          0.51460        3.45150        3.73970
C          0.71200        2.68880        2.60640
C          2.46500        0.35330        1.78980
S          3.03640        0.94770        3.30940
C          1.01780        0.26680       -1.62640
C          1.51900       -0.27910       -2.79180
F          2.61910       -1.05320       -2.75310
C          0.93950       -0.03600       -4.04360
F          1.48790       -0.64740       -5.10960
C         -0.16150        0.77850       -4.19230
C         -0.68940        1.37530       -3.01650
N         -1.70080        2.24850       -3.11760
C         -2.27140        2.70450       -2.03360
C         -3.41700        3.64380       -2.26110
C         -4.65030        2.83910       -2.68000
C         -1.84900        2.25030       -0.75000
N         -0.78220        1.49900       -0.63300
C         -0.14830        1.07640       -1.74100
C         -2.57510        2.59970        0.51490
C         -2.16620        3.97000        1.06170
C         -0.84830        0.94400       -5.47500
C         -0.16450        1.08730       -6.68520
C         -0.88960        1.06340       -7.85880
C         -2.27780        0.90490       -7.81130
C         -2.86680        0.91270       -6.53550
N         -2.17860        0.92370       -5.42580
C         -3.06170        0.77970       -9.01560
C         -4.06710       -0.11050       -9.18880
C         -4.32800       -1.27520       -8.29190
O         -3.84990       -1.50160       -7.20320
C         -5.24830       -2.14860       -9.04010
C         -5.72170       -3.39360       -8.63030
C         -6.57400       -3.99030       -9.52630
C         -6.92530       -3.39730      -10.74790
C         -6.45910       -2.17520      -11.16840
C         -5.59450       -1.54510      -10.26640
C         -4.91490       -0.25890      -10.36350
C         -5.09360        0.67450      -11.34830
C         -5.95010        0.51290      -12.45800
N         -6.62530        0.44750      -13.38400
C         -4.47100        1.94100      -11.37710
N         -4.01350        2.99080      -11.45980
C         -7.81960       -4.54730      -11.13820
C         -9.34930       -4.35050      -10.99490
C         -9.55010       -3.32270       -9.90880
C         -9.21740       -3.88350       -8.75390
C         -8.78500       -5.30080       -9.03820
C         -9.70470       -5.63210      -10.22410
C         -7.42760       -5.20690       -9.77840
H          3.83690       -2.14380        5.25920
H          4.40440        3.64780        7.62040
H          4.98900       -0.55560       10.38350
H          6.29360        2.16560       12.03130
H          4.31720        1.79610       13.50000
H          2.26370        1.47360       11.91410
H          1.94710        3.69920       10.50000
H          3.80460        5.39580       11.21700
H          3.44460        4.29510       13.59800
H          5.19380        4.33030       13.26180
H          5.98870        4.33340       10.66500
H          5.85940       -1.79320        2.99980
H          7.84200       -2.68310        4.13310
H          8.30200       -6.06200        5.15320
H          8.97270       -4.42950        5.28430
H          7.91140       -5.06230        6.54690
H          5.66600       -6.19410        5.19950
H          3.67050       -5.29980        4.08990
H          4.30710       -4.94210        1.25030
H          2.86930       -6.48540       -0.01030
H         -0.04630       -6.10770       -1.09130
H          0.64720       -7.50580       -0.27310
H         -0.79000       -6.70980        0.38820
H         -0.59410       -4.55160        1.55820
H          0.84030       -3.01400        2.83140
H          3.53590        1.70880       -1.45450
H          3.50610        2.56450       -3.74840
H          0.89970        3.95470       -5.31440
H          2.66160        4.06110       -5.40870
H          1.70930        5.46000       -4.89110
H          0.30690        5.19350       -2.73280
H          0.33340        4.34070       -0.43370
H          2.84820        4.72860        0.96340
H          2.47300        6.08390        2.97690
H          1.28590        6.49990        5.01970
H         -0.08260        5.46710        5.46330
H          1.54960        5.02740        5.95710
H         -0.14490        3.08970        4.51530
H          0.20010        1.74630        2.48320
H         -3.14600        4.31560       -3.07670
H         -3.63670        4.23250       -1.37240
H         -4.41160        2.24340       -3.55710
H         -4.96380        2.16930       -1.88180
H         -5.47410        3.50830       -2.91550
H         -2.33590        1.84020        1.26000
H         -3.65060        2.58390        0.33050
H         -2.29180        4.75000        0.31400
H         -1.12630        3.95360        1.37670
H         -2.77800        4.21930        1.92540
H          0.90860        1.19020       -6.70220
H         -0.38670        1.11680       -8.81390
H         -3.94220        0.93180       -6.42720
H         -2.77830        1.42980       -9.83470
H         -5.42130       -3.81350       -7.68310
H         -6.72890       -1.73790      -12.11530
H         -7.55250       -5.06930      -12.05480
H         -9.86990       -4.16760      -11.93090
H         -9.85020       -2.30790      -10.09350
H         -9.18330       -3.43100       -7.78020
H         -8.79160       -5.98380       -8.19280
H        -10.75550       -5.67580       -9.94220
H         -9.42580       -6.54540      -10.74780
H         -6.90290       -6.15990       -9.80590
