213

C         -2.38280        5.75550        4.29860
C         -3.08780        6.81580        3.77370
C         -3.41970        7.02980        2.36620
O         -3.00100        6.42450        1.39130
C         -4.41050        8.12210        2.33780
C         -5.04300        8.65330        1.21650
C         -5.92810        9.66580        1.50080
C         -6.16260       10.11980        2.80440
C         -5.54080        9.60750        3.91920
C         -4.64170        8.57160        3.65270
C         -3.79520        7.79660        4.56070
C         -3.68980        7.99890        5.91630
C         -2.75850        7.36890        6.76390
N         -2.00700        6.93750        7.52040
C         -4.48280        8.89920        6.65330
N         -5.10860        9.59070        7.32490
C         -7.17110       11.14690        2.35150
C         -8.65810       10.79900        2.57350
C         -9.39080       11.72150        1.62650
C         -9.16910       11.29080        0.39110
C         -8.28250       10.06990        0.48220
C         -8.78570        9.47740        1.80490
C         -6.90950       10.64010        0.89690
C         -1.71810        4.70840        3.66630
C         -1.18290        3.58940        4.34880
N         -1.30990        3.31410        5.68380
C         -0.27140        2.60380        6.31670
C         -0.55300        1.55220        7.18240
C          0.47840        0.85470        7.77970
C          1.80590        1.18190        7.53150
C          2.92400        0.39560        8.14450
C          2.07670        2.24670        6.68000
C          1.05580        2.95560        6.08150
C         -2.46380        3.62330        6.42990
C         -2.34270        4.04470        7.75130
C         -3.47240        4.36110        8.47940
C         -4.73910        4.27740        7.91370
C         -5.94850        4.68140        8.69900
C         -4.84870        3.82960        6.60180
C         -3.73030        3.49370        5.86610
C         -0.48490        2.75400        3.46050
S          0.28160        1.21840        3.65670
C          0.57010        1.13630        1.92230
C          0.21290        2.30370        1.25940
N          0.55500        2.58110       -0.04590
C          0.03140        3.70160       -0.72580
C          0.89610        4.60020       -1.34410
C          0.39370        5.70220       -2.00770
C         -0.97320        5.94100       -2.07140
C         -1.52140        7.15510       -2.75580
C         -1.82930        5.03020       -1.46660
C         -1.33880        3.92190       -0.80510
C          1.67240        1.95490       -0.63360
C          1.61160        1.58430       -1.97320
C          2.68750        0.95680       -2.57080
C          3.84470        0.67660       -1.85260
C          4.97950       -0.06290       -2.49320
C          3.91180        1.08930       -0.52860
C          2.84790        1.72870        0.07570
C         -0.45010        3.19740        2.14370
S         -1.35250        4.65710        1.93880
C          1.09540       -0.09490        1.40740
C          0.57120       -0.93030        0.43260
N         -0.62080       -0.73070       -0.24170
C         -0.84330       -1.39440       -1.46090
C          0.16010       -1.46520       -2.42320
C         -0.02430       -2.19150       -3.58390
C         -1.21990       -2.85960       -3.80120
S         -1.52320       -3.86020       -5.22360
C          0.14550       -4.34450       -5.75430
C         -2.24850       -2.74360       -2.86890
C         -2.06380       -2.02290       -1.71060
C         -1.68460       -0.05110        0.36860
C         -2.51880        0.75650       -0.39800
C         -3.51720        1.50510        0.19690
C         -3.67750        1.48170        1.57530
S         -4.84560        2.49690        2.42950
C         -5.09810        3.89270        1.29700
C         -2.90310        0.61030        2.33640
C         -1.93240       -0.16240        1.73790
C          1.38430       -2.08140        0.26640
S          1.27930       -3.48890       -0.72860
C          2.74490       -4.12740       -0.00650
C          3.23860       -3.32790        1.01860
N          4.28430       -3.63490        1.86870
C          4.45990       -4.92960        2.37330
C          5.73370       -5.36110        2.73910
C          5.93810       -6.63870        3.22230
C          4.86880       -7.51610        3.34270
S          4.99970       -9.17150        3.93700
C          6.78400       -9.41720        4.16460
C          3.59160       -7.08500        2.98700
C          3.38610       -5.80990        2.51290
C          5.02390       -2.57130        2.41630
C          5.25870       -2.49380        3.78520
C          5.96450       -1.43390        4.31860
C          6.44780       -0.43240        3.48700
S          7.34790        0.97550        4.05310
C          7.20840        0.88300        5.86070
C          6.23110       -0.51840        2.11310
C          5.52460       -1.57320        1.58080
C          2.46440       -2.14800        1.13450
S          2.51820       -0.77830        2.18790
C          3.18600       -5.31190       -0.67070
C          4.45070       -5.91340       -0.57840
C          4.74280       -6.95590       -1.42510
C          3.79840       -7.39200       -2.36900
C          2.53260       -6.77820       -2.31320
N          2.25400       -5.79150       -1.51130
C          4.10660       -8.44790       -3.28430
C          3.62990       -8.58180       -4.55230
C          2.98770       -7.50350       -5.34990
O          2.68680       -6.38200       -4.99540
C          2.86770       -8.03700       -6.71830
C          2.34290       -7.37140       -7.82520
C          2.34620       -8.11540       -8.97960
C          2.84850       -9.42310       -9.03460
C          3.37960      -10.08670       -7.95490
C          3.37600       -9.35020       -6.76520
C          3.84690       -9.71650       -5.43330
C          4.34830      -10.94030       -5.07320
C          4.75620      -11.30600       -3.77290
N          5.10460      -11.69040       -2.74810
C          4.51790      -12.02740       -5.95580
N          4.69250      -12.95020       -6.61630
C          2.53510       -9.56710      -10.50290
C          1.28680      -10.40100      -10.86140
C          0.96050       -9.97420      -12.27430
C          0.48270       -8.73740      -12.22210
C          0.47760       -8.30750      -10.77270
C          0.18450       -9.65430      -10.09910
C          1.97240       -8.11070      -10.44090
H         -2.36500        5.69720        5.37900
H         -4.82650        8.27820        0.22820
H         -5.72940        9.97130        4.91530
H         -6.93570       12.18180        2.59230
H         -8.97780       10.80820        3.61200
H         -9.93040       12.59640        1.93850
H         -9.48650       11.73410       -0.53470
H         -8.26160        9.41480       -0.38490
H         -9.81810        9.13800        1.73800
H         -8.16300        8.67540        2.19690
H         -6.50080       11.33830        0.16840
H         -1.58050        1.28190        7.37560
H          0.24660        0.03480        8.44390
H          2.58630       -0.13920        9.02860
H          3.75020        1.04780        8.42110
H          3.29620       -0.33640        7.42620
H          3.10150        2.52850        6.48570
H          1.27840        3.78840        5.43050
H         -1.36400        4.13970        8.19530
H         -3.36550        4.70160        9.49820
H         -6.85990        4.33010        8.22140
H         -5.90260        4.28290        9.71050
H         -5.99680        5.76850        8.77270
H         -5.82380        3.73310        6.14670
H         -3.83550        3.14240        4.85090
H          1.96290        4.43590       -1.29510
H          1.07980        6.39480       -2.47380
H         -2.32420        6.88270       -3.43920
H         -0.74620        7.67460       -3.31330
H         -1.93220        7.84010       -2.01440
H         -2.89560        5.19460       -1.50750
H         -2.01120        3.21390       -0.35230
H          0.71320        1.78680       -2.53750
H          2.62430        0.66990       -3.61100
H          5.16640        0.31020       -3.49820
H          5.88990        0.03660       -1.90680
H          4.73650       -1.12380       -2.57280
H          4.81070        0.91720        0.04330
H          2.93270        2.05980        1.10000
H          1.09370       -0.95210       -2.25480
H          0.77570       -2.23910       -4.30470
H          0.72360       -4.68660       -4.90140
H         -0.00050       -5.16300       -6.45250
H          0.63860       -3.51790       -6.25800
H         -3.18400       -3.24910       -3.05270
H         -2.85520       -1.96550       -0.97810
H         -2.37070        0.81130       -1.46650
H         -4.15290        2.11910       -0.42170
H         -4.13850        4.31840        1.01640
H         -5.66730        3.57730        0.42730
H         -5.67190        4.62310        1.86030
H         -3.06870        0.54750        3.40120
H         -1.35200       -0.85060        2.33320
H          6.57320       -4.68830        2.63810
H          6.93800       -6.93640        3.49360
H          7.30160       -9.26290        3.22260
H          7.15880       -8.75250        4.93750
H          6.89680      -10.44930        4.48160
H          2.76060       -7.76490        3.09420
H          2.38940       -5.48930        2.25260
H          4.87490       -3.26560        4.43590
H          6.12420       -1.39940        5.38400
H          6.16080        0.84580        6.14550
H          7.66260        1.79500        6.23570
H          7.75270        0.02160        6.23730
H          6.63250        0.25480        1.47550
H          5.34920       -1.63510        0.51690
H          5.19040       -5.54330        0.11080
H          5.72030       -7.41670       -1.40120
H          1.71300       -7.14090       -2.91600
H          4.81020       -9.18550       -2.91730
H          1.97790       -6.35970       -7.73920
H          3.77340      -11.08720       -8.01770
H          3.38460       -9.77120      -11.15190
H          1.38620      -11.46800      -10.68230
H          1.15610      -10.57530      -13.14280
H          0.19930       -8.09890      -13.03810
H         -0.16150       -7.46750      -10.51380
H         -0.80880      -10.02750      -10.34210
H          0.31660       -9.64900       -9.01870
H          2.44570       -7.34260      -11.04990
