
  xtb     02062200363D
 energy: -371.338243043194 gnorm: 0.000490053049 xtb: 6.4.1 (unknown)
224248  0     0  0            999 V2000
   -3.5781   11.9107   -3.4344 C   0  0  0  0  0  0  0  0  0  0  0  0
   -3.1591   12.8388   -4.3418 C   0  0  0  0  0  0  0  0  0  0  0  0
   -1.8377   12.8886   -4.9965 C   0  0  0  0  0  0  0  0  0  0  0  0
   -0.9374   12.0765   -4.9150 O   0  0  0  0  0  0  0  0  0  0  0  0
   -1.8129   14.1397   -5.7725 C   0  0  0  0  0  0  0  0  0  0  0  0
   -0.7510   14.6308   -6.5298 C   0  0  0  0  0  0  0  0  0  0  0  0
   -1.0079   15.8362   -7.1365 C   0  0  0  0  0  0  0  0  0  0  0  0
   -2.2331   16.5042   -7.0025 C   0  0  0  0  0  0  0  0  0  0  0  0
   -3.2902   16.0281   -6.2647 C   0  0  0  0  0  0  0  0  0  0  0  0
   -3.0498   14.8017   -5.6355 C   0  0  0  0  0  0  0  0  0  0  0  0
   -3.9197   13.9974   -4.7812 C   0  0  0  0  0  0  0  0  0  0  0  0
   -5.2266   14.2865   -4.4855 C   0  0  0  0  0  0  0  0  0  0  0  0
   -6.0943   13.4929   -3.7057 C   0  0  0  0  0  0  0  0  0  0  0  0
   -6.8738   12.9088   -3.0961 N   0  0  0  0  0  0  0  0  0  0  0  0
   -5.9163   15.4304   -4.9413 C   0  0  0  0  0  0  0  0  0  0  0  0
   -6.5434   16.3347   -5.2688 N   0  0  0  0  0  0  0  0  0  0  0  0
   -1.7888   17.6596   -7.8641 C   0  0  0  0  0  0  0  0  0  0  0  0
   -1.3920   18.9556   -7.1255 C   0  0  0  0  0  0  0  0  0  0  0  0
   -0.5661   19.7120   -8.1408 C   0  0  0  0  0  0  0  0  0  0  0  0
    0.5935   19.0798   -8.2692 C   0  0  0  0  0  0  0  0  0  0  0  0
    0.5710   17.8857   -7.3424 C   0  0  0  0  0  0  0  0  0  0  0  0
   -0.2766   18.4563   -6.1980 C   0  0  0  0  0  0  0  0  0  0  0  0
   -0.4235   16.9148   -8.0142 C   0  0  0  0  0  0  0  0  0  0  0  0
   -2.9321   10.7648   -2.9192 C   0  0  0  0  0  0  0  0  0  0  0  0
   -1.3589   10.1452   -3.3841 S   0  0  0  0  0  0  0  0  0  0  0  0
   -1.5237    8.8251   -2.2659 C   0  0  0  0  0  0  0  0  0  0  0  0
   -0.6103    7.8111   -2.0659 C   0  0  0  0  0  0  0  0  0  0  0  0
   -0.9295    6.8069   -1.1572 C   0  0  0  0  0  0  0  0  0  0  0  0
   -0.2118    5.6207   -0.8694 C   0  0  0  0  0  0  0  0  0  0  0  0
   -0.8590    4.7829   -0.0100 C   0  0  0  0  0  0  0  0  0  0  0  0
   -2.3619    5.4734    0.5862 S   0  0  0  0  0  0  0  0  0  0  0  0
   -2.1582    6.8680   -0.4403 C   0  0  0  0  0  0  0  0  0  0  0  0
   -3.0617    7.8864   -0.6119 C   0  0  0  0  0  0  0  0  0  0  0  0
   -2.7531    8.8788   -1.5518 C   0  0  0  0  0  0  0  0  0  0  0  0
   -3.5268    9.9808   -1.9480 C   0  0  0  0  0  0  0  0  0  0  0  0
   -0.5305    3.4230    0.2819 C   0  0  0  0  0  0  0  0  0  0  0  0
   -0.0989    2.4724   -0.6332 C   0  0  0  0  0  0  0  0  0  0  0  0
    0.0331    2.6575   -2.0005 N   0  0  0  0  0  0  0  0  0  0  0  0
   -0.8572    3.5074   -2.6793 C   0  0  0  0  0  0  0  0  0  0  0  0
   -0.3884    4.3418   -3.6941 C   0  0  0  0  0  0  0  0  0  0  0  0
   -1.2226    5.2785   -4.2616 C   0  0  0  0  0  0  0  0  0  0  0  0
   -2.5424    5.4038   -3.8310 C   0  0  0  0  0  0  0  0  0  0  0  0
   -3.4818    6.7176   -4.5388 S   0  0  0  0  0  0  0  0  0  0  0  0
   -4.9832    6.7689   -3.5211 C   0  0  0  0  0  0  0  0  0  0  0  0
   -3.0365    4.5163   -2.8842 C   0  0  0  0  0  0  0  0  0  0  0  0
   -2.2001    3.5737   -2.3186 C   0  0  0  0  0  0  0  0  0  0  0  0
    0.8987    1.8218   -2.7168 C   0  0  0  0  0  0  0  0  0  0  0  0
    0.5241    1.2944   -3.9496 C   0  0  0  0  0  0  0  0  0  0  0  0
    1.3335    0.3890   -4.6067 C   0  0  0  0  0  0  0  0  0  0  0  0
    2.5386   -0.0068   -4.0414 C   0  0  0  0  0  0  0  0  0  0  0  0
    3.6174   -1.2067   -4.7562 S   0  0  0  0  0  0  0  0  0  0  0  0
    2.6410   -1.9277   -6.1040 C   0  0  0  0  0  0  0  0  0  0  0  0
    2.9498    0.5689   -2.8420 C   0  0  0  0  0  0  0  0  0  0  0  0
    2.1451    1.4765   -2.1899 C   0  0  0  0  0  0  0  0  0  0  0  0
    0.0658    1.2172   -0.0028 C   0  0  0  0  0  0  0  0  0  0  0  0
    0.5096   -0.3401   -0.5843 S   0  0  0  0  0  0  0  0  0  0  0  0
    0.1273   -1.0566    0.9733 C   0  0  0  0  0  0  0  0  0  0  0  0
   -0.2964   -0.1099    1.8985 C   0  0  0  0  0  0  0  0  0  0  0  0
   -0.7182   -0.3880    3.1956 N   0  0  0  0  0  0  0  0  0  0  0  0
   -1.6090   -1.4437    3.4112 C   0  0  0  0  0  0  0  0  0  0  0  0
   -2.5488   -1.7663    2.4332 C   0  0  0  0  0  0  0  0  0  0  0  0
   -3.3370   -2.8910    2.5691 C   0  0  0  0  0  0  0  0  0  0  0  0
   -3.2021   -3.6978    3.6876 C   0  0  0  0  0  0  0  0  0  0  0  0
   -4.1148   -5.2294    3.7991 S   0  0  0  0  0  0  0  0  0  0  0  0
   -2.8903   -6.2988    2.9754 C   0  0  0  0  0  0  0  0  0  0  0  0
   -2.3340   -3.3349    4.7042 C   0  0  0  0  0  0  0  0  0  0  0  0
   -1.5386   -2.2158    4.5704 C   0  0  0  0  0  0  0  0  0  0  0  0
   -0.2454    0.4163    4.2351 C   0  0  0  0  0  0  0  0  0  0  0  0
    1.0286    0.9742    4.1557 C   0  0  0  0  0  0  0  0  0  0  0  0
    1.5090    1.7874    5.1632 C   0  0  0  0  0  0  0  0  0  0  0  0
    0.7236    2.0496    6.2765 C   0  0  0  0  0  0  0  0  0  0  0  0
    1.2613    3.0363    7.6426 S   0  0  0  0  0  0  0  0  0  0  0  0
    2.6297    4.0076    6.9452 C   0  0  0  0  0  0  0  0  0  0  0  0
   -0.5478    1.4885    6.3650 C   0  0  0  0  0  0  0  0  0  0  0  0
   -1.0325    0.6896    5.3545 C   0  0  0  0  0  0  0  0  0  0  0  0
   -0.3116    1.1848    1.3297 C   0  0  0  0  0  0  0  0  0  0  0  0
   -0.8218    2.7430    1.8795 S   0  0  0  0  0  0  0  0  0  0  0  0
    0.3695   -2.4459    1.1525 C   0  0  0  0  0  0  0  0  0  0  0  0
    0.3980   -3.4362    0.1743 C   0  0  0  0  0  0  0  0  0  0  0  0
    0.0995   -3.2844   -1.1766 N   0  0  0  0  0  0  0  0  0  0  0  0
    1.0267   -3.7846   -2.1056 C   0  0  0  0  0  0  0  0  0  0  0  0
    2.3920   -3.6634   -1.8690 C   0  0  0  0  0  0  0  0  0  0  0  0
    3.3121   -4.1230   -2.7904 C   0  0  0  0  0  0  0  0  0  0  0  0
    2.8770   -4.7030   -3.9731 C   0  0  0  0  0  0  0  0  0  0  0  0
    3.9572   -5.2805   -5.2444 S   0  0  0  0  0  0  0  0  0  0  0  0
    5.5837   -4.6490   -4.7443 C   0  0  0  0  0  0  0  0  0  0  0  0
    1.5097   -4.8460   -4.2047 C   0  0  0  0  0  0  0  0  0  0  0  0
    0.5933   -4.3981   -3.2804 C   0  0  0  0  0  0  0  0  0  0  0  0
   -1.0156   -2.5660   -1.6071 C   0  0  0  0  0  0  0  0  0  0  0  0
   -0.9759   -1.8216   -2.7863 C   0  0  0  0  0  0  0  0  0  0  0  0
   -2.0353   -1.0164   -3.1500 C   0  0  0  0  0  0  0  0  0  0  0  0
   -3.1578   -0.9327   -2.3383 C   0  0  0  0  0  0  0  0  0  0  0  0
   -4.5263    0.1412   -2.6487 S   0  0  0  0  0  0  0  0  0  0  0  0
   -4.0705    1.0100   -4.1754 C   0  0  0  0  0  0  0  0  0  0  0  0
   -3.2282   -1.7202   -1.1907 C   0  0  0  0  0  0  0  0  0  0  0  0
   -2.1755   -2.5332   -0.8337 C   0  0  0  0  0  0  0  0  0  0  0  0
    0.8099   -4.6707    0.7205 C   0  0  0  0  0  0  0  0  0  0  0  0
    1.0169   -6.2450    0.0510 S   0  0  0  0  0  0  0  0  0  0  0  0
    1.4453   -6.8871    1.6495 C   0  0  0  0  0  0  0  0  0  0  0  0
    1.5591   -5.8612    2.6155 C   0  0  0  0  0  0  0  0  0  0  0  0
    2.1225   -5.9588    3.8473 N   0  0  0  0  0  0  0  0  0  0  0  0
    2.9703   -6.9990    4.2508 C   0  0  0  0  0  0  0  0  0  0  0  0
    2.8588   -7.5213    5.5408 C   0  0  0  0  0  0  0  0  0  0  0  0
    3.6420   -8.5850    5.9288 C   0  0  0  0  0  0  0  0  0  0  0  0
    4.5693   -9.1424    5.0492 C   0  0  0  0  0  0  0  0  0  0  0  0
    5.4499  -10.5514    5.6256 S   0  0  0  0  0  0  0  0  0  0  0  0
    6.5287  -11.0060    4.2401 C   0  0  0  0  0  0  0  0  0  0  0  0
    4.7374   -8.5735    3.7910 C   0  0  0  0  0  0  0  0  0  0  0  0
    3.9427   -7.5164    3.3979 C   0  0  0  0  0  0  0  0  0  0  0  0
    1.9170   -4.9102    4.7905 C   0  0  0  0  0  0  0  0  0  0  0  0
    0.7395   -4.8427    5.5267 C   0  0  0  0  0  0  0  0  0  0  0  0
    0.5700   -3.8325    6.4470 C   0  0  0  0  0  0  0  0  0  0  0  0
    1.5506   -2.8545    6.6172 C   0  0  0  0  0  0  0  0  0  0  0  0
    1.1626   -1.5593    7.7474 S   0  0  0  0  0  0  0  0  0  0  0  0
    2.6179   -0.4812    7.7069 C   0  0  0  0  0  0  0  0  0  0  0  0
    2.7351   -2.9396    5.8975 C   0  0  0  0  0  0  0  0  0  0  0  0
    2.9210   -3.9751    5.0004 C   0  0  0  0  0  0  0  0  0  0  0  0
    1.1202   -4.6314    2.0729 C   0  0  0  0  0  0  0  0  0  0  0  0
    0.8641   -3.0494    2.7270 S   0  0  0  0  0  0  0  0  0  0  0  0
    1.5957   -8.2675    1.7596 C   0  0  0  0  0  0  0  0  0  0  0  0
    1.4629   -8.9957    2.9259 C   0  0  0  0  0  0  0  0  0  0  0  0
    0.6372   -8.5814    4.0662 C   0  0  0  0  0  0  0  0  0  0  0  0
   -0.0021   -7.5477    4.1850 O   0  0  0  0  0  0  0  0  0  0  0  0
    0.6306   -9.7272    4.9975 C   0  0  0  0  0  0  0  0  0  0  0  0
   -0.0087   -9.8062    6.2308 C   0  0  0  0  0  0  0  0  0  0  0  0
    0.1958  -10.9945    6.8922 C   0  0  0  0  0  0  0  0  0  0  0  0
    0.9718  -12.0324    6.3633 C   0  0  0  0  0  0  0  0  0  0  0  0
    1.6034  -11.9700    5.1430 C   0  0  0  0  0  0  0  0  0  0  0  0
    1.4099  -10.7692    4.4582 C   0  0  0  0  0  0  0  0  0  0  0  0
    1.9486  -10.3217    3.1763 C   0  0  0  0  0  0  0  0  0  0  0  0
    2.8922  -10.9790    2.4230 C   0  0  0  0  0  0  0  0  0  0  0  0
    3.4036  -12.2567    2.7123 C   0  0  0  0  0  0  0  0  0  0  0  0
    3.8768  -13.2902    2.8836 N   0  0  0  0  0  0  0  0  0  0  0  0
    3.5417  -10.4076    1.3121 C   0  0  0  0  0  0  0  0  0  0  0  0
    4.1612   -9.9881    0.4393 N   0  0  0  0  0  0  0  0  0  0  0  0
    0.7412  -12.9234    7.5588 C   0  0  0  0  0  0  0  0  0  0  0  0
   -0.2866  -14.0612    7.3855 C   0  0  0  0  0  0  0  0  0  0  0  0
   -0.6518  -14.4382    8.8031 C   0  0  0  0  0  0  0  0  0  0  0  0
   -1.3856  -13.4537    9.3061 C   0  0  0  0  0  0  0  0  0  0  0  0
   -1.5289  -12.3950    8.2367 C   0  0  0  0  0  0  0  0  0  0  0  0
   -1.5475  -13.2836    6.9863 C   0  0  0  0  0  0  0  0  0  0  0  0
   -0.1231  -11.7640    8.1506 C   0  0  0  0  0  0  0  0  0  0  0  0
   -4.5625   12.0574   -3.0057 H   0  0  0  0  0  0  0  0  0  0  0  0
    0.1738   14.0807   -6.6067 H   0  0  0  0  0  0  0  0  0  0  0  0
   -4.2253   16.5547   -6.1754 H   0  0  0  0  0  0  0  0  0  0  0  0
   -2.3842   17.8433   -8.7562 H   0  0  0  0  0  0  0  0  0  0  0  0
   -2.2204   19.4917   -6.6707 H   0  0  0  0  0  0  0  0  0  0  0  0
   -0.9201   20.5686   -8.6836 H   0  0  0  0  0  0  0  0  0  0  0  0
    1.4016   19.3028   -8.9409 H   0  0  0  0  0  0  0  0  0  0  0  0
    1.5317   17.4479   -7.0850 H   0  0  0  0  0  0  0  0  0  0  0  0
   -0.6014   17.7127   -5.4724 H   0  0  0  0  0  0  0  0  0  0  0  0
    0.2255   19.2729   -5.6820 H   0  0  0  0  0  0  0  0  0  0  0  0
   -0.1075   16.6009   -9.0072 H   0  0  0  0  0  0  0  0  0  0  0  0
    0.3143    7.7765   -2.6194 H   0  0  0  0  0  0  0  0  0  0  0  0
    0.7440    5.3910   -1.3044 H   0  0  0  0  0  0  0  0  0  0  0  0
   -3.9874    7.9207   -0.0583 H   0  0  0  0  0  0  0  0  0  0  0  0
   -4.4980   10.2031   -1.5401 H   0  0  0  0  0  0  0  0  0  0  0  0
    0.6423    4.2683   -4.0081 H   0  0  0  0  0  0  0  0  0  0  0  0
   -0.8551    5.9489   -5.0229 H   0  0  0  0  0  0  0  0  0  0  0  0
   -5.5094    7.6696   -3.8221 H   0  0  0  0  0  0  0  0  0  0  0  0
   -5.6031    5.8989   -3.7175 H   0  0  0  0  0  0  0  0  0  0  0  0
   -4.7078    6.8332   -2.4725 H   0  0  0  0  0  0  0  0  0  0  0  0
   -4.0667    4.5506   -2.5691 H   0  0  0  0  0  0  0  0  0  0  0  0
   -2.5893    2.8985   -1.5703 H   0  0  0  0  0  0  0  0  0  0  0  0
   -0.4173    1.5885   -4.3899 H   0  0  0  0  0  0  0  0  0  0  0  0
    1.0056   -0.0103   -5.5533 H   0  0  0  0  0  0  0  0  0  0  0  0
    3.2310   -2.7541   -6.4885 H   0  0  0  0  0  0  0  0  0  0  0  0
    1.7013   -2.3050   -5.7109 H   0  0  0  0  0  0  0  0  0  0  0  0
    2.4823   -1.1927   -6.8878 H   0  0  0  0  0  0  0  0  0  0  0  0
    3.9047    0.2884   -2.4252 H   0  0  0  0  0  0  0  0  0  0  0  0
    2.4712    1.9174   -1.2596 H   0  0  0  0  0  0  0  0  0  0  0  0
   -2.6458   -1.1377    1.5607 H   0  0  0  0  0  0  0  0  0  0  0  0
   -4.0577   -3.1504    1.8080 H   0  0  0  0  0  0  0  0  0  0  0  0
   -1.9885   -6.3750    3.5762 H   0  0  0  0  0  0  0  0  0  0  0  0
   -3.3533   -7.2752    2.8772 H   0  0  0  0  0  0  0  0  0  0  0  0
   -2.6630   -5.8936    1.9932 H   0  0  0  0  0  0  0  0  0  0  0  0
   -2.2696   -3.9493    5.5879 H   0  0  0  0  0  0  0  0  0  0  0  0
   -0.8345   -1.9529    5.3433 H   0  0  0  0  0  0  0  0  0  0  0  0
    1.6538    0.7585    3.3014 H   0  0  0  0  0  0  0  0  0  0  0  0
    2.5013    2.2012    5.0719 H   0  0  0  0  0  0  0  0  0  0  0  0
    2.3124    4.4588    6.0101 H   0  0  0  0  0  0  0  0  0  0  0  0
    2.8451    4.7803    7.6765 H   0  0  0  0  0  0  0  0  0  0  0  0
    3.5080    3.3836    6.8045 H   0  0  0  0  0  0  0  0  0  0  0  0
   -1.1539    1.6960    7.2329 H   0  0  0  0  0  0  0  0  0  0  0  0
   -2.0289    0.2812    5.4218 H   0  0  0  0  0  0  0  0  0  0  0  0
    2.7352   -3.1883   -0.9615 H   0  0  0  0  0  0  0  0  0  0  0  0
    4.3622   -4.0067   -2.5799 H   0  0  0  0  0  0  0  0  0  0  0  0
    5.9238   -5.1612   -3.8491 H   0  0  0  0  0  0  0  0  0  0  0  0
    5.5253   -3.5748   -4.5923 H   0  0  0  0  0  0  0  0  0  0  0  0
    6.2513   -4.8733   -5.5705 H   0  0  0  0  0  0  0  0  0  0  0  0
    1.1789   -5.3159   -5.1186 H   0  0  0  0  0  0  0  0  0  0  0  0
   -0.4647   -4.5128   -3.4627 H   0  0  0  0  0  0  0  0  0  0  0  0
   -0.0868   -1.8375   -3.3978 H   0  0  0  0  0  0  0  0  0  0  0  0
   -1.9591   -0.4414   -4.0579 H   0  0  0  0  0  0  0  0  0  0  0  0
   -4.9046    1.6695   -4.3945 H   0  0  0  0  0  0  0  0  0  0  0  0
   -3.1718    1.6002   -4.0157 H   0  0  0  0  0  0  0  0  0  0  0  0
   -3.9438    0.2986   -4.9862 H   0  0  0  0  0  0  0  0  0  0  0  0
   -4.1191   -1.6798   -0.5823 H   0  0  0  0  0  0  0  0  0  0  0  0
   -2.2313   -3.1370    0.0589 H   0  0  0  0  0  0  0  0  0  0  0  0
    2.1363   -7.1041    6.2250 H   0  0  0  0  0  0  0  0  0  0  0  0
    3.5321   -9.0123    6.9135 H   0  0  0  0  0  0  0  0  0  0  0  0
    5.9344  -11.2593    3.3673 H   0  0  0  0  0  0  0  0  0  0  0  0
    7.0721  -11.8840    4.5750 H   0  0  0  0  0  0  0  0  0  0  0  0
    7.2238  -10.1987    4.0288 H   0  0  0  0  0  0  0  0  0  0  0  0
    5.4730   -8.9521    3.1001 H   0  0  0  0  0  0  0  0  0  0  0  0
    4.0755   -7.0968    2.4121 H   0  0  0  0  0  0  0  0  0  0  0  0
   -0.0187   -5.5934    5.3676 H   0  0  0  0  0  0  0  0  0  0  0  0
   -0.3249   -3.7783    7.0476 H   0  0  0  0  0  0  0  0  0  0  0  0
    3.4868   -1.0130    8.0836 H   0  0  0  0  0  0  0  0  0  0  0  0
    2.3779    0.3515    8.3615 H   0  0  0  0  0  0  0  0  0  0  0  0
    2.7747   -0.1190    6.6950 H   0  0  0  0  0  0  0  0  0  0  0  0
    3.5185   -2.2107    6.0249 H   0  0  0  0  0  0  0  0  0  0  0  0
    3.8441   -4.0488    4.4442 H   0  0  0  0  0  0  0  0  0  0  0  0
    1.7835   -8.7990    0.8340 H   0  0  0  0  0  0  0  0  0  0  0  0
   -0.5954   -8.9832    6.6088 H   0  0  0  0  0  0  0  0  0  0  0  0
    2.1980  -12.7757    4.7455 H   0  0  0  0  0  0  0  0  0  0  0  0
    1.6349  -13.2341    8.0967 H   0  0  0  0  0  0  0  0  0  0  0  0
    0.0331  -14.8678    6.7315 H   0  0  0  0  0  0  0  0  0  0  0  0
   -0.3034  -15.3266    9.2964 H   0  0  0  0  0  0  0  0  0  0  0  0
   -1.7725  -13.3554   10.3036 H   0  0  0  0  0  0  0  0  0  0  0  0
   -2.3415  -11.6837    8.3580 H   0  0  0  0  0  0  0  0  0  0  0  0
   -2.4295  -13.9208    6.9471 H   0  0  0  0  0  0  0  0  0  0  0  0
   -1.4527  -12.7347    6.0512 H   0  0  0  0  0  0  0  0  0  0  0  0
    0.1948  -11.3029    9.0841 H   0  0  0  0  0  0  0  0  0  0  0  0
  1  2  2  0  0  0  0
  2  3  1  0  0  0  0
  3  4  2  0  0  0  0
  3  5  1  0  0  0  0
  5  6  2  0  0  0  0
  6  7  1  0  0  0  0
  7  8  2  0  0  0  0
  8  9  1  0  0  0  0
  9 10  2  0  0  0  0
 10 11  1  0  0  0  0
 11 12  2  0  0  0  0
 12 13  1  0  0  0  0
 13 14  3  0  0  0  0
 12 15  1  0  0  0  0
 15 16  3  0  0  0  0
  8 17  1  0  0  0  0
 17 18  1  0  0  0  0
 18 19  1  0  0  0  0
 19 20  2  0  0  0  0
 20 21  1  0  0  0  0
 21 22  1  0  0  0  0
 21 23  1  0  0  0  0
  1 24  1  0  0  0  0
 24 25  1  0  0  0  0
 25 26  1  0  0  0  0
 26 27  2  0  0  0  0
 27 28  1  0  0  0  0
 28 29  1  0  0  0  0
 29 30  2  0  0  0  0
 30 31  1  0  0  0  0
 31 32  1  0  0  0  0
 32 33  1  0  0  0  0
 33 34  2  0  0  0  0
 34 35  1  0  0  0  0
 30 36  1  0  0  0  0
 36 37  2  0  0  0  0
 37 38  1  0  0  0  0
 38 39  1  0  0  0  0
 39 40  2  0  0  0  0
 40 41  1  0  0  0  0
 41 42  2  0  0  0  0
 42 43  1  0  0  0  0
 43 44  1  0  0  0  0
 42 45  1  0  0  0  0
 45 46  2  0  0  0  0
 38 47  1  0  0  0  0
 47 48  2  0  0  0  0
 48 49  1  0  0  0  0
 49 50  2  0  0  0  0
 50 51  1  0  0  0  0
 51 52  1  0  0  0  0
 50 53  1  0  0  0  0
 53 54  2  0  0  0  0
 37 55  1  0  0  0  0
 55 56  1  0  0  0  0
 56 57  1  0  0  0  0
 57 58  2  0  0  0  0
 58 59  1  0  0  0  0
 59 60  1  0  0  0  0
 60 61  2  0  0  0  0
 61 62  1  0  0  0  0
 62 63  2  0  0  0  0
 63 64  1  0  0  0  0
 64 65  1  0  0  0  0
 63 66  1  0  0  0  0
 66 67  2  0  0  0  0
 59 68  1  0  0  0  0
 68 69  2  0  0  0  0
 69 70  1  0  0  0  0
 70 71  2  0  0  0  0
 71 72  1  0  0  0  0
 72 73  1  0  0  0  0
 71 74  1  0  0  0  0
 74 75  2  0  0  0  0
 58 76  1  0  0  0  0
 76 77  1  0  0  0  0
 57 78  1  0  0  0  0
 78 79  2  0  0  0  0
 79 80  1  0  0  0  0
 80 81  1  0  0  0  0
 81 82  2  0  0  0  0
 82 83  1  0  0  0  0
 83 84  2  0  0  0  0
 84 85  1  0  0  0  0
 85 86  1  0  0  0  0
 84 87  1  0  0  0  0
 87 88  2  0  0  0  0
 80 89  1  0  0  0  0
 89 90  2  0  0  0  0
 90 91  1  0  0  0  0
 91 92  2  0  0  0  0
 92 93  1  0  0  0  0
 93 94  1  0  0  0  0
 92 95  1  0  0  0  0
 95 96  2  0  0  0  0
 79 97  1  0  0  0  0
 97 98  1  0  0  0  0
 98 99  1  0  0  0  0
 99100  2  0  0  0  0
100101  1  0  0  0  0
101102  1  0  0  0  0
102103  2  0  0  0  0
103104  1  0  0  0  0
104105  2  0  0  0  0
105106  1  0  0  0  0
106107  1  0  0  0  0
105108  1  0  0  0  0
108109  2  0  0  0  0
101110  1  0  0  0  0
110111  2  0  0  0  0
111112  1  0  0  0  0
112113  2  0  0  0  0
113114  1  0  0  0  0
114115  1  0  0  0  0
113116  1  0  0  0  0
116117  2  0  0  0  0
100118  1  0  0  0  0
118119  1  0  0  0  0
 99120  1  0  0  0  0
120121  2  0  0  0  0
121122  1  0  0  0  0
122123  2  0  0  0  0
122124  1  0  0  0  0
124125  2  0  0  0  0
125126  1  0  0  0  0
126127  2  0  0  0  0
127128  1  0  0  0  0
128129  2  0  0  0  0
129130  1  0  0  0  0
130131  2  0  0  0  0
131132  1  0  0  0  0
132133  3  0  0  0  0
131134  1  0  0  0  0
134135  3  0  0  0  0
127136  1  0  0  0  0
136137  1  0  0  0  0
137138  1  0  0  0  0
138139  2  0  0  0  0
139140  1  0  0  0  0
140141  1  0  0  0  0
140142  1  0  0  0  0
 11  2  1  0  0  0  0
 23 17  1  0  0  0  0
 35 24  2  0  0  0  0
 77 36  1  0  0  0  0
119 78  1  0  0  0  0
130121  1  0  0  0  0
142136  1  0  0  0  0
 10  5  1  0  0  0  0
 22 18  1  0  0  0  0
 34 26  1  0  0  0  0
 46 39  1  0  0  0  0
 54 47  1  0  0  0  0
 76 55  2  0  0  0  0
 88 81  1  0  0  0  0
 96 89  1  0  0  0  0
118 97  2  0  0  0  0
129124  1  0  0  0  0
141137  1  0  0  0  0
 23  7  1  0  0  0  0
 32 28  2  0  0  0  0
 67 60  1  0  0  0  0
 75 68  1  0  0  0  0
109102  1  0  0  0  0
117110  1  0  0  0  0
142126  1  0  0  0  0
  1143  1  0  0  0  0
  6144  1  0  0  0  0
  9145  1  0  0  0  0
 17146  1  0  0  0  0
 18147  1  0  0  0  0
 19148  1  0  0  0  0
 20149  1  0  0  0  0
 21150  1  0  0  0  0
 22151  1  0  0  0  0
 22152  1  0  0  0  0
 23153  1  0  0  0  0
 27154  1  0  0  0  0
 29155  1  0  0  0  0
 33156  1  0  0  0  0
 35157  1  0  0  0  0
 40158  1  0  0  0  0
 41159  1  0  0  0  0
 44160  1  0  0  0  0
 44161  1  0  0  0  0
 44162  1  0  0  0  0
 45163  1  0  0  0  0
 46164  1  0  0  0  0
 48165  1  0  0  0  0
 49166  1  0  0  0  0
 52167  1  0  0  0  0
 52168  1  0  0  0  0
 52169  1  0  0  0  0
 53170  1  0  0  0  0
 54171  1  0  0  0  0
 61172  1  0  0  0  0
 62173  1  0  0  0  0
 65174  1  0  0  0  0
 65175  1  0  0  0  0
 65176  1  0  0  0  0
 66177  1  0  0  0  0
 67178  1  0  0  0  0
 69179  1  0  0  0  0
 70180  1  0  0  0  0
 73181  1  0  0  0  0
 73182  1  0  0  0  0
 73183  1  0  0  0  0
 74184  1  0  0  0  0
 75185  1  0  0  0  0
 82186  1  0  0  0  0
 83187  1  0  0  0  0
 86188  1  0  0  0  0
 86189  1  0  0  0  0
 86190  1  0  0  0  0
 87191  1  0  0  0  0
 88192  1  0  0  0  0
 90193  1  0  0  0  0
 91194  1  0  0  0  0
 94195  1  0  0  0  0
 94196  1  0  0  0  0
 94197  1  0  0  0  0
 95198  1  0  0  0  0
 96199  1  0  0  0  0
103200  1  0  0  0  0
104201  1  0  0  0  0
107202  1  0  0  0  0
107203  1  0  0  0  0
107204  1  0  0  0  0
108205  1  0  0  0  0
109206  1  0  0  0  0
111207  1  0  0  0  0
112208  1  0  0  0  0
115209  1  0  0  0  0
115210  1  0  0  0  0
115211  1  0  0  0  0
116212  1  0  0  0  0
117213  1  0  0  0  0
120214  1  0  0  0  0
125215  1  0  0  0  0
128216  1  0  0  0  0
136217  1  0  0  0  0
137218  1  0  0  0  0
138219  1  0  0  0  0
139220  1  0  0  0  0
140221  1  0  0  0  0
141222  1  0  0  0  0
141223  1  0  0  0  0
142224  1  0  0  0  0
M  END
