270

C         -3.22650       -7.22810       -5.22010
C         -2.51910       -8.25950       -5.81010
C         -1.07820       -8.46420       -5.63580
O         -0.28950       -7.76300       -5.02000
C         -0.77930       -9.77560       -6.24590
C          0.45810      -10.40820       -6.31340
C          0.42790      -11.63220       -6.93920
C         -0.74820      -12.18980       -7.45290
C         -1.97680      -11.57240       -7.39620
C         -1.96490      -10.32550       -6.76910
C         -3.05320       -9.37720       -6.53110
C         -4.32740       -9.46780       -7.03880
C         -5.30620       -8.46640       -6.88950
N         -6.14310       -7.68080       -6.83490
C         -4.79350      -10.52930       -7.83390
N         -5.22860      -11.35720       -8.50250
C         -0.04680      -13.44290       -7.91770
C         -0.23160      -14.70140       -7.04390
C          0.91600      -15.59700       -7.45170
C          2.03270      -15.06660       -6.96980
C          1.65840      -13.80380       -6.22820
C          0.28430      -14.21490       -5.68350
C          1.26730      -12.81760       -7.34890
C         -2.67830       -6.01340       -4.82030
C         -1.51090       -5.34440       -5.26240
N         -0.89840       -5.54520       -6.45060
C          0.37150       -4.98150       -6.74100
C          0.48260       -4.08990       -7.80170
C          1.72070       -3.58560       -8.14680
C          2.86670       -3.98020       -7.46500
C          4.20740       -3.43230       -7.84530
C          2.74030       -4.88480       -6.41880
C          1.50390       -5.37400       -6.04350
C         -1.48130       -6.27200       -7.50750
C         -2.79810       -6.04910       -7.90320
C         -3.34410       -6.78850       -8.93080
C         -2.60220       -7.76790       -9.58840
C         -3.22880       -8.59740      -10.66430
C         -1.27920       -7.95460       -9.21250
C         -0.71610       -7.21160       -8.19090
C         -1.18000       -4.29850       -4.36520
S          0.17810       -3.23820       -4.16860
C         -0.57510       -2.49440       -2.77010
C         -1.81680       -3.02280       -2.50040
N         -2.66980       -2.55130       -1.49680
C         -3.95820       -2.19080       -1.91820
C         -5.09340       -2.49860       -1.17410
C         -6.34750       -2.18660       -1.66360
C         -6.50910       -1.57790       -2.90260
C         -7.87060       -1.29780       -3.46180
C         -5.36890       -1.25570       -3.63020
C         -4.11080       -1.54730       -3.14600
C         -2.33760       -2.74250       -0.15580
C         -1.51720       -3.80440        0.22440
C         -1.22640       -4.01850        1.55550
C         -1.74440       -3.19440        2.54840
C         -1.43420       -3.46050        3.98920
C         -2.54090       -2.12540        2.15930
C         -2.82750       -1.88700        0.82840
C         -2.13950       -4.07130       -3.38910
S         -3.47660       -5.14830       -3.49450
C         -0.04630       -1.34330       -2.07350
C          0.83080       -1.25950       -1.01570
N          1.47800       -2.32260       -0.41000
C          1.98380       -3.38560       -1.17750
C          1.79140       -4.69680       -0.75410
C          2.29210       -5.75180       -1.48950
C          3.01580       -5.50820       -2.64960
S          3.74910       -6.80080       -3.60790
C          2.65460       -8.22170       -3.31800
C          3.23330       -4.19610       -3.06030
C          2.71210       -3.14400       -2.33900
C          1.82620       -2.21590        0.94130
C          0.95540       -1.60030        1.84060
C          1.35810       -1.33350        3.13250
C          2.63720       -1.67670        3.54410
S          3.24780       -1.18430        5.13910
C          2.84340        0.59190        5.08800
C          3.46780       -2.38930        2.68900
C          3.06650       -2.66160        1.39790
C          0.92900        0.08090       -0.55480
S          1.86630        0.85670        0.66280
C          1.05610        2.39390        0.36090
C          0.16210        2.31240       -0.69690
N         -0.58330        3.34280       -1.24730
C         -0.03740        4.61700       -1.43980
C          1.33550        4.79940       -1.58310
C          1.86670        6.05540       -1.81160
C          1.03170        7.15850       -1.91300
S          1.58710        8.81030       -2.19480
C          3.39690        8.66430       -2.22350
C         -0.34380        6.98350       -1.76850
C         -0.86920        5.73600       -1.52700
C         -1.83960        3.01460       -1.78420
C         -2.64780        2.08440       -1.13190
C         -3.89570        1.76360       -1.62360
C         -4.37390        2.38730       -2.76610
S         -6.00080        2.10050       -3.39130
C         -6.91860        1.69850       -1.87420
C         -3.55270        3.27630       -3.45320
C         -2.29530        3.57710       -2.97660
C          0.10820        0.98280       -1.20330
S         -0.76240        0.21440       -2.48290
C          1.45440        3.42470        1.26620
C          0.78120        4.47780        1.86680
N         -0.53320        4.87410        1.64480
C         -0.77640        6.25500        1.80720
C          0.12480        7.16170        1.25570
C         -0.05880        8.51930        1.41610
C         -1.13900        9.01300        2.13530
C         -1.31850       10.48560        2.33830
C         -2.02460        8.10280        2.69820
C         -1.85030        6.74210        2.54540
C         -1.58420        3.95500        1.70610
C         -1.43430        2.71170        2.31730
C         -2.51160        1.85330        2.43660
C         -3.76990        2.20260        1.96700
C         -4.95290        1.29800        2.13560
C         -3.90680        3.43180        1.32910
C         -2.83660        4.28880        1.18730
C          1.58000        5.09940        2.86330
S          1.25430        6.34120        4.02070
C          2.81570        6.04280        4.79630
C          3.51230        4.96930        4.18500
N          4.68000        4.40740        4.62910
C          4.97320        4.24820        5.99690
C          6.29170        4.33590        6.43520
C          6.58540        4.17660        7.77450
C          5.58280        3.93820        8.70730
C          5.91540        3.81680       10.16210
C          4.27230        3.83190        8.25600
C          3.96490        3.97350        6.91750
C          5.52030        3.78050        3.68780
C          6.04010        2.51220        3.93100
C          6.84950        1.90750        2.99180
C          7.16410        2.54440        1.79580
C          8.02310        1.86280        0.77620
C          6.64940        3.81420        1.56780
C          5.83750        4.43120        2.49920
C          2.81110        4.49510        3.06580
S          3.06390        3.18750        1.95960
C          3.34760        6.79780        5.83890
C          2.78860        7.80830        6.58910
C          1.41540        8.30490        6.49190
O          0.56970        8.01480        5.66160
C          1.23310        9.23760        7.61950
C          0.07660        9.94000        7.94870
C          0.19980       10.72420        9.07070
C          1.38730       10.80580        9.80830
C          2.53840       10.12470        9.48810
C          2.43370        9.31770        8.35190
C          3.43110        8.46710        7.70030
C          4.74570        8.35000        8.08660
C          5.29560        8.94390        9.23910
N          5.81280        9.37640       10.16990
C          5.74780        7.65700        7.38190
N          6.63840        7.15000        6.85920
C          0.79280       11.76270       10.81210
C          0.38670       11.16560       12.17610
C         -0.57550       12.18350       12.74440
C         -1.70050       12.10990       12.04470
C         -1.51760       11.04050       10.99210
C         -0.60430       10.07260       11.75510
C         -0.53150       11.67380        9.98790
H         -4.27000       -7.38560       -4.97600
H          1.34340       -9.94420       -5.90690
H         -2.87590      -12.01350       -7.79340
H         -0.10480      -13.65360       -8.98400
H         -1.22700      -15.13600       -7.07620
H          0.80760      -16.46510       -8.07510
H          3.04340      -15.40280       -7.11050
H          2.38540      -13.42090       -5.51660
H         -0.28910      -13.39240       -5.26010
H          0.35420      -15.02270       -4.95670
H          2.08440      -12.60950       -8.03760
H         -0.40200       -3.79990       -8.34990
H          1.80070       -2.88550       -8.96580
H          4.27290       -3.27480       -8.91940
H          4.36650       -2.47090       -7.35580
H          5.00340       -4.10510       -7.53570
H          3.62230       -5.23360       -5.90340
H          1.40340       -6.08870       -5.24310
H         -3.39230       -5.29900       -7.40330
H         -4.36720       -6.60890       -9.22570
H         -3.88340       -9.35100      -10.22470
H         -2.47170       -9.10860      -11.25340
H         -3.83530       -7.97910      -11.32290
H         -0.67880       -8.69690       -9.71820
H          0.31530       -7.36370       -7.90990
H         -4.99300       -3.00200       -0.22400
H         -7.21940       -2.44250       -1.07770
H         -8.61770       -1.24850       -2.67290
H         -8.15720       -2.09450       -4.14870
H         -7.87320       -0.36180       -4.01650
H         -5.46950       -0.76450       -4.58650
H         -3.23500       -1.27830       -3.71890
H         -1.12970       -4.47050       -0.53280
H         -0.60230       -4.85410        1.83990
H         -0.35820       -3.41750        4.15870
H         -1.77620       -4.45500        4.27410
H         -1.91780       -2.73140        4.63490
H         -2.94560       -1.46580        2.91430
H         -3.43840       -1.04320        0.54370
H          1.25340       -4.88080        0.16300
H          2.12150       -6.75990       -1.14670
H          3.00530       -8.99470       -3.99540
H          1.62950       -7.95320       -3.55910
H          2.74470       -8.57290       -2.29440
H          3.81480       -4.00400       -3.94710
H          2.87200       -2.12770       -2.66750
H         -0.03010       -1.30800        1.51300
H          0.68160       -0.83450        3.80890
H          3.38710        1.05280        5.90710
H          3.17210        1.00210        4.13690
H          1.77680        0.74260        5.22550
H          4.44510       -2.69210        3.03160
H          3.73240       -3.17640        0.72130
H          2.00150        3.95110       -1.53610
H          2.93550        6.15090       -1.91830
H          3.75190        8.26750       -1.27670
H          3.76950        9.67450       -2.36220
H          3.70870        8.04050       -3.05630
H         -0.99190        7.84350       -1.83430
H         -1.93460        5.61980       -1.40680
H         -2.29560        1.61170       -0.22870
H         -4.49040        1.02460       -1.11150
H         -6.63960        2.40160       -1.09550
H         -6.71960        0.67360       -1.57380
H         -7.96970        1.81150       -2.11970
H         -3.91150        3.72910       -4.36460
H         -1.66370        4.25950       -3.52500
H          0.97970        6.78920        0.71250
H          0.64910        9.20520        0.97420
H         -2.37270       10.74400        2.41020
H         -0.83290       10.78820        3.26680
H         -0.86970       11.04770        1.52260
H         -2.85850        8.46380        3.28250
H         -2.53590        6.05510        3.01830
H         -0.48010        2.42410        2.73260
H         -2.36620        0.90000        2.92410
H         -5.73750        1.80230        2.69910
H         -4.67910        0.38860        2.66440
H         -5.37030        1.02250        1.16720
H         -4.87120        3.72320        0.93780
H         -2.96930        5.23770        0.69100
H          7.07710        4.54200        5.72530
H          7.60970        4.26030        8.10400
H          5.06800        3.43690       10.72730
H          6.76400        3.15130       10.30790
H          6.18700        4.79340       10.56340
H          3.47890        3.62740        8.96060
H          2.94210        3.88170        6.58100
H          5.80150        2.00400        4.85330
H          7.23910        0.91910        3.18670
H          7.43500        1.12530        0.22930
H          8.84960        1.34150        1.25440
H          8.42290        2.57790        0.06160
H          6.89100        4.33160        0.65060
H          5.44990        5.42300        2.31710
H          4.36020        6.52260        6.10470
H         -0.81580        9.84850        7.34920
H          3.44540       10.20420       10.06350
H          1.28790       12.72780       10.90080
H          1.21870       10.87090       12.80970
H         -0.32730       12.86850       13.53380
H         -2.57960       12.72120       12.13290
H         -2.42130       10.63180       10.54770
H         -0.16720        9.29280       11.13430
H         -1.10570        9.62030       12.60930
H         -0.91770       12.58030        9.52520
