214

C          0.20170       -5.75270       -4.72220
C         -0.61150       -6.85660       -4.85010
C         -1.66630       -7.27200       -3.92390
O         -2.09310       -6.66760       -2.95410
C         -2.12250       -8.59630       -4.38500
C         -3.10810       -9.39200       -3.80680
C         -3.31570      -10.58490       -4.45740
C         -2.59740      -10.95660       -5.60060
C         -1.62630      -10.17700       -6.18440
C         -1.39660       -8.96030       -5.53610
C         -0.47450       -7.87240       -5.86570
C          0.34930       -7.83890       -6.96650
C          0.51580       -8.90420       -7.87250
N          0.72490       -9.73470       -8.63870
C          1.12210       -6.73660       -7.37720
N          1.74960       -5.87500       -7.81000
C         -3.31770      -12.27700       -5.72210
C         -2.54940      -13.52940       -5.25010
C         -3.63460      -14.55940       -5.03460
C         -4.31600      -14.20730       -3.95190
C         -3.70270      -12.93320       -3.41730
C         -2.23410      -13.16950       -3.79240
C         -4.11960      -11.86180       -4.44700
C          0.20380       -4.73220       -3.77380
C          1.16520       -3.68780       -3.76460
N          2.31910       -3.66420       -4.49910
C          3.06370       -4.82660       -4.77860
C          3.14180       -5.86700       -3.85600
C          3.86350       -7.00430       -4.15730
C          4.53920       -7.12790       -5.36600
C          5.29640       -8.37340       -5.70890
C          4.48530       -6.06800       -6.26340
C          3.75500       -4.93060       -5.98290
C          2.87740       -2.42310       -4.87000
C          2.09220       -1.46280       -5.49780
C          2.65520       -0.26710       -5.90220
C          4.00040        0.00220       -5.68550
C          4.61800        1.27730       -6.16480
C          4.77260       -0.96180       -5.04590
C          4.22570       -2.16280       -4.64410
C          0.80540       -2.68950       -2.84270
S          1.51570       -1.19260       -2.34270
C          0.27530       -0.99300       -1.09530
C         -0.59920       -2.06430       -1.05560
N         -1.65060       -2.22830       -0.17140
C         -1.45300       -2.12890        1.21370
C         -0.25820       -2.52360        1.80900
C         -0.13340       -2.51100        3.18640
C         -1.18410       -2.10920        3.99750
C         -1.09000       -2.16800        5.49030
C         -2.36020       -1.67700        3.39090
C         -2.49900       -1.68450        2.02010
C         -2.80060       -2.89160       -0.64370
C         -3.41260       -3.90050        0.09360
C         -4.52010       -4.55040       -0.41270
C         -5.04400       -4.22120       -1.65660
C         -6.21710       -4.96380       -2.21820
C         -4.43190       -3.20740       -2.38170
C         -3.32560       -2.54880       -1.88570
C         -0.31510       -2.99930       -2.08650
S         -1.02940       -4.50760       -2.52830
C          0.34670        0.23680       -0.35980
C          0.55190        1.46040       -0.97540
N          0.44750        1.66100       -2.34820
C          1.42860        2.40200       -3.00450
C          1.11770        3.18590       -4.11680
C          2.09490        3.93480       -4.73150
C          3.40200        3.92930       -4.24940
S          4.57540        4.92050       -5.12670
C          5.98750        5.01290       -3.98900
C          3.71890        3.14430       -3.15070
C          2.74090        2.38720       -2.53800
C         -0.67080        1.14920       -3.01760
C         -1.92740        1.16630       -2.41250
C         -3.01980        0.64360       -3.06880
C         -2.88120        0.08080       -4.33630
S         -4.33870       -0.58240       -5.08600
C         -3.67380       -1.75700       -6.30320
C         -1.63410        0.07120       -4.94580
C         -0.54140        0.60220       -4.29040
C          0.81320        2.48230       -0.03770
S          1.12200        4.17200       -0.16880
C          1.29170        4.28550        1.57150
C          1.06170        3.07980        2.21700
N          1.05630        2.89100        3.59320
C          1.53450        1.68440        4.11880
C          0.98690        1.16020        5.29090
C          1.46080       -0.02100        5.81100
C          2.46370       -0.73290        5.15570
S          2.94290       -2.26750        5.88950
C          4.11150       -2.97680        4.69560
C          3.01820       -0.21470        3.99580
C          2.56720        0.99100        3.49370
C          0.63510        3.91140        4.45620
C          1.32340        4.15320        5.64390
C          0.96580        5.20070        6.46780
C         -0.07920        6.03890        6.10780
S         -0.58190        7.42660        7.08420
C          0.91470        7.82390        8.03720
C         -0.79800        5.78300        4.94350
C         -0.44960        4.72700        4.13080
C          0.79210        2.05090        1.27870
S          0.40330        0.36340        1.39370
C          1.58290        5.55550        2.20180
C          0.90660        6.72900        1.85360
F          0.06960        6.71440        0.79880
C          1.00800        7.88730        2.58850
C          1.84270        7.92070        3.70680
C          2.65820        6.81020        3.96330
C          2.51510        5.64980        3.24220
C          1.89500        9.03090        4.62550
C          0.85630        9.78170        5.06370
C         -0.59530        9.50860        4.84270
O         -1.10860        8.78270        4.02130
C         -1.30210       10.30440        5.86310
C         -2.67170       10.29040        6.11950
C         -3.05600       11.11450        7.14830
C         -2.14550       11.89340        7.87770
C         -0.79390       11.91660        7.63690
C         -0.38100       11.08850        6.58590
C          0.95340       10.84270        6.05960
C          2.09080       11.52600        6.39760
C          2.14300       12.56600        7.34970
N          2.25890       13.41200        8.11690
C          3.36400       11.31380        5.82640
N          4.42860       11.20930        5.40840
C         -3.22330       12.46720        8.76330
C         -3.67650       13.90910        8.45140
C         -5.02280       14.01960        9.13000
C         -5.88450       13.28430        8.43890
C         -5.13530       12.66470        7.28150
C         -4.12720       13.78380        6.99030
C         -4.23750       11.60120        7.94910
H          0.97730       -5.65490       -5.47080
H         -3.64020       -9.06280       -2.92780
H         -1.08770      -10.47610       -7.06790
H         -3.86240      -12.43700       -6.65070
H         -1.71770      -13.81980       -5.88620
H         -3.82430      -15.37980       -5.70180
H         -5.18850      -14.67460       -3.53410
H         -3.92160      -12.68120       -2.38300
H         -1.79920      -14.00550       -3.24680
H         -1.60080      -12.29160       -3.67940
H         -5.19900      -11.74520       -4.52660
H          2.62860       -5.78450       -2.90900
H          3.90750       -7.80750       -3.43570
H          6.28250       -8.12860       -6.09890
H          5.41060       -9.01450       -4.83840
H          4.76450       -8.93140       -6.47980
H          5.00520       -6.14190       -7.20640
H          3.70450       -4.12600       -6.69920
H          1.04850       -1.67290       -5.68140
H          2.04830        0.46640       -6.41390
H          3.86680        2.05000       -6.30270
H          5.11650        1.11230       -7.12050
H          5.36370        1.63390       -5.45840
H          5.82010       -0.76890       -4.86510
H          4.83610       -2.90780       -4.15540
H          0.55820       -2.86710        1.18970
H          0.78890       -2.84340        3.63910
H         -1.83430       -2.86000        5.88390
H         -0.10620       -2.50270        5.80640
H         -1.28680       -1.18840        5.92250
H         -3.18190       -1.34230        4.00770
H         -3.42210       -1.36780        1.55750
H         -3.00970       -4.18320        1.05490
H         -4.97740       -5.34020        0.16560
H         -5.86580       -5.82980       -2.78050
H         -6.78960       -4.33210       -2.89360
H         -6.87060       -5.31940       -1.42480
H         -4.82780       -2.92380       -3.34570
H         -2.85450       -1.76380       -2.45700
H          0.10310        3.21670       -4.48360
H          1.85420        4.54740       -5.58710
H          6.49550        4.05410       -3.93580
H          6.65610        5.75750       -4.40950
H          5.64450        5.33210       -3.00950
H          4.72500        3.10520       -2.76510
H          2.99820        1.76600       -1.69280
H         -2.04300        1.59100       -1.42670
H         -3.99420        0.65970       -2.60510
H         -2.94250       -2.40080       -5.82310
H         -4.52190       -2.34540       -6.63940
H         -3.24130       -1.22800       -7.14770
H         -1.50190       -0.34860       -5.93060
H          0.43080        0.58870       -4.75570
H          0.18800        1.68870        5.78870
H          1.05290       -0.41430        6.72880
H          3.63810       -3.06410        3.72190
H          4.35690       -3.96300        5.07750
H          5.01000       -2.36850        4.64460
H          3.81120       -0.72760        3.47600
H          3.02860        1.39860        2.60640
H          2.15590        3.52160        5.91710
H          1.51830        5.36160        7.37970
H          1.05400        7.10910        8.84280
H          1.77300        7.83760        7.37160
H          0.74720        8.81260        8.45440
H         -1.61700        6.43050        4.67400
H         -1.00970        4.53750        3.22780
H          0.43200        8.74660        2.29140
H          3.36960        6.85050        4.77510
H          3.12230        4.78890        3.47630
H          2.86620        9.19500        5.07930
H         -3.33530        9.66600        5.54300
H         -0.10350       12.50960        8.21360
H         -3.11300       12.27650        9.82910
H         -2.94470       14.67700        8.68660
H         -5.19160       14.55830       10.04390
H         -6.91680       13.08610        8.66040
H         -5.73310       12.29930        6.45090
H         -4.61120       14.69010        6.63010
H         -3.33280       13.49780        6.30350
H         -4.80400       10.83240        8.47110
