252

C         -2.70070        7.86800        2.02530
C         -1.68440        8.80090        1.99570
C         -0.46420        8.66080        1.18770
O         -0.14770        7.72480        0.47480
C          0.24920        9.95000        1.31230
C          1.45930       10.30050        0.72210
C          1.88920       11.56820        1.03710
C          1.15830       12.43210        1.86030
C         -0.04360       12.10130        2.44150
C         -0.48690       10.81010        2.14890
C         -1.67980       10.09870        2.60550
C         -2.54860       10.52740        3.58120
C         -3.60260        9.74710        4.09430
N         -4.46070        9.15920        4.58290
C         -2.44500       11.75710        4.25430
N         -2.40000       12.73610        4.85550
C          2.18400       13.53400        1.75280
C          3.11240       13.72640        2.97030
C          4.28530       14.50070        2.41440
C          4.98160       13.67790        1.64060
C          4.29050       12.33370        1.66020
C          3.74860       12.33620        3.09540
C          3.00380       12.56670        0.83990
C         -2.56170        6.50690        1.75520
C         -1.43700        5.65500        1.82040
N         -0.24980        5.92120        2.43080
C          0.89030        5.13700        2.13730
C          1.60890        4.56370        3.18160
C          2.74310        3.82660        2.91020
C          3.18730        3.64710        1.60350
C          4.44930        2.88660        1.34160
C          2.45730        4.22040        0.57030
C          1.31940        4.96350        0.82710
C         -0.08170        6.93150        3.39140
C         -1.03470        7.16780        4.38070
C         -0.85320        8.19140        5.28670
C          0.27530        9.00700        5.23950
C          0.42460       10.15210        6.19060
C          1.24210        8.73290        4.28190
C          1.07420        7.70840        3.36960
C         -1.75980        4.38360        1.29020
S         -0.86510        2.93110        1.02000
C         -2.30430        2.11470        0.40120
C         -3.42790        2.91870        0.48070
N         -4.72160        2.54160        0.13910
C         -5.27850        1.40620        0.74560
C         -6.25270        0.66080        0.08720
C         -6.83540       -0.42480        0.70880
C         -6.45000       -0.81510        1.98490
C         -7.07940       -1.99400        2.65990
C         -5.46460       -0.07840        2.62930
C         -4.88860        1.02240        2.02760
C         -5.53770        3.49140       -0.49380
C         -6.89440        3.60910       -0.19760
C         -7.66300        4.56380       -0.83110
C         -7.10980        5.44230       -1.75670
C         -7.95710        6.48960       -2.41210
C         -5.75490        5.33050       -2.03480
C         -4.97910        4.36460       -1.42430
C         -3.09360        4.21440        0.95050
S         -4.01750        5.64060        1.23690
C         -2.06730        0.78420       -0.06920
C         -0.90600        0.45030       -0.75720
N         -0.15450        1.38540       -1.45570
C          1.21870        1.21100       -1.63500
C          1.99440        0.71000       -0.59160
C          3.34130        0.48800       -0.77160
C          3.95000        0.79480       -1.98390
S          5.69560        0.53170       -2.09120
C          5.97710        0.37660       -3.88060
C          3.18910        1.32460       -3.01710
C          1.83230        1.51680       -2.84830
C         -0.83500        2.37660       -2.18580
C         -2.02580        2.09180       -2.84640
C         -2.68080        3.06620       -3.57360
C         -2.15720        4.35040       -3.64650
S         -2.91940        5.67580       -4.52930
C         -4.27230        4.87330       -5.43820
C         -0.96910        4.64330       -2.97870
C         -0.31320        3.66740       -2.26230
C         -0.71150       -0.94790       -0.77990
S          0.61310       -1.97080       -1.16900
C         -0.28530       -3.39780       -0.60910
C         -1.59140       -3.08300       -0.27010
N         -2.62900       -3.94250        0.02500
C         -2.44460       -5.30910        0.35750
C         -2.05270       -5.69890        1.63260
C         -2.02630       -7.03670        1.96840
C         -2.41260       -8.00300        1.04390
S         -2.48420       -9.67410        1.59960
C         -3.60950      -10.43810        0.39630
C         -2.76710       -7.61970       -0.24280
C         -2.78760       -6.28130       -0.57670
C         -3.93450       -3.63100       -0.39310
C         -4.19820       -2.84580       -1.51160
C         -5.49610       -2.60100       -1.91690
C         -6.55840       -3.15790       -1.22240
S         -8.25670       -2.94620       -1.66570
C         -8.21310       -1.66690       -2.95280
C         -6.30270       -3.95810       -0.11160
C         -5.01110       -4.18460        0.30270
C         -1.77750       -1.67160       -0.27590
S         -3.02030       -0.63400        0.34510
C          0.55380       -4.55140       -0.44700
C          1.80520       -4.47440        0.15580
N          2.30500       -3.41510        0.90100
C          1.49990       -2.62170        1.71740
C          0.30490       -3.11900        2.23410
C         -0.56910       -2.29120        2.90790
C         -0.27400       -0.94900        3.11550
C         -1.26170       -0.04160        3.78270
C          0.96650       -0.48620        2.69840
C          1.84590       -1.30500        2.01590
C          3.66120       -3.08400        0.68860
C          4.15370       -2.99320       -0.61010
C          5.48270       -2.69660       -0.82630
C          6.34730       -2.46760        0.23790
C          7.78060       -2.12280       -0.02140
C          5.84420       -2.55130        1.52890
C          4.51780       -2.86240        1.75960
C          2.56520       -5.64200       -0.08320
S          4.21170       -6.04980        0.22030
C          4.00270       -7.56050       -0.65120
C          2.69530       -7.70680       -1.15730
N          2.28900       -8.78210       -1.94460
C          3.02910       -9.06760       -3.10150
C          3.54090       -8.01540       -3.85830
C          4.29720       -8.26930       -4.98500
C          4.55930       -9.56970       -5.39630
C          5.39640       -9.84800       -6.60690
C          4.04250      -10.61450       -4.63840
C          3.29270      -10.37570       -3.50480
C          1.33820       -9.67790       -1.44270
C          0.52070      -10.40570       -2.30450
C         -0.31170      -11.38820       -1.80540
C         -0.36550      -11.66190       -0.44380
C         -1.17340      -12.80590        0.08850
C          0.38910      -10.87210        0.41580
C          1.22860       -9.89070       -0.06980
C          1.89090       -6.61310       -0.81880
S          0.27450       -6.11430       -1.20900
C          4.99750       -8.53660       -0.80800
C          6.30340       -8.52790       -0.40880
S          7.34600       -9.90660       -0.72390
C          8.72690       -9.10080        0.00070
S         10.21990       -9.75150        0.11910
N          8.36540       -7.87200        0.44690
C          9.30880       -6.96310        1.06710
C         10.06330       -6.15590        0.01840
C          7.04970       -7.48310        0.25500
O          6.63830       -6.39420        0.61740
H         -3.70970        8.20700        2.22690
H          1.98830        9.60830        0.08550
H         -0.60270       12.78020        3.06370
H          1.83280       14.47390        1.33140
H          2.62750       14.13690        3.85190
H          4.45060       15.54760        2.58960
H          5.84440       13.90030        1.04020
H          4.88080       11.47570        1.34890
H          3.03280       11.54170        3.29860
H          4.54530       12.31150        3.83740
H          3.20280       12.86420       -0.18810
H          1.27450        4.70470        4.19940
H          3.29900        3.38500        3.72480
H          5.30700        3.45410        1.70300
H          4.58330        2.69880        0.28020
H          4.43930        1.93410        1.86770
H          2.79700        4.09420       -0.44810
H          0.77220        5.45180        0.03560
H         -1.92000        6.55230        4.43550
H         -1.60560        8.36810        6.04140
H          1.43910       10.54230        6.17570
H          0.17690        9.84530        7.20480
H         -0.25570       10.95920        5.91580
H          2.13760        9.33600        4.23830
H          1.83020        7.51280        2.62400
H         -6.55660        0.95380       -0.90740
H         -7.61090       -0.97740        0.20120
H         -7.92780       -2.35990        2.08820
H         -7.41750       -1.72670        3.65990
H         -6.35370       -2.80110        2.75580
H         -5.15650       -0.36000        3.62630
H         -4.14590        1.60300        2.55550
H         -7.34150        2.96170        0.54170
H         -8.71290        4.64240       -0.58750
H         -8.28660        7.22110       -1.67470
H         -8.84590        6.04340       -2.85630
H         -7.40100        7.01100       -3.18730
H         -5.29200        6.01480       -2.73100
H         -3.92760        4.29010       -1.65750
H          1.52290        0.50210        0.35430
H          3.94740        0.07770        0.02100
H          5.92870        1.35010       -4.36010
H          6.97570       -0.03450       -3.99160
H          5.24340       -0.30460       -4.30060
H          3.63990        1.58290       -3.96240
H          1.24380        1.90680       -3.66560
H         -2.44340        1.09700       -2.79650
H         -3.60080        2.81050       -4.07400
H         -5.01890        4.49450       -4.74530
H         -3.87450        4.08160       -6.06630
H         -4.70670        5.65150       -6.05830
H         -0.57360        5.64630       -3.02440
H          0.61040        3.89090       -1.75280
H         -1.82280       -4.95180        2.37470
H         -1.74510       -7.34450        2.96400
H         -4.47880       -9.80120        0.26400
H         -3.90930      -11.38800        0.82690
H         -3.09240      -10.60530       -0.54400
H         -3.03030       -8.35110       -0.98910
H         -3.08620       -5.97880       -1.56950
H         -3.38310       -2.43990       -2.09190
H         -5.65850       -1.99180       -2.79140
H         -7.69090       -0.79070       -2.58030
H         -9.25070       -1.42130       -3.15740
H         -7.74370       -2.05510       -3.85220
H         -7.13150       -4.39900        0.42040
H         -4.82280       -4.80500        1.16600
H          0.07530       -4.16270        2.08970
H         -1.50840       -2.68630        3.27000
H         -2.25920       -0.20490        3.37730
H         -0.98720        1.00040        3.63340
H         -1.29820       -0.23750        4.85490
H          1.24130        0.54330        2.88640
H          2.79720       -0.91880        1.68810
H          3.48300       -3.15330       -1.44260
H          5.85830       -2.63400       -1.83690
H          8.24210       -2.87420       -0.65970
H          7.84300       -1.16260       -0.53390
H          8.34250       -2.06030        0.90660
H          6.50140       -2.38290        2.36990
H          4.13950       -2.94020        2.76850
H          3.34140       -6.99800       -3.55550
H          4.68580       -7.43970       -5.55790
H          6.40730      -10.12530       -6.30610
H          5.46050       -8.97070       -7.24590
H          4.98200      -10.67390       -7.18150
H          4.24200      -11.63440       -4.93380
H          2.92010      -11.20340       -2.91940
H          0.56140      -10.21290       -3.36630
H         -0.91890      -11.96380       -2.49060
H         -1.98350      -13.06800       -0.58840
H         -1.58290      -12.56660        1.06710
H         -0.53410      -13.68260        0.20060
H          0.33640      -11.04530        1.48010
H          1.83260       -9.30850        0.61090
H          4.67740       -9.43500       -1.32260
H          8.72250       -6.29960        1.70760
H         10.00310       -7.55460        1.66800
H         10.74860       -5.47100        0.50900
H          9.36370       -5.58190       -0.58500
H         10.63380       -6.81830       -0.62840
