
  xtb     02162201233D
 energy: -388.992992076821 gnorm: 0.000622696853 xtb: 6.4.1 (unknown)
244266  0     0  0            999 V2000
    6.9218   -2.5232    2.6987 C   0  0  0  0  0  0  0  0  0  0  0  0
    7.3906   -2.9925    3.8949 C   0  0  0  0  0  0  0  0  0  0  0  0
    8.7889   -2.6790    4.2744 C   0  0  0  0  0  0  0  0  0  0  0  0
    9.6901   -2.3406    3.5365 O   0  0  0  0  0  0  0  0  0  0  0  0
    8.8180   -2.7786    5.7497 C   0  0  0  0  0  0  0  0  0  0  0  0
    9.8646   -2.4335    6.6010 C   0  0  0  0  0  0  0  0  0  0  0  0
    9.5744   -2.5822    7.9365 C   0  0  0  0  0  0  0  0  0  0  0  0
    8.3299   -3.0297    8.3986 C   0  0  0  0  0  0  0  0  0  0  0  0
    7.2908   -3.3844    7.5711 C   0  0  0  0  0  0  0  0  0  0  0  0
    7.5717   -3.2523    6.2106 C   0  0  0  0  0  0  0  0  0  0  0  0
    6.7429   -3.5659    5.0484 C   0  0  0  0  0  0  0  0  0  0  0  0
    5.7132   -4.4740    5.0299 C   0  0  0  0  0  0  0  0  0  0  0  0
    5.1305   -5.0292    6.1817 C   0  0  0  0  0  0  0  0  0  0  0  0
    4.6049   -5.4875    7.0952 N   0  0  0  0  0  0  0  0  0  0  0  0
    5.2052   -5.0119    3.8288 C   0  0  0  0  0  0  0  0  0  0  0  0
    4.8301   -5.5217    2.8703 N   0  0  0  0  0  0  0  0  0  0  0  0
    8.7386   -2.9205    9.8466 C   0  0  0  0  0  0  0  0  0  0  0  0
    9.0886   -4.2287   10.5970 C   0  0  0  0  0  0  0  0  0  0  0  0
    9.5563   -5.2089    9.5498 C   0  0  0  0  0  0  0  0  0  0  0  0
   10.7375   -4.7968    9.1094 C   0  0  0  0  0  0  0  0  0  0  0  0
   11.0897   -3.5309    9.8506 C   0  0  0  0  0  0  0  0  0  0  0  0
   10.4379   -3.8237   11.2115 C   0  0  0  0  0  0  0  0  0  0  0  0
   10.1292   -2.4323    9.3313 C   0  0  0  0  0  0  0  0  0  0  0  0
    5.6070   -2.2128    2.3200 C   0  0  0  0  0  0  0  0  0  0  0  0
    5.1678   -1.6876    1.0909 C   0  0  0  0  0  0  0  0  0  0  0  0
    5.9342   -1.4404   -0.0159 N   0  0  0  0  0  0  0  0  0  0  0  0
    7.2500   -0.9518    0.0768 C   0  0  0  0  0  0  0  0  0  0  0  0
    8.2426   -1.4520   -0.7593 C   0  0  0  0  0  0  0  0  0  0  0  0
    9.5374   -0.9840   -0.6480 C   0  0  0  0  0  0  0  0  0  0  0  0
    9.8732   -0.0159    0.2903 C   0  0  0  0  0  0  0  0  0  0  0  0
   11.2876    0.4427    0.4527 C   0  0  0  0  0  0  0  0  0  0  0  0
    8.8671    0.4970    1.1023 C   0  0  0  0  0  0  0  0  0  0  0  0
    7.5683    0.0446    0.9972 C   0  0  0  0  0  0  0  0  0  0  0  0
    5.3628   -1.6315   -1.2886 C   0  0  0  0  0  0  0  0  0  0  0  0
    4.5643   -2.7465   -1.5326 C   0  0  0  0  0  0  0  0  0  0  0  0
    3.9831   -2.9215   -2.7717 C   0  0  0  0  0  0  0  0  0  0  0  0
    4.1904   -2.0062   -3.7976 C   0  0  0  0  0  0  0  0  0  0  0  0
    3.5275   -2.1902   -5.1264 C   0  0  0  0  0  0  0  0  0  0  0  0
    5.0098   -0.9111   -3.5506 C   0  0  0  0  0  0  0  0  0  0  0  0
    5.5908   -0.7182   -2.3126 C   0  0  0  0  0  0  0  0  0  0  0  0
    3.7683   -1.4653    1.1132 C   0  0  0  0  0  0  0  0  0  0  0  0
    2.6329   -0.8307   -0.0240 S   0  0  0  0  0  0  0  0  0  0  0  0
    1.3159   -1.0572    1.1300 C   0  0  0  0  0  0  0  0  0  0  0  0
    1.7400   -1.6254    2.3119 C   0  0  0  0  0  0  0  0  0  0  0  0
    0.9209   -2.0687    3.3361 N   0  0  0  0  0  0  0  0  0  0  0  0
    1.4758   -2.1674    4.6256 C   0  0  0  0  0  0  0  0  0  0  0  0
    2.2636   -1.1305    5.1182 C   0  0  0  0  0  0  0  0  0  0  0  0
    2.8588   -1.2343    6.3619 C   0  0  0  0  0  0  0  0  0  0  0  0
    2.6858   -2.3666    7.1450 C   0  0  0  0  0  0  0  0  0  0  0  0
    3.3324   -2.4936    8.4891 C   0  0  0  0  0  0  0  0  0  0  0  0
    1.8882   -3.3943    6.6505 C   0  0  0  0  0  0  0  0  0  0  0  0
    1.2917   -3.3043    5.4097 C   0  0  0  0  0  0  0  0  0  0  0  0
   -0.2454   -2.7920    3.0298 C   0  0  0  0  0  0  0  0  0  0  0  0
   -0.3328   -3.5792    1.8854 C   0  0  0  0  0  0  0  0  0  0  0  0
   -1.4752   -4.3114    1.6276 C   0  0  0  0  0  0  0  0  0  0  0  0
   -2.5519   -4.2941    2.5034 C   0  0  0  0  0  0  0  0  0  0  0  0
   -3.7591   -5.1435    2.2514 C   0  0  0  0  0  0  0  0  0  0  0  0
   -2.4594   -3.5060    3.6445 C   0  0  0  0  0  0  0  0  0  0  0  0
   -1.3263   -2.7636    3.9072 C   0  0  0  0  0  0  0  0  0  0  0  0
    3.1512   -1.7940    2.3065 C   0  0  0  0  0  0  0  0  0  0  0  0
    4.2829   -2.3414    3.4793 S   0  0  0  0  0  0  0  0  0  0  0  0
    0.0099   -0.6512    0.6593 C   0  0  0  0  0  0  0  0  0  0  0  0
   -0.5445    0.6037    0.7832 C   0  0  0  0  0  0  0  0  0  0  0  0
   -0.0193    1.6387    1.5584 N   0  0  0  0  0  0  0  0  0  0  0  0
    0.1928    2.8695    0.9273 C   0  0  0  0  0  0  0  0  0  0  0  0
    0.0083    4.0733    1.6046 C   0  0  0  0  0  0  0  0  0  0  0  0
    0.2524    5.2792    0.9789 C   0  0  0  0  0  0  0  0  0  0  0  0
    0.6704    5.3069   -0.3446 C   0  0  0  0  0  0  0  0  0  0  0  0
    1.0280    6.8042   -1.2155 S   0  0  0  0  0  0  0  0  0  0  0  0
    1.4781    7.9499    0.1239 C   0  0  0  0  0  0  0  0  0  0  0  0
    0.8124    4.1111   -1.0407 C   0  0  0  0  0  0  0  0  0  0  0  0
    0.5850    2.9066   -0.4125 C   0  0  0  0  0  0  0  0  0  0  0  0
    0.1437    1.4835    2.9369 C   0  0  0  0  0  0  0  0  0  0  0  0
    1.1604    2.1624    3.6127 C   0  0  0  0  0  0  0  0  0  0  0  0
    1.2806    2.0566    4.9801 C   0  0  0  0  0  0  0  0  0  0  0  0
    0.4000    1.2588    5.7083 C   0  0  0  0  0  0  0  0  0  0  0  0
    0.6364    1.1869    7.4570 S   0  0  0  0  0  0  0  0  0  0  0  0
   -0.2731   -0.3062    7.9433 C   0  0  0  0  0  0  0  0  0  0  0  0
   -0.6024    0.5726    5.0397 C   0  0  0  0  0  0  0  0  0  0  0  0
   -0.7242    0.6767    3.6677 C   0  0  0  0  0  0  0  0  0  0  0  0
   -1.6678    0.7587   -0.0663 C   0  0  0  0  0  0  0  0  0  0  0  0
   -2.7080    2.0749   -0.4753 S   0  0  0  0  0  0  0  0  0  0  0  0
   -3.4869    1.1093   -1.7239 C   0  0  0  0  0  0  0  0  0  0  0  0
   -2.9921   -0.1771   -1.7715 C   0  0  0  0  0  0  0  0  0  0  0  0
   -3.3354   -1.1568   -2.7269 N   0  0  0  0  0  0  0  0  0  0  0  0
   -4.1471   -2.2234   -2.3347 C   0  0  0  0  0  0  0  0  0  0  0  0
   -4.6967   -3.0722   -3.2992 C   0  0  0  0  0  0  0  0  0  0  0  0
   -5.5120   -4.1159   -2.9282 C   0  0  0  0  0  0  0  0  0  0  0  0
   -5.8239   -4.3312   -1.5877 C   0  0  0  0  0  0  0  0  0  0  0  0
   -6.8920   -5.6968   -1.2392 S   0  0  0  0  0  0  0  0  0  0  0  0
   -7.3026   -5.4966    0.5184 C   0  0  0  0  0  0  0  0  0  0  0  0
   -5.3071   -3.4758   -0.6283 C   0  0  0  0  0  0  0  0  0  0  0  0
   -4.4760   -2.4361   -0.9988 C   0  0  0  0  0  0  0  0  0  0  0  0
   -2.4122   -1.2845   -3.7807 C   0  0  0  0  0  0  0  0  0  0  0  0
   -1.9710   -0.1406   -4.4497 C   0  0  0  0  0  0  0  0  0  0  0  0
   -1.0753   -0.2401   -5.4914 C   0  0  0  0  0  0  0  0  0  0  0  0
   -0.5901   -1.4823   -5.8918 C   0  0  0  0  0  0  0  0  0  0  0  0
    0.5438   -1.4904   -7.2491 S   0  0  0  0  0  0  0  0  0  0  0  0
    0.7208   -3.2512   -7.6539 C   0  0  0  0  0  0  0  0  0  0  0  0
   -0.9954   -2.6195   -5.2077 C   0  0  0  0  0  0  0  0  0  0  0  0
   -1.8908   -2.5184   -4.1608 C   0  0  0  0  0  0  0  0  0  0  0  0
   -1.9514   -0.3598   -0.8303 C   0  0  0  0  0  0  0  0  0  0  0  0
   -0.8652   -1.6563   -0.4910 S   0  0  0  0  0  0  0  0  0  0  0  0
   -4.3251    1.8037   -2.6536 C   0  0  0  0  0  0  0  0  0  0  0  0
   -5.3771    1.3821   -3.4509 C   0  0  0  0  0  0  0  0  0  0  0  0
   -6.0714    0.1812   -3.3893 N   0  0  0  0  0  0  0  0  0  0  0  0
   -6.4880   -0.2938   -4.6576 C   0  0  0  0  0  0  0  0  0  0  0  0
   -7.8301   -0.4613   -4.9859 C   0  0  0  0  0  0  0  0  0  0  0  0
   -8.1842   -0.8610   -6.2591 C   0  0  0  0  0  0  0  0  0  0  0  0
   -7.2220   -1.0881   -7.2368 C   0  0  0  0  0  0  0  0  0  0  0  0
   -7.6252   -1.4653   -8.6276 C   0  0  0  0  0  0  0  0  0  0  0  0
   -5.8856   -0.9136   -6.9004 C   0  0  0  0  0  0  0  0  0  0  0  0
   -5.5175   -0.5212   -5.6282 C   0  0  0  0  0  0  0  0  0  0  0  0
   -6.6616   -0.2850   -2.2126 C   0  0  0  0  0  0  0  0  0  0  0  0
   -6.5946    0.4338   -1.0195 C   0  0  0  0  0  0  0  0  0  0  0  0
   -7.2072   -0.0416    0.1222 C   0  0  0  0  0  0  0  0  0  0  0  0
   -7.9241   -1.2311    0.1189 C   0  0  0  0  0  0  0  0  0  0  0  0
   -8.5910   -1.7246    1.3681 C   0  0  0  0  0  0  0  0  0  0  0  0
   -7.9921   -1.9408   -1.0718 C   0  0  0  0  0  0  0  0  0  0  0  0
   -7.3656   -1.4885   -2.2150 C   0  0  0  0  0  0  0  0  0  0  0  0
   -5.7418    2.4049   -4.3677 C   0  0  0  0  0  0  0  0  0  0  0  0
   -6.8767    2.4802   -5.6671 S   0  0  0  0  0  0  0  0  0  0  0  0
   -6.4410    4.1670   -5.9671 C   0  0  0  0  0  0  0  0  0  0  0  0
   -5.4039    4.6123   -5.1357 C   0  0  0  0  0  0  0  0  0  0  0  0
   -4.7196    5.7924   -5.2349 N   0  0  0  0  0  0  0  0  0  0  0  0
   -4.5544    6.4618   -6.4585 C   0  0  0  0  0  0  0  0  0  0  0  0
   -4.5713    7.8541   -6.5029 C   0  0  0  0  0  0  0  0  0  0  0  0
   -4.4605    8.5095   -7.7133 C   0  0  0  0  0  0  0  0  0  0  0  0
   -4.3319    7.8052   -8.9045 C   0  0  0  0  0  0  0  0  0  0  0  0
   -4.2930    8.5166  -10.2188 C   0  0  0  0  0  0  0  0  0  0  0  0
   -4.2701    6.4165   -8.8452 C   0  0  0  0  0  0  0  0  0  0  0  0
   -4.3716    5.7492   -7.6421 C   0  0  0  0  0  0  0  0  0  0  0  0
   -4.1323    6.3225   -4.0663 C   0  0  0  0  0  0  0  0  0  0  0  0
   -4.8670    6.3668   -2.8853 C   0  0  0  0  0  0  0  0  0  0  0  0
   -4.2895    6.8655   -1.7359 C   0  0  0  0  0  0  0  0  0  0  0  0
   -2.9798    7.3304   -1.7376 C   0  0  0  0  0  0  0  0  0  0  0  0
   -2.3549    7.8402   -0.4773 C   0  0  0  0  0  0  0  0  0  0  0  0
   -2.2605    7.2944   -2.9263 C   0  0  0  0  0  0  0  0  0  0  0  0
   -2.8258    6.7967   -4.0838 C   0  0  0  0  0  0  0  0  0  0  0  0
   -5.0430    3.5912   -4.2219 C   0  0  0  0  0  0  0  0  0  0  0  0
   -3.8675    3.4787   -2.9628 S   0  0  0  0  0  0  0  0  0  0  0  0
   -7.1535    4.8709   -6.9739 C   0  0  0  0  0  0  0  0  0  0  0  0
   -7.4102    6.2317   -6.9606 C   0  0  0  0  0  0  0  0  0  0  0  0
   -7.2697    6.9990   -5.7926 C   0  0  0  0  0  0  0  0  0  0  0  0
   -7.2468    7.5870   -4.8058 N   0  0  0  0  0  0  0  0  0  0  0  0
   -7.9199    6.8998   -8.0867 C   0  0  0  0  0  0  0  0  0  0  0  0
   -8.2894    7.4710   -9.0112 N   0  0  0  0  0  0  0  0  0  0  0  0
   -7.6457    4.1046   -8.0576 C   0  0  0  0  0  0  0  0  0  0  0  0
   -8.0197    3.4614   -8.9296 N   0  0  0  0  0  0  0  0  0  0  0  0
    7.7029   -2.2437    2.0009 H   0  0  0  0  0  0  0  0  0  0  0  0
   10.8066   -2.0831    6.2090 H   0  0  0  0  0  0  0  0  0  0  0  0
    6.3324   -3.7216    7.9301 H   0  0  0  0  0  0  0  0  0  0  0  0
    8.1534   -2.2350   10.4569 H   0  0  0  0  0  0  0  0  0  0  0  0
    8.3153   -4.5821   11.2739 H   0  0  0  0  0  0  0  0  0  0  0  0
    8.9712   -6.0415    9.2057 H   0  0  0  0  0  0  0  0  0  0  0  0
   11.3373   -5.2172    8.3235 H   0  0  0  0  0  0  0  0  0  0  0  0
   12.1397   -3.2498    9.8488 H   0  0  0  0  0  0  0  0  0  0  0  0
   10.3750   -2.9502   11.8593 H   0  0  0  0  0  0  0  0  0  0  0  0
   10.9215   -4.6418   11.7431 H   0  0  0  0  0  0  0  0  0  0  0  0
   10.4549   -1.4321    9.6118 H   0  0  0  0  0  0  0  0  0  0  0  0
    7.9947   -2.2167   -1.4806 H   0  0  0  0  0  0  0  0  0  0  0  0
   10.3034   -1.3910   -1.2916 H   0  0  0  0  0  0  0  0  0  0  0  0
   11.8639    0.2644   -0.4517 H   0  0  0  0  0  0  0  0  0  0  0  0
   11.3283    1.5016    0.6986 H   0  0  0  0  0  0  0  0  0  0  0  0
   11.7532   -0.1103    1.2689 H   0  0  0  0  0  0  0  0  0  0  0  0
    9.1065    1.2596    1.8286 H   0  0  0  0  0  0  0  0  0  0  0  0
    6.7941    0.4459    1.6354 H   0  0  0  0  0  0  0  0  0  0  0  0
    4.4090   -3.4738   -0.7488 H   0  0  0  0  0  0  0  0  0  0  0  0
    3.3620   -3.7879   -2.9466 H   0  0  0  0  0  0  0  0  0  0  0  0
    4.0737   -1.6762   -5.9131 H   0  0  0  0  0  0  0  0  0  0  0  0
    3.4558   -3.2465   -5.3774 H   0  0  0  0  0  0  0  0  0  0  0  0
    2.5183   -1.7782   -5.0952 H   0  0  0  0  0  0  0  0  0  0  0  0
    5.1881   -0.1918   -4.3365 H   0  0  0  0  0  0  0  0  0  0  0  0
    6.2171    0.1425   -2.1297 H   0  0  0  0  0  0  0  0  0  0  0  0
    2.4135   -0.2470    4.5167 H   0  0  0  0  0  0  0  0  0  0  0  0
    3.4689   -0.4195    6.7229 H   0  0  0  0  0  0  0  0  0  0  0  0
    4.1478   -1.7820    8.5963 H   0  0  0  0  0  0  0  0  0  0  0  0
    3.7150   -3.5032    8.6254 H   0  0  0  0  0  0  0  0  0  0  0  0
    2.6055   -2.3015    9.2789 H   0  0  0  0  0  0  0  0  0  0  0  0
    1.7558   -4.2907    7.2378 H   0  0  0  0  0  0  0  0  0  0  0  0
    0.7001   -4.1254    5.0332 H   0  0  0  0  0  0  0  0  0  0  0  0
    0.5055   -3.6379    1.2071 H   0  0  0  0  0  0  0  0  0  0  0  0
   -1.5225   -4.9179    0.7351 H   0  0  0  0  0  0  0  0  0  0  0  0
   -3.8874   -5.3195    1.1857 H   0  0  0  0  0  0  0  0  0  0  0  0
   -3.6406   -6.1107    2.7425 H   0  0  0  0  0  0  0  0  0  0  0  0
   -4.6536   -4.6722    2.6552 H   0  0  0  0  0  0  0  0  0  0  0  0
   -3.2849   -3.4777    4.3419 H   0  0  0  0  0  0  0  0  0  0  0  0
   -1.2597   -2.1720    4.8067 H   0  0  0  0  0  0  0  0  0  0  0  0
   -0.3311    4.0656    2.6294 H   0  0  0  0  0  0  0  0  0  0  0  0
    0.1074    6.1926    1.5344 H   0  0  0  0  0  0  0  0  0  0  0  0
    1.9550    8.7976   -0.3580 H   0  0  0  0  0  0  0  0  0  0  0  0
    2.1780    7.4607    0.7941 H   0  0  0  0  0  0  0  0  0  0  0  0
    0.5933    8.2833    0.6586 H   0  0  0  0  0  0  0  0  0  0  0  0
    1.1222    4.1358   -2.0739 H   0  0  0  0  0  0  0  0  0  0  0  0
    0.7314    1.9840   -0.9548 H   0  0  0  0  0  0  0  0  0  0  0  0
    1.8558    2.7714    3.0542 H   0  0  0  0  0  0  0  0  0  0  0  0
    2.0666    2.5814    5.5013 H   0  0  0  0  0  0  0  0  0  0  0  0
   -1.3441   -0.1358    7.8800 H   0  0  0  0  0  0  0  0  0  0  0  0
    0.0043   -0.4950    8.9755 H   0  0  0  0  0  0  0  0  0  0  0  0
    0.0392   -1.1378    7.3184 H   0  0  0  0  0  0  0  0  0  0  0  0
   -1.3120   -0.0301    5.5829 H   0  0  0  0  0  0  0  0  0  0  0  0
   -1.5128    0.1416    3.1590 H   0  0  0  0  0  0  0  0  0  0  0  0
   -4.4944   -2.8978   -4.3449 H   0  0  0  0  0  0  0  0  0  0  0  0
   -5.9325   -4.7694   -3.6776 H   0  0  0  0  0  0  0  0  0  0  0  0
   -7.6694   -4.4906    0.6953 H   0  0  0  0  0  0  0  0  0  0  0  0
   -6.4353   -5.7150    1.1341 H   0  0  0  0  0  0  0  0  0  0  0  0
   -8.0864   -6.2205    0.7195 H   0  0  0  0  0  0  0  0  0  0  0  0
   -5.5416   -3.5989    0.4156 H   0  0  0  0  0  0  0  0  0  0  0  0
   -4.0902   -1.7835   -0.2307 H   0  0  0  0  0  0  0  0  0  0  0  0
   -2.3360    0.8312   -4.1536 H   0  0  0  0  0  0  0  0  0  0  0  0
   -0.7448    0.6462   -6.0112 H   0  0  0  0  0  0  0  0  0  0  0  0
    1.3230   -3.2841   -8.5563 H   0  0  0  0  0  0  0  0  0  0  0  0
   -0.2568   -3.6839   -7.8447 H   0  0  0  0  0  0  0  0  0  0  0  0
    1.2340   -3.7729   -6.8516 H   0  0  0  0  0  0  0  0  0  0  0  0
   -0.6129   -3.5932   -5.4684 H   0  0  0  0  0  0  0  0  0  0  0  0
   -2.1787   -3.4095   -3.6242 H   0  0  0  0  0  0  0  0  0  0  0  0
   -8.5919   -0.2572   -4.2482 H   0  0  0  0  0  0  0  0  0  0  0  0
   -9.2293   -0.9783   -6.5051 H   0  0  0  0  0  0  0  0  0  0  0  0
   -8.4941   -2.1194   -8.6166 H   0  0  0  0  0  0  0  0  0  0  0  0
   -7.8886   -0.5670   -9.1870 H   0  0  0  0  0  0  0  0  0  0  0  0
   -6.8115   -1.9632   -9.1491 H   0  0  0  0  0  0  0  0  0  0  0  0
   -5.1200   -1.0797   -7.6447 H   0  0  0  0  0  0  0  0  0  0  0  0
   -4.4756   -0.3755   -5.3818 H   0  0  0  0  0  0  0  0  0  0  0  0
   -6.0806    1.3812   -0.9790 H   0  0  0  0  0  0  0  0  0  0  0  0
   -7.1390    0.5361    1.0332 H   0  0  0  0  0  0  0  0  0  0  0  0
   -9.3048   -2.5138    1.1431 H   0  0  0  0  0  0  0  0  0  0  0  0
   -9.1172   -0.9133    1.8680 H   0  0  0  0  0  0  0  0  0  0  0  0
   -7.8497   -2.1159    2.0668 H   0  0  0  0  0  0  0  0  0  0  0  0
   -8.5485   -2.8661   -1.1176 H   0  0  0  0  0  0  0  0  0  0  0  0
   -7.4203   -2.0793   -3.1147 H   0  0  0  0  0  0  0  0  0  0  0  0
   -4.6955    8.4122   -5.5873 H   0  0  0  0  0  0  0  0  0  0  0  0
   -4.4945    9.5885   -7.7328 H   0  0  0  0  0  0  0  0  0  0  0  0
   -3.8842    9.5179  -10.1088 H   0  0  0  0  0  0  0  0  0  0  0  0
   -5.3068    8.6058  -10.6108 H   0  0  0  0  0  0  0  0  0  0  0  0
   -3.6993    7.9648  -10.9438 H   0  0  0  0  0  0  0  0  0  0  0  0
   -4.1440    5.8484   -9.7549 H   0  0  0  0  0  0  0  0  0  0  0  0
   -4.3118    4.6702   -7.6172 H   0  0  0  0  0  0  0  0  0  0  0  0
   -5.8927    6.0296   -2.8830 H   0  0  0  0  0  0  0  0  0  0  0  0
   -4.8680    6.9007   -0.8245 H   0  0  0  0  0  0  0  0  0  0  0  0
   -3.0941    8.3296    0.1532 H   0  0  0  0  0  0  0  0  0  0  0  0
   -1.5564    8.5422   -0.7030 H   0  0  0  0  0  0  0  0  0  0  0  0
   -1.9337    7.0035    0.0812 H   0  0  0  0  0  0  0  0  0  0  0  0
   -1.2403    7.6472   -2.9433 H   0  0  0  0  0  0  0  0  0  0  0  0
   -2.2588    6.7669   -5.0027 H   0  0  0  0  0  0  0  0  0  0  0  0
  1  2  2  0  0  0  0
  2  3  1  0  0  0  0
  3  4  2  0  0  0  0
  3  5  1  0  0  0  0
  5  6  2  0  0  0  0
  6  7  1  0  0  0  0
  7  8  2  0  0  0  0
  8  9  1  0  0  0  0
  9 10  2  0  0  0  0
 10 11  1  0  0  0  0
 11 12  2  0  0  0  0
 12 13  1  0  0  0  0
 13 14  3  0  0  0  0
 12 15  1  0  0  0  0
 15 16  3  0  0  0  0
  8 17  1  0  0  0  0
 17 18  1  0  0  0  0
 18 19  1  0  0  0  0
 19 20  2  0  0  0  0
 20 21  1  0  0  0  0
 21 22  1  0  0  0  0
 21 23  1  0  0  0  0
  1 24  1  0  0  0  0
 24 25  2  0  0  0  0
 25 26  1  0  0  0  0
 26 27  1  0  0  0  0
 27 28  2  0  0  0  0
 28 29  1  0  0  0  0
 29 30  2  0  0  0  0
 30 31  1  0  0  0  0
 30 32  1  0  0  0  0
 32 33  2  0  0  0  0
 26 34  1  0  0  0  0
 34 35  2  0  0  0  0
 35 36  1  0  0  0  0
 36 37  2  0  0  0  0
 37 38  1  0  0  0  0
 37 39  1  0  0  0  0
 39 40  2  0  0  0  0
 25 41  1  0  0  0  0
 41 42  1  0  0  0  0
 42 43  1  0  0  0  0
 43 44  2  0  0  0  0
 44 45  1  0  0  0  0
 45 46  1  0  0  0  0
 46 47  2  0  0  0  0
 47 48  1  0  0  0  0
 48 49  2  0  0  0  0
 49 50  1  0  0  0  0
 49 51  1  0  0  0  0
 51 52  2  0  0  0  0
 45 53  1  0  0  0  0
 53 54  2  0  0  0  0
 54 55  1  0  0  0  0
 55 56  2  0  0  0  0
 56 57  1  0  0  0  0
 56 58  1  0  0  0  0
 58 59  2  0  0  0  0
 44 60  1  0  0  0  0
 60 61  1  0  0  0  0
 43 62  1  0  0  0  0
 62 63  2  0  0  0  0
 63 64  1  0  0  0  0
 64 65  1  0  0  0  0
 65 66  2  0  0  0  0
 66 67  1  0  0  0  0
 67 68  2  0  0  0  0
 68 69  1  0  0  0  0
 69 70  1  0  0  0  0
 68 71  1  0  0  0  0
 71 72  2  0  0  0  0
 64 73  1  0  0  0  0
 73 74  2  0  0  0  0
 74 75  1  0  0  0  0
 75 76  2  0  0  0  0
 76 77  1  0  0  0  0
 77 78  1  0  0  0  0
 76 79  1  0  0  0  0
 79 80  2  0  0  0  0
 63 81  1  0  0  0  0
 81 82  1  0  0  0  0
 82 83  1  0  0  0  0
 83 84  2  0  0  0  0
 84 85  1  0  0  0  0
 85 86  1  0  0  0  0
 86 87  2  0  0  0  0
 87 88  1  0  0  0  0
 88 89  2  0  0  0  0
 89 90  1  0  0  0  0
 90 91  1  0  0  0  0
 89 92  1  0  0  0  0
 92 93  2  0  0  0  0
 85 94  1  0  0  0  0
 94 95  2  0  0  0  0
 95 96  1  0  0  0  0
 96 97  2  0  0  0  0
 97 98  1  0  0  0  0
 98 99  1  0  0  0  0
 97100  1  0  0  0  0
100101  2  0  0  0  0
 84102  1  0  0  0  0
102103  1  0  0  0  0
 83104  1  0  0  0  0
104105  2  0  0  0  0
105106  1  0  0  0  0
106107  1  0  0  0  0
107108  2  0  0  0  0
108109  1  0  0  0  0
109110  2  0  0  0  0
110111  1  0  0  0  0
110112  1  0  0  0  0
112113  2  0  0  0  0
106114  1  0  0  0  0
114115  2  0  0  0  0
115116  1  0  0  0  0
116117  2  0  0  0  0
117118  1  0  0  0  0
117119  1  0  0  0  0
119120  2  0  0  0  0
105121  1  0  0  0  0
121122  1  0  0  0  0
122123  1  0  0  0  0
123124  2  0  0  0  0
124125  1  0  0  0  0
125126  1  0  0  0  0
126127  2  0  0  0  0
127128  1  0  0  0  0
128129  2  0  0  0  0
129130  1  0  0  0  0
129131  1  0  0  0  0
131132  2  0  0  0  0
125133  1  0  0  0  0
133134  2  0  0  0  0
134135  1  0  0  0  0
135136  2  0  0  0  0
136137  1  0  0  0  0
136138  1  0  0  0  0
138139  2  0  0  0  0
124140  1  0  0  0  0
140141  1  0  0  0  0
123142  1  0  0  0  0
142143  2  0  0  0  0
143144  1  0  0  0  0
144145  3  0  0  0  0
143146  1  0  0  0  0
146147  3  0  0  0  0
142148  1  0  0  0  0
148149  3  0  0  0  0
 11  2  1  0  0  0  0
 23 17  1  0  0  0  0
 61 24  1  0  0  0  0
103 62  1  0  0  0  0
141104  1  0  0  0  0
 10  5  1  0  0  0  0
 22 18  1  0  0  0  0
 33 27  1  0  0  0  0
 40 34  1  0  0  0  0
 60 41  2  0  0  0  0
 72 65  1  0  0  0  0
 80 73  1  0  0  0  0
102 81  2  0  0  0  0
113107  1  0  0  0  0
120114  1  0  0  0  0
140121  2  0  0  0  0
 23  7  1  0  0  0  0
 52 46  1  0  0  0  0
 59 53  1  0  0  0  0
 93 86  1  0  0  0  0
101 94  1  0  0  0  0
132126  1  0  0  0  0
139133  1  0  0  0  0
  1150  1  0  0  0  0
  6151  1  0  0  0  0
  9152  1  0  0  0  0
 17153  1  0  0  0  0
 18154  1  0  0  0  0
 19155  1  0  0  0  0
 20156  1  0  0  0  0
 21157  1  0  0  0  0
 22158  1  0  0  0  0
 22159  1  0  0  0  0
 23160  1  0  0  0  0
 28161  1  0  0  0  0
 29162  1  0  0  0  0
 31163  1  0  0  0  0
 31164  1  0  0  0  0
 31165  1  0  0  0  0
 32166  1  0  0  0  0
 33167  1  0  0  0  0
 35168  1  0  0  0  0
 36169  1  0  0  0  0
 38170  1  0  0  0  0
 38171  1  0  0  0  0
 38172  1  0  0  0  0
 39173  1  0  0  0  0
 40174  1  0  0  0  0
 47175  1  0  0  0  0
 48176  1  0  0  0  0
 50177  1  0  0  0  0
 50178  1  0  0  0  0
 50179  1  0  0  0  0
 51180  1  0  0  0  0
 52181  1  0  0  0  0
 54182  1  0  0  0  0
 55183  1  0  0  0  0
 57184  1  0  0  0  0
 57185  1  0  0  0  0
 57186  1  0  0  0  0
 58187  1  0  0  0  0
 59188  1  0  0  0  0
 66189  1  0  0  0  0
 67190  1  0  0  0  0
 70191  1  0  0  0  0
 70192  1  0  0  0  0
 70193  1  0  0  0  0
 71194  1  0  0  0  0
 72195  1  0  0  0  0
 74196  1  0  0  0  0
 75197  1  0  0  0  0
 78198  1  0  0  0  0
 78199  1  0  0  0  0
 78200  1  0  0  0  0
 79201  1  0  0  0  0
 80202  1  0  0  0  0
 87203  1  0  0  0  0
 88204  1  0  0  0  0
 91205  1  0  0  0  0
 91206  1  0  0  0  0
 91207  1  0  0  0  0
 92208  1  0  0  0  0
 93209  1  0  0  0  0
 95210  1  0  0  0  0
 96211  1  0  0  0  0
 99212  1  0  0  0  0
 99213  1  0  0  0  0
 99214  1  0  0  0  0
100215  1  0  0  0  0
101216  1  0  0  0  0
108217  1  0  0  0  0
109218  1  0  0  0  0
111219  1  0  0  0  0
111220  1  0  0  0  0
111221  1  0  0  0  0
112222  1  0  0  0  0
113223  1  0  0  0  0
115224  1  0  0  0  0
116225  1  0  0  0  0
118226  1  0  0  0  0
118227  1  0  0  0  0
118228  1  0  0  0  0
119229  1  0  0  0  0
120230  1  0  0  0  0
127231  1  0  0  0  0
128232  1  0  0  0  0
130233  1  0  0  0  0
130234  1  0  0  0  0
130235  1  0  0  0  0
131236  1  0  0  0  0
132237  1  0  0  0  0
134238  1  0  0  0  0
135239  1  0  0  0  0
137240  1  0  0  0  0
137241  1  0  0  0  0
137242  1  0  0  0  0
138243  1  0  0  0  0
139244  1  0  0  0  0
M  END
