
  xtb     02172218063D
 energy: -332.518242767512 gnorm: 0.000483713793 xtb: 6.4.1 (unknown)
202221  0     0  0            999 V2000
    2.1054    5.7436    2.9593 C   0  0  0  0  0  0  0  0  0  0  0  0
    3.2346    5.5939    3.7282 C   0  0  0  0  0  0  0  0  0  0  0  0
    3.8509    4.3293    4.1396 C   0  0  0  0  0  0  0  0  0  0  0  0
    3.3622    3.2127    4.1103 O   0  0  0  0  0  0  0  0  0  0  0  0
    5.2112    4.6689    4.5983 C   0  0  0  0  0  0  0  0  0  0  0  0
    6.1956    3.7864    5.0338 C   0  0  0  0  0  0  0  0  0  0  0  0
    7.3763    4.3947    5.3874 C   0  0  0  0  0  0  0  0  0  0  0  0
    7.5647    5.7805    5.3125 C   0  0  0  0  0  0  0  0  0  0  0  0
    6.5997    6.6634    4.8875 C   0  0  0  0  0  0  0  0  0  0  0  0
    5.3914    6.0647    4.5233 C   0  0  0  0  0  0  0  0  0  0  0  0
    4.1474    6.6666    4.0462 C   0  0  0  0  0  0  0  0  0  0  0  0
    3.9026    8.0140    3.9349 C   0  0  0  0  0  0  0  0  0  0  0  0
    2.6453    8.5863    3.6615 C   0  0  0  0  0  0  0  0  0  0  0  0
    1.6509    9.1360    3.4868 N   0  0  0  0  0  0  0  0  0  0  0  0
    4.8735    9.0189    4.1047 C   0  0  0  0  0  0  0  0  0  0  0  0
    5.6194    9.8896    4.1820 N   0  0  0  0  0  0  0  0  0  0  0  0
    8.9805    5.6964    5.8260 C   0  0  0  0  0  0  0  0  0  0  0  0
    9.2377    6.0923    7.3007 C   0  0  0  0  0  0  0  0  0  0  0  0
    7.9459    5.8482    8.0406 C   0  0  0  0  0  0  0  0  0  0  0  0
    7.7639    4.5366    8.1152 C   0  0  0  0  0  0  0  0  0  0  0  0
    8.9298    3.8701    7.4276 C   0  0  0  0  0  0  0  0  0  0  0  0
   10.0484    4.8701    7.7607 C   0  0  0  0  0  0  0  0  0  0  0  0
    8.7690    4.1520    5.9132 C   0  0  0  0  0  0  0  0  0  0  0  0
    1.2404    4.7836    2.4301 C   0  0  0  0  0  0  0  0  0  0  0  0
    0.2970    5.0533    1.4059 C   0  0  0  0  0  0  0  0  0  0  0  0
    0.2138    6.2375    0.7132 N   0  0  0  0  0  0  0  0  0  0  0  0
    1.3774    6.9852    0.4332 C   0  0  0  0  0  0  0  0  0  0  0  0
    1.3853    8.3715    0.5701 C   0  0  0  0  0  0  0  0  0  0  0  0
    2.5518    9.0785    0.3591 C   0  0  0  0  0  0  0  0  0  0  0  0
    3.7352    8.4328    0.0179 C   0  0  0  0  0  0  0  0  0  0  0  0
    5.0029    9.2136   -0.1401 C   0  0  0  0  0  0  0  0  0  0  0  0
    3.7066    7.0541   -0.1564 C   0  0  0  0  0  0  0  0  0  0  0  0
    2.5432    6.3352    0.0351 C   0  0  0  0  0  0  0  0  0  0  0  0
   -1.0340    6.7455    0.3185 C   0  0  0  0  0  0  0  0  0  0  0  0
   -1.1388    7.5303   -0.8288 C   0  0  0  0  0  0  0  0  0  0  0  0
   -2.3376    8.1291   -1.1526 C   0  0  0  0  0  0  0  0  0  0  0  0
   -3.4729    7.9357   -0.3723 C   0  0  0  0  0  0  0  0  0  0  0  0
   -4.7492    8.6375   -0.7165 C   0  0  0  0  0  0  0  0  0  0  0  0
   -3.3732    7.1085    0.7375 C   0  0  0  0  0  0  0  0  0  0  0  0
   -2.1701    6.5294    1.0925 C   0  0  0  0  0  0  0  0  0  0  0  0
   -0.4931    3.9209    1.1446 C   0  0  0  0  0  0  0  0  0  0  0  0
   -1.7502    3.5421    0.0005 S   0  0  0  0  0  0  0  0  0  0  0  0
   -1.7754    1.8726    0.5606 C   0  0  0  0  0  0  0  0  0  0  0  0
   -0.9237    1.6726    1.6411 C   0  0  0  0  0  0  0  0  0  0  0  0
   -0.8779    0.5003    2.3784 N   0  0  0  0  0  0  0  0  0  0  0  0
    0.3696    0.0712    2.8581 C   0  0  0  0  0  0  0  0  0  0  0  0
    0.5244   -0.3947    4.1601 C   0  0  0  0  0  0  0  0  0  0  0  0
    1.7768   -0.7368    4.6249 C   0  0  0  0  0  0  0  0  0  0  0  0
    2.9027   -0.6154    3.8188 C   0  0  0  0  0  0  0  0  0  0  0  0
    4.2635   -0.9096    4.3706 C   0  0  0  0  0  0  0  0  0  0  0  0
    2.7344   -0.1799    2.5117 C   0  0  0  0  0  0  0  0  0  0  0  0
    1.4841    0.1522    2.0289 C   0  0  0  0  0  0  0  0  0  0  0  0
   -2.0703   -0.1068    2.7889 C   0  0  0  0  0  0  0  0  0  0  0  0
   -2.1178   -1.4860    2.9772 C   0  0  0  0  0  0  0  0  0  0  0  0
   -3.2958   -2.0981    3.3501 C   0  0  0  0  0  0  0  0  0  0  0  0
   -4.4572   -1.3605    3.5552 C   0  0  0  0  0  0  0  0  0  0  0  0
   -5.7338   -2.0431    3.9435 C   0  0  0  0  0  0  0  0  0  0  0  0
   -4.3977    0.0164    3.3840 C   0  0  0  0  0  0  0  0  0  0  0  0
   -3.2254    0.6407    3.0022 C   0  0  0  0  0  0  0  0  0  0  0  0
   -0.1706    2.8267    1.9406 C   0  0  0  0  0  0  0  0  0  0  0  0
    1.1631    3.1147    2.9906 S   0  0  0  0  0  0  0  0  0  0  0  0
   -2.4291    0.7910   -0.1067 C   0  0  0  0  0  0  0  0  0  0  0  0
   -3.6609    0.6651   -0.7249 C   0  0  0  0  0  0  0  0  0  0  0  0
   -4.6438    1.6468   -0.8160 N   0  0  0  0  0  0  0  0  0  0  0  0
   -5.9629    1.2355   -0.5710 C   0  0  0  0  0  0  0  0  0  0  0  0
   -6.2103    0.3323    0.4598 C   0  0  0  0  0  0  0  0  0  0  0  0
   -7.4902   -0.1167    0.7186 C   0  0  0  0  0  0  0  0  0  0  0  0
   -8.5529    0.3345   -0.0511 C   0  0  0  0  0  0  0  0  0  0  0  0
  -10.2323   -0.1560    0.1857 S   0  0  0  0  0  0  0  0  0  0  0  0
  -10.1437   -1.3904    1.5142 C   0  0  0  0  0  0  0  0  0  0  0  0
   -8.3097    1.2356   -1.0864 C   0  0  0  0  0  0  0  0  0  0  0  0
   -7.0330    1.6772   -1.3499 C   0  0  0  0  0  0  0  0  0  0  0  0
   -4.3703    2.8466   -1.4775 C   0  0  0  0  0  0  0  0  0  0  0  0
   -5.1009    3.9983   -1.1817 C   0  0  0  0  0  0  0  0  0  0  0  0
   -4.8706    5.1633   -1.8762 C   0  0  0  0  0  0  0  0  0  0  0  0
   -3.8937    5.2138   -2.8675 C   0  0  0  0  0  0  0  0  0  0  0  0
   -3.7188    6.7277   -3.7591 S   0  0  0  0  0  0  0  0  0  0  0  0
   -2.0229    6.6300   -4.4006 C   0  0  0  0  0  0  0  0  0  0  0  0
   -3.1444    4.0816   -3.1467 C   0  0  0  0  0  0  0  0  0  0  0  0
   -3.3830    2.9083   -2.4586 C   0  0  0  0  0  0  0  0  0  0  0  0
   -3.8415   -0.6396   -1.2506 C   0  0  0  0  0  0  0  0  0  0  0  0
   -5.0967   -1.3874   -2.1777 S   0  0  0  0  0  0  0  0  0  0  0  0
   -4.1310   -2.8489   -2.3321 C   0  0  0  0  0  0  0  0  0  0  0  0
   -2.8774   -2.7276   -1.7359 C   0  0  0  0  0  0  0  0  0  0  0  0
   -1.8376   -3.6215   -1.8503 N   0  0  0  0  0  0  0  0  0  0  0  0
   -0.9657   -3.7537   -0.7507 C   0  0  0  0  0  0  0  0  0  0  0  0
    0.4071   -3.6036   -0.9093 C   0  0  0  0  0  0  0  0  0  0  0  0
    1.2517   -3.6876    0.1805 C   0  0  0  0  0  0  0  0  0  0  0  0
    0.7337   -3.9513    1.4421 C   0  0  0  0  0  0  0  0  0  0  0  0
    1.6984   -4.0592    2.9115 S   0  0  0  0  0  0  0  0  0  0  0  0
    3.4010   -3.8312    2.3329 C   0  0  0  0  0  0  0  0  0  0  0  0
   -0.6397   -4.1431    1.5929 C   0  0  0  0  0  0  0  0  0  0  0  0
   -1.4851   -4.0260    0.5129 C   0  0  0  0  0  0  0  0  0  0  0  0
   -1.5964   -4.3260   -3.0299 C   0  0  0  0  0  0  0  0  0  0  0  0
   -1.9289   -3.7802   -4.2695 C   0  0  0  0  0  0  0  0  0  0  0  0
   -1.7555   -4.5018   -5.4319 C   0  0  0  0  0  0  0  0  0  0  0  0
   -1.2174   -5.7804   -5.3798 C   0  0  0  0  0  0  0  0  0  0  0  0
   -1.0004   -6.8028   -6.8049 S   0  0  0  0  0  0  0  0  0  0  0  0
   -1.8766   -5.9270   -8.1284 C   0  0  0  0  0  0  0  0  0  0  0  0
   -0.8183   -6.3062   -4.1527 C   0  0  0  0  0  0  0  0  0  0  0  0
   -1.0085   -5.5911   -2.9913 C   0  0  0  0  0  0  0  0  0  0  0  0
   -2.7540   -1.4785   -1.0850 C   0  0  0  0  0  0  0  0  0  0  0  0
   -1.4788   -0.6987   -0.2276 S   0  0  0  0  0  0  0  0  0  0  0  0
   -4.6199   -3.9949   -3.0243 C   0  0  0  0  0  0  0  0  0  0  0  0
   -5.5681   -3.9469   -4.0757 C   0  0  0  0  0  0  0  0  0  0  0  0
   -5.6211   -4.9124   -4.9463 N   0  0  0  0  0  0  0  0  0  0  0  0
   -4.9044   -6.0354   -4.7523 C   0  0  0  0  0  0  0  0  0  0  0  0
   -4.3150   -6.2150   -3.4825 C   0  0  0  0  0  0  0  0  0  0  0  0
   -4.1147   -5.1903   -2.6989 N   0  0  0  0  0  0  0  0  0  0  0  0
   -4.7695   -6.9114   -5.8665 C   0  0  0  0  0  0  0  0  0  0  0  0
   -3.9829   -8.0092   -5.9718 C   0  0  0  0  0  0  0  0  0  0  0  0
   -3.0054   -8.7535   -4.7268 S   0  0  0  0  0  0  0  0  0  0  0  0
   -2.3054   -9.8613   -5.8863 C   0  0  0  0  0  0  0  0  0  0  0  0
   -1.3641  -10.7853   -5.5166 C   0  0  0  0  0  0  0  0  0  0  0  0
   -0.8697  -10.7821   -4.1976 C   0  0  0  0  0  0  0  0  0  0  0  0
   -0.4547  -10.7591   -3.1283 N   0  0  0  0  0  0  0  0  0  0  0  0
   -0.8392  -11.7793   -6.3617 C   0  0  0  0  0  0  0  0  0  0  0  0
   -0.3914  -12.6335   -6.9848 N   0  0  0  0  0  0  0  0  0  0  0  0
   -2.8329   -9.6894   -7.1248 N   0  0  0  0  0  0  0  0  0  0  0  0
   -2.3273  -10.3578   -8.2800 C   0  0  0  0  0  0  0  0  0  0  0  0
   -3.1132  -11.2956   -8.9280 C   0  0  0  0  0  0  0  0  0  0  0  0
   -2.6181  -11.9227  -10.0574 C   0  0  0  0  0  0  0  0  0  0  0  0
   -1.3557  -11.6093  -10.5308 C   0  0  0  0  0  0  0  0  0  0  0  0
   -0.5843  -10.6580   -9.8846 C   0  0  0  0  0  0  0  0  0  0  0  0
   -1.0680  -10.0225   -8.7565 C   0  0  0  0  0  0  0  0  0  0  0  0
   -3.7836   -8.6865   -7.2575 C   0  0  0  0  0  0  0  0  0  0  0  0
   -4.3191   -8.4041   -8.3035 O   0  0  0  0  0  0  0  0  0  0  0  0
    1.8767    6.7580    2.6610 H   0  0  0  0  0  0  0  0  0  0  0  0
    6.0091    2.7245    5.0746 H   0  0  0  0  0  0  0  0  0  0  0  0
    6.7594    7.7275    4.8353 H   0  0  0  0  0  0  0  0  0  0  0  0
    9.7535    6.0676    5.1558 H   0  0  0  0  0  0  0  0  0  0  0  0
    9.6890    7.0719    7.4329 H   0  0  0  0  0  0  0  0  0  0  0  0
    7.2886    6.6308    8.3716 H   0  0  0  0  0  0  0  0  0  0  0  0
    6.9235    4.0043    8.5210 H   0  0  0  0  0  0  0  0  0  0  0  0
    9.1013    2.8260    7.6770 H   0  0  0  0  0  0  0  0  0  0  0  0
   10.9586    4.7111    7.1839 H   0  0  0  0  0  0  0  0  0  0  0  0
   10.2862    4.8979    8.8230 H   0  0  0  0  0  0  0  0  0  0  0  0
    9.4070    3.5150    5.3032 H   0  0  0  0  0  0  0  0  0  0  0  0
    0.4872    8.8854    0.8748 H   0  0  0  0  0  0  0  0  0  0  0  0
    2.5498   10.1499    0.4915 H   0  0  0  0  0  0  0  0  0  0  0  0
    4.8648   10.0292   -0.8480 H   0  0  0  0  0  0  0  0  0  0  0  0
    5.8127    8.5785   -0.4904 H   0  0  0  0  0  0  0  0  0  0  0  0
    5.2948    9.6514    0.8148 H   0  0  0  0  0  0  0  0  0  0  0  0
    4.6079    6.5328   -0.4458 H   0  0  0  0  0  0  0  0  0  0  0  0
    2.5379    5.2630   -0.0978 H   0  0  0  0  0  0  0  0  0  0  0  0
   -0.2672    7.6884   -1.4474 H   0  0  0  0  0  0  0  0  0  0  0  0
   -2.3978    8.7633   -2.0242 H   0  0  0  0  0  0  0  0  0  0  0  0
   -4.6641    9.6981   -0.4791 H   0  0  0  0  0  0  0  0  0  0  0  0
   -5.5853    8.2298   -0.1538 H   0  0  0  0  0  0  0  0  0  0  0  0
   -4.9558    8.5524   -1.7820 H   0  0  0  0  0  0  0  0  0  0  0  0
   -4.2422    6.9356    1.3556 H   0  0  0  0  0  0  0  0  0  0  0  0
   -2.1019    5.9349    1.9914 H   0  0  0  0  0  0  0  0  0  0  0  0
   -0.3363   -0.4663    4.8082 H   0  0  0  0  0  0  0  0  0  0  0  0
    1.8871   -1.0849    5.6414 H   0  0  0  0  0  0  0  0  0  0  0  0
    4.6055   -0.0545    4.9540 H   0  0  0  0  0  0  0  0  0  0  0  0
    4.9844   -1.0861    3.5754 H   0  0  0  0  0  0  0  0  0  0  0  0
    4.2384   -1.7751    5.0297 H   0  0  0  0  0  0  0  0  0  0  0  0
    3.5943   -0.0860    1.8628 H   0  0  0  0  0  0  0  0  0  0  0  0
    1.3618    0.4866    1.0084 H   0  0  0  0  0  0  0  0  0  0  0  0
   -1.2222   -2.0649    2.8183 H   0  0  0  0  0  0  0  0  0  0  0  0
   -3.3188   -3.1703    3.4822 H   0  0  0  0  0  0  0  0  0  0  0  0
   -6.5149   -1.3158    4.1519 H   0  0  0  0  0  0  0  0  0  0  0  0
   -5.5847   -2.6570    4.8305 H   0  0  0  0  0  0  0  0  0  0  0  0
   -6.0719   -2.6991    3.1407 H   0  0  0  0  0  0  0  0  0  0  0  0
   -5.2799    0.6166    3.5578 H   0  0  0  0  0  0  0  0  0  0  0  0
   -3.2056    1.7134    2.8774 H   0  0  0  0  0  0  0  0  0  0  0  0
   -5.3905   -0.0212    1.0679 H   0  0  0  0  0  0  0  0  0  0  0  0
   -7.6394   -0.8146    1.5261 H   0  0  0  0  0  0  0  0  0  0  0  0
   -9.5041   -2.2143    1.2117 H   0  0  0  0  0  0  0  0  0  0  0  0
   -9.7887   -0.9286    2.4309 H   0  0  0  0  0  0  0  0  0  0  0  0
  -11.1607   -1.7441    1.6515 H   0  0  0  0  0  0  0  0  0  0  0  0
   -9.1370    1.5748   -1.6906 H   0  0  0  0  0  0  0  0  0  0  0  0
   -6.8585    2.3563   -2.1704 H   0  0  0  0  0  0  0  0  0  0  0  0
   -5.8527    3.9671   -0.4080 H   0  0  0  0  0  0  0  0  0  0  0  0
   -5.4485    6.0468   -1.6611 H   0  0  0  0  0  0  0  0  0  0  0  0
   -1.9727    5.9428   -5.2403 H   0  0  0  0  0  0  0  0  0  0  0  0
   -1.3589    6.3251   -3.5975 H   0  0  0  0  0  0  0  0  0  0  0  0
   -1.7710    7.6314   -4.7354 H   0  0  0  0  0  0  0  0  0  0  0  0
   -2.3862    4.0911   -3.9133 H   0  0  0  0  0  0  0  0  0  0  0  0
   -2.8123    2.0239   -2.7014 H   0  0  0  0  0  0  0  0  0  0  0  0
    0.8109   -3.4063   -1.8914 H   0  0  0  0  0  0  0  0  0  0  0  0
    2.3089   -3.5415    0.0322 H   0  0  0  0  0  0  0  0  0  0  0  0
    4.0244   -3.9263    3.2161 H   0  0  0  0  0  0  0  0  0  0  0  0
    3.5110   -2.8377    1.9092 H   0  0  0  0  0  0  0  0  0  0  0  0
    3.6562   -4.6067    1.6166 H   0  0  0  0  0  0  0  0  0  0  0  0
   -1.0271   -4.3929    2.5687 H   0  0  0  0  0  0  0  0  0  0  0  0
   -2.5501   -4.1573    0.6311 H   0  0  0  0  0  0  0  0  0  0  0  0
   -2.3397   -2.7829   -4.3268 H   0  0  0  0  0  0  0  0  0  0  0  0
   -2.0374   -4.0524   -6.3706 H   0  0  0  0  0  0  0  0  0  0  0  0
   -1.3335   -5.0275   -8.4041 H   0  0  0  0  0  0  0  0  0  0  0  0
   -2.8898   -5.7004   -7.8088 H   0  0  0  0  0  0  0  0  0  0  0  0
   -1.9062   -6.6143   -8.9690 H   0  0  0  0  0  0  0  0  0  0  0  0
   -0.3746   -7.2894   -4.1149 H   0  0  0  0  0  0  0  0  0  0  0  0
   -0.7264   -6.0204   -2.0428 H   0  0  0  0  0  0  0  0  0  0  0  0
   -6.2155   -3.0952   -4.2300 H   0  0  0  0  0  0  0  0  0  0  0  0
   -4.0031   -7.1755   -3.0996 H   0  0  0  0  0  0  0  0  0  0  0  0
   -5.3117   -6.6246   -6.7601 H   0  0  0  0  0  0  0  0  0  0  0  0
   -4.0964  -11.5287   -8.5488 H   0  0  0  0  0  0  0  0  0  0  0  0
   -3.2204  -12.6603  -10.5650 H   0  0  0  0  0  0  0  0  0  0  0  0
   -0.9715  -12.1067  -11.4082 H   0  0  0  0  0  0  0  0  0  0  0  0
    0.3974  -10.4090  -10.2569 H   0  0  0  0  0  0  0  0  0  0  0  0
   -0.4799   -9.2760   -8.2422 H   0  0  0  0  0  0  0  0  0  0  0  0
  1  2  2  0  0  0  0
  2  3  1  0  0  0  0
  3  4  2  0  0  0  0
  3  5  1  0  0  0  0
  5  6  2  0  0  0  0
  6  7  1  0  0  0  0
  7  8  2  0  0  0  0
  8  9  1  0  0  0  0
  9 10  2  0  0  0  0
 10 11  1  0  0  0  0
 11 12  2  0  0  0  0
 12 13  1  0  0  0  0
 13 14  3  0  0  0  0
 12 15  1  0  0  0  0
 15 16  3  0  0  0  0
  8 17  1  0  0  0  0
 17 18  1  0  0  0  0
 18 19  1  0  0  0  0
 19 20  2  0  0  0  0
 20 21  1  0  0  0  0
 21 22  1  0  0  0  0
 21 23  1  0  0  0  0
  1 24  1  0  0  0  0
 24 25  2  0  0  0  0
 25 26  1  0  0  0  0
 26 27  1  0  0  0  0
 27 28  2  0  0  0  0
 28 29  1  0  0  0  0
 29 30  2  0  0  0  0
 30 31  1  0  0  0  0
 30 32  1  0  0  0  0
 32 33  2  0  0  0  0
 26 34  1  0  0  0  0
 34 35  2  0  0  0  0
 35 36  1  0  0  0  0
 36 37  2  0  0  0  0
 37 38  1  0  0  0  0
 37 39  1  0  0  0  0
 39 40  2  0  0  0  0
 25 41  1  0  0  0  0
 41 42  1  0  0  0  0
 42 43  1  0  0  0  0
 43 44  2  0  0  0  0
 44 45  1  0  0  0  0
 45 46  1  0  0  0  0
 46 47  2  0  0  0  0
 47 48  1  0  0  0  0
 48 49  2  0  0  0  0
 49 50  1  0  0  0  0
 49 51  1  0  0  0  0
 51 52  2  0  0  0  0
 45 53  1  0  0  0  0
 53 54  2  0  0  0  0
 54 55  1  0  0  0  0
 55 56  2  0  0  0  0
 56 57  1  0  0  0  0
 56 58  1  0  0  0  0
 58 59  2  0  0  0  0
 44 60  1  0  0  0  0
 60 61  1  0  0  0  0
 43 62  1  0  0  0  0
 62 63  2  0  0  0  0
 63 64  1  0  0  0  0
 64 65  1  0  0  0  0
 65 66  2  0  0  0  0
 66 67  1  0  0  0  0
 67 68  2  0  0  0  0
 68 69  1  0  0  0  0
 69 70  1  0  0  0  0
 68 71  1  0  0  0  0
 71 72  2  0  0  0  0
 64 73  1  0  0  0  0
 73 74  2  0  0  0  0
 74 75  1  0  0  0  0
 75 76  2  0  0  0  0
 76 77  1  0  0  0  0
 77 78  1  0  0  0  0
 76 79  1  0  0  0  0
 79 80  2  0  0  0  0
 63 81  1  0  0  0  0
 81 82  1  0  0  0  0
 82 83  1  0  0  0  0
 83 84  2  0  0  0  0
 84 85  1  0  0  0  0
 85 86  1  0  0  0  0
 86 87  2  0  0  0  0
 87 88  1  0  0  0  0
 88 89  2  0  0  0  0
 89 90  1  0  0  0  0
 90 91  1  0  0  0  0
 89 92  1  0  0  0  0
 92 93  2  0  0  0  0
 85 94  1  0  0  0  0
 94 95  2  0  0  0  0
 95 96  1  0  0  0  0
 96 97  2  0  0  0  0
 97 98  1  0  0  0  0
 98 99  1  0  0  0  0
 97100  1  0  0  0  0
100101  2  0  0  0  0
 84102  1  0  0  0  0
102103  1  0  0  0  0
 83104  1  0  0  0  0
104105  2  0  0  0  0
105106  1  0  0  0  0
106107  2  0  0  0  0
107108  1  0  0  0  0
108109  2  0  0  0  0
107110  1  0  0  0  0
110111  2  0  0  0  0
111112  1  0  0  0  0
112113  1  0  0  0  0
113114  2  0  0  0  0
114115  1  0  0  0  0
115116  3  0  0  0  0
114117  1  0  0  0  0
117118  3  0  0  0  0
113119  1  0  0  0  0
119120  1  0  0  0  0
120121  2  0  0  0  0
121122  1  0  0  0  0
122123  2  0  0  0  0
123124  1  0  0  0  0
124125  2  0  0  0  0
119126  1  0  0  0  0
126127  2  0  0  0  0
 11  2  1  0  0  0  0
 23 17  1  0  0  0  0
 61 24  1  0  0  0  0
103 62  1  0  0  0  0
109104  1  0  0  0  0
126111  1  0  0  0  0
 10  5  1  0  0  0  0
 22 18  1  0  0  0  0
 33 27  1  0  0  0  0
 40 34  1  0  0  0  0
 60 41  2  0  0  0  0
 72 65  1  0  0  0  0
 80 73  1  0  0  0  0
102 81  2  0  0  0  0
125120  1  0  0  0  0
 23  7  1  0  0  0  0
 52 46  1  0  0  0  0
 59 53  1  0  0  0  0
 93 86  1  0  0  0  0
101 94  1  0  0  0  0
  1128  1  0  0  0  0
  6129  1  0  0  0  0
  9130  1  0  0  0  0
 17131  1  0  0  0  0
 18132  1  0  0  0  0
 19133  1  0  0  0  0
 20134  1  0  0  0  0
 21135  1  0  0  0  0
 22136  1  0  0  0  0
 22137  1  0  0  0  0
 23138  1  0  0  0  0
 28139  1  0  0  0  0
 29140  1  0  0  0  0
 31141  1  0  0  0  0
 31142  1  0  0  0  0
 31143  1  0  0  0  0
 32144  1  0  0  0  0
 33145  1  0  0  0  0
 35146  1  0  0  0  0
 36147  1  0  0  0  0
 38148  1  0  0  0  0
 38149  1  0  0  0  0
 38150  1  0  0  0  0
 39151  1  0  0  0  0
 40152  1  0  0  0  0
 47153  1  0  0  0  0
 48154  1  0  0  0  0
 50155  1  0  0  0  0
 50156  1  0  0  0  0
 50157  1  0  0  0  0
 51158  1  0  0  0  0
 52159  1  0  0  0  0
 54160  1  0  0  0  0
 55161  1  0  0  0  0
 57162  1  0  0  0  0
 57163  1  0  0  0  0
 57164  1  0  0  0  0
 58165  1  0  0  0  0
 59166  1  0  0  0  0
 66167  1  0  0  0  0
 67168  1  0  0  0  0
 70169  1  0  0  0  0
 70170  1  0  0  0  0
 70171  1  0  0  0  0
 71172  1  0  0  0  0
 72173  1  0  0  0  0
 74174  1  0  0  0  0
 75175  1  0  0  0  0
 78176  1  0  0  0  0
 78177  1  0  0  0  0
 78178  1  0  0  0  0
 79179  1  0  0  0  0
 80180  1  0  0  0  0
 87181  1  0  0  0  0
 88182  1  0  0  0  0
 91183  1  0  0  0  0
 91184  1  0  0  0  0
 91185  1  0  0  0  0
 92186  1  0  0  0  0
 93187  1  0  0  0  0
 95188  1  0  0  0  0
 96189  1  0  0  0  0
 99190  1  0  0  0  0
 99191  1  0  0  0  0
 99192  1  0  0  0  0
100193  1  0  0  0  0
101194  1  0  0  0  0
105195  1  0  0  0  0
108196  1  0  0  0  0
110197  1  0  0  0  0
121198  1  0  0  0  0
122199  1  0  0  0  0
123200  1  0  0  0  0
124201  1  0  0  0  0
125202  1  0  0  0  0
M  END
