
  xtb     02112219453D
 energy: -410.960852997529 gnorm: 0.000272677149 xtb: 6.4.1 (unknown)
257281  0     0  0            999 V2000
    5.1145   -4.2360   -2.1189 C   0  0  0  0  0  0  0  0  0  0  0  0
    5.5153   -3.9622   -3.4113 C   0  0  0  0  0  0  0  0  0  0  0  0
    4.7105   -4.1403   -4.6177 C   0  0  0  0  0  0  0  0  0  0  0  0
    3.5787   -4.5913   -4.7041 O   0  0  0  0  0  0  0  0  0  0  0  0
    5.5487   -3.6934   -5.7454 C   0  0  0  0  0  0  0  0  0  0  0  0
    5.1827   -3.6214   -7.0867 C   0  0  0  0  0  0  0  0  0  0  0  0
    6.1693   -3.1307   -7.9085 C   0  0  0  0  0  0  0  0  0  0  0  0
    7.4292   -2.7501   -7.4312 C   0  0  0  0  0  0  0  0  0  0  0  0
    7.8043   -2.8227   -6.1098 C   0  0  0  0  0  0  0  0  0  0  0  0
    6.8122   -3.3101   -5.2551 C   0  0  0  0  0  0  0  0  0  0  0  0
    6.8125   -3.4707   -3.7988 C   0  0  0  0  0  0  0  0  0  0  0  0
    7.8670   -3.1554   -2.9723 C   0  0  0  0  0  0  0  0  0  0  0  0
    7.8394   -3.1509   -1.5654 C   0  0  0  0  0  0  0  0  0  0  0  0
    7.9015   -3.0688   -0.4194 N   0  0  0  0  0  0  0  0  0  0  0  0
    9.1396   -2.7527   -3.4213 C   0  0  0  0  0  0  0  0  0  0  0  0
   10.2071   -2.4367   -3.7070 N   0  0  0  0  0  0  0  0  0  0  0  0
    7.9088   -2.3272   -8.7980 C   0  0  0  0  0  0  0  0  0  0  0  0
    7.9371   -0.8091   -9.0754 C   0  0  0  0  0  0  0  0  0  0  0  0
    7.9700   -0.7164  -10.5837 C   0  0  0  0  0  0  0  0  0  0  0  0
    6.7754   -1.0755  -11.0361 C   0  0  0  0  0  0  0  0  0  0  0  0
    5.9154   -1.4171   -9.8409 C   0  0  0  0  0  0  0  0  0  0  0  0
    6.4756   -0.4188   -8.8195 C   0  0  0  0  0  0  0  0  0  0  0  0
    6.5023   -2.7504   -9.3305 C   0  0  0  0  0  0  0  0  0  0  0  0
    3.8566   -4.5586   -1.6247 C   0  0  0  0  0  0  0  0  0  0  0  0
    3.5764   -4.6127   -0.2302 C   0  0  0  0  0  0  0  0  0  0  0  0
    4.5099   -4.7004    0.7650 N   0  0  0  0  0  0  0  0  0  0  0  0
    5.6905   -5.4543    0.6313 C   0  0  0  0  0  0  0  0  0  0  0  0
    5.7227   -6.6060   -0.1506 C   0  0  0  0  0  0  0  0  0  0  0  0
    6.8934   -7.3283   -0.2682 C   0  0  0  0  0  0  0  0  0  0  0  0
    8.0491   -6.9373    0.3972 C   0  0  0  0  0  0  0  0  0  0  0  0
    9.3266   -7.7055    0.2531 C   0  0  0  0  0  0  0  0  0  0  0  0
    7.9980   -5.8016    1.1970 C   0  0  0  0  0  0  0  0  0  0  0  0
    6.8389   -5.0621    1.3145 C   0  0  0  0  0  0  0  0  0  0  0  0
    4.1994   -4.1666    2.0345 C   0  0  0  0  0  0  0  0  0  0  0  0
    4.3299   -4.9459    3.1794 C   0  0  0  0  0  0  0  0  0  0  0  0
    4.0241   -4.4124    4.4150 C   0  0  0  0  0  0  0  0  0  0  0  0
    3.5887   -3.0974    4.5440 C   0  0  0  0  0  0  0  0  0  0  0  0
    3.2519   -2.5374    5.8913 C   0  0  0  0  0  0  0  0  0  0  0  0
    3.4686   -2.3263    3.3949 C   0  0  0  0  0  0  0  0  0  0  0  0
    3.7673   -2.8494    2.1517 C   0  0  0  0  0  0  0  0  0  0  0  0
    2.1968   -4.5346   -0.0025 C   0  0  0  0  0  0  0  0  0  0  0  0
    1.2222   -4.3505    1.4233 S   0  0  0  0  0  0  0  0  0  0  0  0
   -0.2271   -4.2388    0.4290 C   0  0  0  0  0  0  0  0  0  0  0  0
    0.0394   -4.5024   -0.9181 C   0  0  0  0  0  0  0  0  0  0  0  0
   -0.9444   -4.6113   -1.8813 N   0  0  0  0  0  0  0  0  0  0  0  0
   -2.0840   -5.3879   -1.6391 C   0  0  0  0  0  0  0  0  0  0  0  0
   -3.2697   -5.1180   -2.3208 C   0  0  0  0  0  0  0  0  0  0  0  0
   -4.4030   -5.8637   -2.0692 C   0  0  0  0  0  0  0  0  0  0  0  0
   -4.3973   -6.8926   -1.1354 C   0  0  0  0  0  0  0  0  0  0  0  0
   -5.6247   -7.7119   -0.8764 C   0  0  0  0  0  0  0  0  0  0  0  0
   -3.2109   -7.1579   -0.4621 C   0  0  0  0  0  0  0  0  0  0  0  0
   -2.0686   -6.4232   -0.7060 C   0  0  0  0  0  0  0  0  0  0  0  0
   -0.6509   -4.1221   -3.1676 C   0  0  0  0  0  0  0  0  0  0  0  0
   -0.0271   -2.8851   -3.2965 C   0  0  0  0  0  0  0  0  0  0  0  0
    0.3183   -2.4095   -4.5468 C   0  0  0  0  0  0  0  0  0  0  0  0
    0.0443   -3.1444   -5.6917 C   0  0  0  0  0  0  0  0  0  0  0  0
    0.4030   -2.6272   -7.0501 C   0  0  0  0  0  0  0  0  0  0  0  0
   -0.5936   -4.3718   -5.5521 C   0  0  0  0  0  0  0  0  0  0  0  0
   -0.9350   -4.8635   -4.3096 C   0  0  0  0  0  0  0  0  0  0  0  0
    1.4246   -4.5903   -1.1599 C   0  0  0  0  0  0  0  0  0  0  0  0
    2.3824   -4.6658   -2.5970 S   0  0  0  0  0  0  0  0  0  0  0  0
   -1.3649   -3.5686    0.9208 C   0  0  0  0  0  0  0  0  0  0  0  0
   -1.4745   -2.9994    2.1937 C   0  0  0  0  0  0  0  0  0  0  0  0
   -0.8040   -3.4841    3.3014 N   0  0  0  0  0  0  0  0  0  0  0  0
   -0.7302   -4.8626    3.5424 C   0  0  0  0  0  0  0  0  0  0  0  0
    0.3406   -5.3757    4.2716 C   0  0  0  0  0  0  0  0  0  0  0  0
    0.4517   -6.7312    4.5074 C   0  0  0  0  0  0  0  0  0  0  0  0
   -0.5072   -7.6038    4.0108 C   0  0  0  0  0  0  0  0  0  0  0  0
   -0.4733   -9.3547    4.2338 S   0  0  0  0  0  0  0  0  0  0  0  0
    1.0265   -9.6436    5.2137 C   0  0  0  0  0  0  0  0  0  0  0  0
   -1.5797   -7.0942    3.2813 C   0  0  0  0  0  0  0  0  0  0  0  0
   -1.6946   -5.7424    3.0502 C   0  0  0  0  0  0  0  0  0  0  0  0
   -0.4095   -2.5694    4.2869 C   0  0  0  0  0  0  0  0  0  0  0  0
    0.2367   -1.3933    3.9124 C   0  0  0  0  0  0  0  0  0  0  0  0
    0.4990   -0.4154    4.8506 C   0  0  0  0  0  0  0  0  0  0  0  0
    0.1239   -0.6145    6.1682 C   0  0  0  0  0  0  0  0  0  0  0  0
    0.2930    0.7031    7.3549 S   0  0  0  0  0  0  0  0  0  0  0  0
   -1.4744    1.1229    7.4618 C   0  0  0  0  0  0  0  0  0  0  0  0
   -0.4454   -1.8164    6.5640 C   0  0  0  0  0  0  0  0  0  0  0  0
   -0.7163   -2.7915    5.6281 C   0  0  0  0  0  0  0  0  0  0  0  0
   -2.2882   -1.8496    2.1539 C   0  0  0  0  0  0  0  0  0  0  0  0
   -2.4958   -0.5031    3.2241 S   0  0  0  0  0  0  0  0  0  0  0  0
   -3.1936    0.4483    1.9021 C   0  0  0  0  0  0  0  0  0  0  0  0
   -3.5127   -0.3472    0.7996 C   0  0  0  0  0  0  0  0  0  0  0  0
   -4.3329    0.0287   -0.2364 N   0  0  0  0  0  0  0  0  0  0  0  0
   -4.2616   -0.6789   -1.4571 C   0  0  0  0  0  0  0  0  0  0  0  0
   -3.0522   -0.7941   -2.1391 C   0  0  0  0  0  0  0  0  0  0  0  0
   -3.0045   -1.4293   -3.3607 C   0  0  0  0  0  0  0  0  0  0  0  0
   -4.1520   -1.9938   -3.9102 C   0  0  0  0  0  0  0  0  0  0  0  0
   -3.9585   -2.7787   -5.4805 S   0  0  0  0  0  0  0  0  0  0  0  0
   -5.5237   -3.6728   -5.7094 C   0  0  0  0  0  0  0  0  0  0  0  0
   -5.3536   -1.9105   -3.2181 C   0  0  0  0  0  0  0  0  0  0  0  0
   -5.4039   -1.2545   -2.0039 C   0  0  0  0  0  0  0  0  0  0  0  0
   -5.3573    0.9758   -0.0788 C   0  0  0  0  0  0  0  0  0  0  0  0
   -5.9002    1.2917    1.1679 C   0  0  0  0  0  0  0  0  0  0  0  0
   -6.8884    2.2433    1.2814 C   0  0  0  0  0  0  0  0  0  0  0  0
   -7.3849    2.8928    0.1537 C   0  0  0  0  0  0  0  0  0  0  0  0
   -8.6300    4.1145    0.4217 S   0  0  0  0  0  0  0  0  0  0  0  0
   -8.8608    4.8587   -1.2182 C   0  0  0  0  0  0  0  0  0  0  0  0
   -6.8897    2.5448   -1.0938 C   0  0  0  0  0  0  0  0  0  0  0  0
   -5.8836    1.6065   -1.2039 C   0  0  0  0  0  0  0  0  0  0  0  0
   -2.9095   -1.6248    0.9285 C   0  0  0  0  0  0  0  0  0  0  0  0
   -2.5188   -2.8705   -0.2112 S   0  0  0  0  0  0  0  0  0  0  0  0
   -2.9574    1.8558    1.9376 C   0  0  0  0  0  0  0  0  0  0  0  0
   -2.4020    2.6263    0.9274 C   0  0  0  0  0  0  0  0  0  0  0  0
   -2.1657    2.2275   -0.4087 N   0  0  0  0  0  0  0  0  0  0  0  0
   -0.9496    1.5740   -0.6830 C   0  0  0  0  0  0  0  0  0  0  0  0
   -0.1961    1.8591   -1.8240 C   0  0  0  0  0  0  0  0  0  0  0  0
    0.9303    1.1212   -2.1299 C   0  0  0  0  0  0  0  0  0  0  0  0
    1.3704    0.0888   -1.3084 C   0  0  0  0  0  0  0  0  0  0  0  0
    2.5785   -0.7272   -1.6593 C   0  0  0  0  0  0  0  0  0  0  0  0
    0.6792   -0.1237   -0.1247 C   0  0  0  0  0  0  0  0  0  0  0  0
   -0.4452    0.6132    0.1952 C   0  0  0  0  0  0  0  0  0  0  0  0
   -2.9412    2.8404   -1.4027 C   0  0  0  0  0  0  0  0  0  0  0  0
   -3.8076    3.8911   -1.0995 C   0  0  0  0  0  0  0  0  0  0  0  0
   -4.5769    4.4874   -2.0797 C   0  0  0  0  0  0  0  0  0  0  0  0
   -4.5472    4.0470   -3.3928 C   0  0  0  0  0  0  0  0  0  0  0  0
   -5.3787    4.6889   -4.4620 C   0  0  0  0  0  0  0  0  0  0  0  0
   -3.7280    2.9629   -3.6850 C   0  0  0  0  0  0  0  0  0  0  0  0
   -2.9427    2.3697   -2.7189 C   0  0  0  0  0  0  0  0  0  0  0  0
   -2.0395    3.9058    1.3930 C   0  0  0  0  0  0  0  0  0  0  0  0
   -1.2770    5.2472    0.6313 S   0  0  0  0  0  0  0  0  0  0  0  0
   -1.4382    6.1924    2.1095 C   0  0  0  0  0  0  0  0  0  0  0  0
   -2.0374    5.4423    3.1492 C   0  0  0  0  0  0  0  0  0  0  0  0
   -2.2909    5.9255    4.4238 N   0  0  0  0  0  0  0  0  0  0  0  0
   -1.7046    5.3014    5.5302 C   0  0  0  0  0  0  0  0  0  0  0  0
   -0.4502    4.7027    5.4149 C   0  0  0  0  0  0  0  0  0  0  0  0
    0.1898    4.2079    6.5329 C   0  0  0  0  0  0  0  0  0  0  0  0
   -0.3912    4.2978    7.7931 C   0  0  0  0  0  0  0  0  0  0  0  0
    0.3609    3.8571    9.0110 C   0  0  0  0  0  0  0  0  0  0  0  0
   -1.6716    4.8297    7.8876 C   0  0  0  0  0  0  0  0  0  0  0  0
   -2.3300    5.3141    6.7750 C   0  0  0  0  0  0  0  0  0  0  0  0
   -3.1127    7.0546    4.5752 C   0  0  0  0  0  0  0  0  0  0  0  0
   -2.8820    7.9897    5.5815 C   0  0  0  0  0  0  0  0  0  0  0  0
   -3.7279    9.0689    5.7280 C   0  0  0  0  0  0  0  0  0  0  0  0
   -4.8077    9.2597    4.8729 C   0  0  0  0  0  0  0  0  0  0  0  0
   -5.6815   10.4650    5.0098 C   0  0  0  0  0  0  0  0  0  0  0  0
   -5.0187    8.3328    3.8610 C   0  0  0  0  0  0  0  0  0  0  0  0
   -4.1894    7.2396    3.7118 C   0  0  0  0  0  0  0  0  0  0  0  0
   -2.3208    4.1338    2.7363 C   0  0  0  0  0  0  0  0  0  0  0  0
   -3.0247    2.7232    3.4679 S   0  0  0  0  0  0  0  0  0  0  0  0
   -0.9826    7.5110    2.2505 C   0  0  0  0  0  0  0  0  0  0  0  0
   -0.1052    8.2218    1.4675 C   0  0  0  0  0  0  0  0  0  0  0  0
    0.6547    7.7091    0.3050 C   0  0  0  0  0  0  0  0  0  0  0  0
    0.4354    6.7112   -0.3568 O   0  0  0  0  0  0  0  0  0  0  0  0
    1.7214    8.6817    0.1123 C   0  0  0  0  0  0  0  0  0  0  0  0
    3.0695    8.8539   -0.9271 S   0  0  0  0  0  0  0  0  0  0  0  0
    3.4703   10.3758   -0.1761 C   0  0  0  0  0  0  0  0  0  0  0  0
    4.6576   11.1370   -0.6394 C   0  0  0  0  0  0  0  0  0  0  0  0
    2.5930   10.7214    0.8142 C   0  0  0  0  0  0  0  0  0  0  0  0
    1.5896    9.7503    0.9847 C   0  0  0  0  0  0  0  0  0  0  0  0
    0.3962    9.5448    1.7846 C   0  0  0  0  0  0  0  0  0  0  0  0
   -0.1685   10.5046    2.5853 C   0  0  0  0  0  0  0  0  0  0  0  0
   -1.4602   10.4460    3.1373 C   0  0  0  0  0  0  0  0  0  0  0  0
   -2.5319   10.5159    3.5447 N   0  0  0  0  0  0  0  0  0  0  0  0
    0.4726   11.7358    2.8268 C   0  0  0  0  0  0  0  0  0  0  0  0
    0.9866   12.7378    3.0513 N   0  0  0  0  0  0  0  0  0  0  0  0
    5.8726   -4.1217   -1.3546 H   0  0  0  0  0  0  0  0  0  0  0  0
    4.1987   -3.9252   -7.4085 H   0  0  0  0  0  0  0  0  0  0  0  0
    8.7784   -2.5240   -5.7606 H   0  0  0  0  0  0  0  0  0  0  0  0
    8.7873   -2.8459   -9.1772 H   0  0  0  0  0  0  0  0  0  0  0  0
    8.7041   -0.2619   -8.5342 H   0  0  0  0  0  0  0  0  0  0  0  0
    8.8465   -0.4620  -11.1504 H   0  0  0  0  0  0  0  0  0  0  0  0
    6.4548   -1.1812  -12.0561 H   0  0  0  0  0  0  0  0  0  0  0  0
    4.8398   -1.4227   -9.9977 H   0  0  0  0  0  0  0  0  0  0  0  0
    6.2704    0.6139   -9.0973 H   0  0  0  0  0  0  0  0  0  0  0  0
    6.1422   -0.5945   -7.7985 H   0  0  0  0  0  0  0  0  0  0  0  0
    6.4436   -3.5508  -10.0660 H   0  0  0  0  0  0  0  0  0  0  0  0
    4.8316   -6.9305   -0.6678 H   0  0  0  0  0  0  0  0  0  0  0  0
    6.9048   -8.2164   -0.8837 H   0  0  0  0  0  0  0  0  0  0  0  0
    9.7698   -7.9003    1.2282 H   0  0  0  0  0  0  0  0  0  0  0  0
    9.1588   -8.6529   -0.2530 H   0  0  0  0  0  0  0  0  0  0  0  0
   10.0451   -7.1272   -0.3277 H   0  0  0  0  0  0  0  0  0  0  0  0
    8.8848   -5.4796    1.7216 H   0  0  0  0  0  0  0  0  0  0  0  0
    6.8205   -4.1721    1.9232 H   0  0  0  0  0  0  0  0  0  0  0  0
    4.6711   -5.9668    3.0907 H   0  0  0  0  0  0  0  0  0  0  0  0
    4.1267   -5.0264    5.2984 H   0  0  0  0  0  0  0  0  0  0  0  0
    3.9589   -2.8857    6.6413 H   0  0  0  0  0  0  0  0  0  0  0  0
    2.2550   -2.8583    6.1962 H   0  0  0  0  0  0  0  0  0  0  0  0
    3.2586   -1.4508    5.8767 H   0  0  0  0  0  0  0  0  0  0  0  0
    3.1481   -1.2988    3.4771 H   0  0  0  0  0  0  0  0  0  0  0  0
    3.6839   -2.2370    1.2656 H   0  0  0  0  0  0  0  0  0  0  0  0
   -3.2905   -4.3111   -3.0355 H   0  0  0  0  0  0  0  0  0  0  0  0
   -5.3168   -5.6353   -2.5998 H   0  0  0  0  0  0  0  0  0  0  0  0
   -6.5242   -7.1575   -1.1340 H   0  0  0  0  0  0  0  0  0  0  0  0
   -5.6025   -8.6202   -1.4798 H   0  0  0  0  0  0  0  0  0  0  0  0
   -5.6794   -8.0076    0.1690 H   0  0  0  0  0  0  0  0  0  0  0  0
   -3.1769   -7.9592    0.2619 H   0  0  0  0  0  0  0  0  0  0  0  0
   -1.1596   -6.6574   -0.1718 H   0  0  0  0  0  0  0  0  0  0  0  0
    0.1758   -2.2971   -2.4131 H   0  0  0  0  0  0  0  0  0  0  0  0
    0.8022   -1.4465   -4.6309 H   0  0  0  0  0  0  0  0  0  0  0  0
    0.8090   -3.4259   -7.6672 H   0  0  0  0  0  0  0  0  0  0  0  0
   -0.4865   -2.2382   -7.5471 H   0  0  0  0  0  0  0  0  0  0  0  0
    1.1360   -1.8272   -6.9814 H   0  0  0  0  0  0  0  0  0  0  0  0
   -0.8135   -4.9576   -6.4324 H   0  0  0  0  0  0  0  0  0  0  0  0
   -1.4098   -5.8289   -4.2157 H   0  0  0  0  0  0  0  0  0  0  0  0
    1.1039   -4.7052    4.6359 H   0  0  0  0  0  0  0  0  0  0  0  0
    1.2987   -7.0903    5.0687 H   0  0  0  0  0  0  0  0  0  0  0  0
    1.0697  -10.7169    5.3711 H   0  0  0  0  0  0  0  0  0  0  0  0
    0.9496   -9.1340    6.1698 H   0  0  0  0  0  0  0  0  0  0  0  0
    1.9014   -9.3168    4.6593 H   0  0  0  0  0  0  0  0  0  0  0  0
   -2.3269   -7.7747    2.9033 H   0  0  0  0  0  0  0  0  0  0  0  0
   -2.5350   -5.3669    2.4859 H   0  0  0  0  0  0  0  0  0  0  0  0
    0.5017   -1.2448    2.8769 H   0  0  0  0  0  0  0  0  0  0  0  0
    0.9671    0.5132    4.5626 H   0  0  0  0  0  0  0  0  0  0  0  0
   -2.0389    0.2359    7.7323 H   0  0  0  0  0  0  0  0  0  0  0  0
   -1.5759    1.8849    8.2254 H   0  0  0  0  0  0  0  0  0  0  0  0
   -1.8056    1.5109    6.5024 H   0  0  0  0  0  0  0  0  0  0  0  0
   -0.7008   -1.9722    7.6015 H   0  0  0  0  0  0  0  0  0  0  0  0
   -1.1942   -3.7145    5.9215 H   0  0  0  0  0  0  0  0  0  0  0  0
   -2.1534   -0.3807   -1.7096 H   0  0  0  0  0  0  0  0  0  0  0  0
   -2.0742   -1.5016   -3.9013 H   0  0  0  0  0  0  0  0  0  0  0  0
   -5.3922   -4.2661   -6.6087 H   0  0  0  0  0  0  0  0  0  0  0  0
   -5.6986   -4.3252   -4.8594 H   0  0  0  0  0  0  0  0  0  0  0  0
   -6.3432   -2.9735   -5.8480 H   0  0  0  0  0  0  0  0  0  0  0  0
   -6.2571   -2.3463   -3.6128 H   0  0  0  0  0  0  0  0  0  0  0  0
   -6.3424   -1.1806   -1.4741 H   0  0  0  0  0  0  0  0  0  0  0  0
   -5.5590    0.7875    2.0583 H   0  0  0  0  0  0  0  0  0  0  0  0
   -7.2914    2.4906    2.2516 H   0  0  0  0  0  0  0  0  0  0  0  0
   -7.9091    5.2232   -1.5927 H   0  0  0  0  0  0  0  0  0  0  0  0
   -9.3013    4.1364   -1.8995 H   0  0  0  0  0  0  0  0  0  0  0  0
   -9.5446    5.6887   -1.0699 H   0  0  0  0  0  0  0  0  0  0  0  0
   -7.2636    3.0035   -1.9940 H   0  0  0  0  0  0  0  0  0  0  0  0
   -5.4949    1.3728   -2.1821 H   0  0  0  0  0  0  0  0  0  0  0  0
   -0.4854    2.6764   -2.4658 H   0  0  0  0  0  0  0  0  0  0  0  0
    1.4852    1.3590   -3.0262 H   0  0  0  0  0  0  0  0  0  0  0  0
    3.4894   -0.1716   -1.4320 H   0  0  0  0  0  0  0  0  0  0  0  0
    2.5973   -1.6561   -1.0921 H   0  0  0  0  0  0  0  0  0  0  0  0
    2.5932   -0.9714   -2.7197 H   0  0  0  0  0  0  0  0  0  0  0  0
    1.0207   -0.8878    0.5615 H   0  0  0  0  0  0  0  0  0  0  0  0
   -0.9271    0.4351    1.1400 H   0  0  0  0  0  0  0  0  0  0  0  0
   -3.9057    4.2523   -0.0892 H   0  0  0  0  0  0  0  0  0  0  0  0
   -5.2136    5.3167   -1.8046 H   0  0  0  0  0  0  0  0  0  0  0  0
   -4.7431    5.0715   -5.2598 H   0  0  0  0  0  0  0  0  0  0  0  0
   -5.9604    5.5152   -4.0601 H   0  0  0  0  0  0  0  0  0  0  0  0
   -6.0618    3.9631   -4.9036 H   0  0  0  0  0  0  0  0  0  0  0  0
   -3.7042    2.5690   -4.6915 H   0  0  0  0  0  0  0  0  0  0  0  0
   -2.3423    1.5194   -2.9955 H   0  0  0  0  0  0  0  0  0  0  0  0
    0.0333    4.6586    4.4492 H   0  0  0  0  0  0  0  0  0  0  0  0
    1.1690    3.7634    6.4337 H   0  0  0  0  0  0  0  0  0  0  0  0
    1.1308    4.5898    9.2548 H   0  0  0  0  0  0  0  0  0  0  0  0
   -0.3012    3.7644    9.8689 H   0  0  0  0  0  0  0  0  0  0  0  0
    0.8549    2.9032    8.8368 H   0  0  0  0  0  0  0  0  0  0  0  0
   -2.1619    4.8754    8.8499 H   0  0  0  0  0  0  0  0  0  0  0  0
   -3.3238    5.7253    6.8688 H   0  0  0  0  0  0  0  0  0  0  0  0
   -2.0338    7.8696    6.2398 H   0  0  0  0  0  0  0  0  0  0  0  0
   -3.5351    9.7893    6.5090 H   0  0  0  0  0  0  0  0  0  0  0  0
   -5.2089   11.3039    4.4990 H   0  0  0  0  0  0  0  0  0  0  0  0
   -5.8114   10.7370    6.0549 H   0  0  0  0  0  0  0  0  0  0  0  0
   -6.6572   10.2959    4.5604 H   0  0  0  0  0  0  0  0  0  0  0  0
   -5.8478    8.4632    3.1808 H   0  0  0  0  0  0  0  0  0  0  0  0
   -4.3742    6.5178    2.9290 H   0  0  0  0  0  0  0  0  0  0  0  0
   -1.3248    8.0068    3.1542 H   0  0  0  0  0  0  0  0  0  0  0  0
    4.5704   11.3767   -1.6986 H   0  0  0  0  0  0  0  0  0  0  0  0
    5.5655   10.5490   -0.5069 H   0  0  0  0  0  0  0  0  0  0  0  0
    4.7511   12.0613   -0.0753 H   0  0  0  0  0  0  0  0  0  0  0  0
    2.6775   11.6263    1.3872 H   0  0  0  0  0  0  0  0  0  0  0  0
  1  2  2  0  0  0  0
  2  3  1  0  0  0  0
  3  4  2  0  0  0  0
  3  5  1  0  0  0  0
  5  6  2  0  0  0  0
  6  7  1  0  0  0  0
  7  8  2  0  0  0  0
  8  9  1  0  0  0  0
  9 10  2  0  0  0  0
 10 11  1  0  0  0  0
 11 12  2  0  0  0  0
 12 13  1  0  0  0  0
 13 14  3  0  0  0  0
 12 15  1  0  0  0  0
 15 16  3  0  0  0  0
  8 17  1  0  0  0  0
 17 18  1  0  0  0  0
 18 19  1  0  0  0  0
 19 20  2  0  0  0  0
 20 21  1  0  0  0  0
 21 22  1  0  0  0  0
 21 23  1  0  0  0  0
  1 24  1  0  0  0  0
 24 25  2  0  0  0  0
 25 26  1  0  0  0  0
 26 27  1  0  0  0  0
 27 28  2  0  0  0  0
 28 29  1  0  0  0  0
 29 30  2  0  0  0  0
 30 31  1  0  0  0  0
 30 32  1  0  0  0  0
 32 33  2  0  0  0  0
 26 34  1  0  0  0  0
 34 35  2  0  0  0  0
 35 36  1  0  0  0  0
 36 37  2  0  0  0  0
 37 38  1  0  0  0  0
 37 39  1  0  0  0  0
 39 40  2  0  0  0  0
 25 41  1  0  0  0  0
 41 42  1  0  0  0  0
 42 43  1  0  0  0  0
 43 44  2  0  0  0  0
 44 45  1  0  0  0  0
 45 46  1  0  0  0  0
 46 47  2  0  0  0  0
 47 48  1  0  0  0  0
 48 49  2  0  0  0  0
 49 50  1  0  0  0  0
 49 51  1  0  0  0  0
 51 52  2  0  0  0  0
 45 53  1  0  0  0  0
 53 54  2  0  0  0  0
 54 55  1  0  0  0  0
 55 56  2  0  0  0  0
 56 57  1  0  0  0  0
 56 58  1  0  0  0  0
 58 59  2  0  0  0  0
 44 60  1  0  0  0  0
 60 61  1  0  0  0  0
 43 62  1  0  0  0  0
 62 63  2  0  0  0  0
 63 64  1  0  0  0  0
 64 65  1  0  0  0  0
 65 66  2  0  0  0  0
 66 67  1  0  0  0  0
 67 68  2  0  0  0  0
 68 69  1  0  0  0  0
 69 70  1  0  0  0  0
 68 71  1  0  0  0  0
 71 72  2  0  0  0  0
 64 73  1  0  0  0  0
 73 74  2  0  0  0  0
 74 75  1  0  0  0  0
 75 76  2  0  0  0  0
 76 77  1  0  0  0  0
 77 78  1  0  0  0  0
 76 79  1  0  0  0  0
 79 80  2  0  0  0  0
 63 81  1  0  0  0  0
 81 82  1  0  0  0  0
 82 83  1  0  0  0  0
 83 84  2  0  0  0  0
 84 85  1  0  0  0  0
 85 86  1  0  0  0  0
 86 87  2  0  0  0  0
 87 88  1  0  0  0  0
 88 89  2  0  0  0  0
 89 90  1  0  0  0  0
 90 91  1  0  0  0  0
 89 92  1  0  0  0  0
 92 93  2  0  0  0  0
 85 94  1  0  0  0  0
 94 95  2  0  0  0  0
 95 96  1  0  0  0  0
 96 97  2  0  0  0  0
 97 98  1  0  0  0  0
 98 99  1  0  0  0  0
 97100  1  0  0  0  0
100101  2  0  0  0  0
 84102  1  0  0  0  0
102103  1  0  0  0  0
 83104  1  0  0  0  0
104105  2  0  0  0  0
105106  1  0  0  0  0
106107  1  0  0  0  0
107108  2  0  0  0  0
108109  1  0  0  0  0
109110  2  0  0  0  0
110111  1  0  0  0  0
110112  1  0  0  0  0
112113  2  0  0  0  0
106114  1  0  0  0  0
114115  2  0  0  0  0
115116  1  0  0  0  0
116117  2  0  0  0  0
117118  1  0  0  0  0
117119  1  0  0  0  0
119120  2  0  0  0  0
105121  1  0  0  0  0
121122  1  0  0  0  0
122123  1  0  0  0  0
123124  2  0  0  0  0
124125  1  0  0  0  0
125126  1  0  0  0  0
126127  2  0  0  0  0
127128  1  0  0  0  0
128129  2  0  0  0  0
129130  1  0  0  0  0
129131  1  0  0  0  0
131132  2  0  0  0  0
125133  1  0  0  0  0
133134  2  0  0  0  0
134135  1  0  0  0  0
135136  2  0  0  0  0
136137  1  0  0  0  0
136138  1  0  0  0  0
138139  2  0  0  0  0
124140  1  0  0  0  0
140141  1  0  0  0  0
123142  1  0  0  0  0
142143  2  0  0  0  0
143144  1  0  0  0  0
144145  2  0  0  0  0
144146  1  0  0  0  0
146147  1  0  0  0  0
147148  1  0  0  0  0
148149  1  0  0  0  0
148150  2  0  0  0  0
150151  1  0  0  0  0
151152  1  0  0  0  0
152153  2  0  0  0  0
153154  1  0  0  0  0
154155  3  0  0  0  0
153156  1  0  0  0  0
156157  3  0  0  0  0
 11  2  1  0  0  0  0
 23 17  1  0  0  0  0
 61 24  1  0  0  0  0
103 62  1  0  0  0  0
141104  1  0  0  0  0
152143  1  0  0  0  0
 10  5  1  0  0  0  0
 22 18  1  0  0  0  0
 33 27  1  0  0  0  0
 40 34  1  0  0  0  0
 60 41  2  0  0  0  0
 72 65  1  0  0  0  0
 80 73  1  0  0  0  0
102 81  2  0  0  0  0
113107  1  0  0  0  0
120114  1  0  0  0  0
140121  2  0  0  0  0
151146  2  0  0  0  0
 23  7  1  0  0  0  0
 52 46  1  0  0  0  0
 59 53  1  0  0  0  0
 93 86  1  0  0  0  0
101 94  1  0  0  0  0
132126  1  0  0  0  0
139133  1  0  0  0  0
  1158  1  0  0  0  0
  6159  1  0  0  0  0
  9160  1  0  0  0  0
 17161  1  0  0  0  0
 18162  1  0  0  0  0
 19163  1  0  0  0  0
 20164  1  0  0  0  0
 21165  1  0  0  0  0
 22166  1  0  0  0  0
 22167  1  0  0  0  0
 23168  1  0  0  0  0
 28169  1  0  0  0  0
 29170  1  0  0  0  0
 31171  1  0  0  0  0
 31172  1  0  0  0  0
 31173  1  0  0  0  0
 32174  1  0  0  0  0
 33175  1  0  0  0  0
 35176  1  0  0  0  0
 36177  1  0  0  0  0
 38178  1  0  0  0  0
 38179  1  0  0  0  0
 38180  1  0  0  0  0
 39181  1  0  0  0  0
 40182  1  0  0  0  0
 47183  1  0  0  0  0
 48184  1  0  0  0  0
 50185  1  0  0  0  0
 50186  1  0  0  0  0
 50187  1  0  0  0  0
 51188  1  0  0  0  0
 52189  1  0  0  0  0
 54190  1  0  0  0  0
 55191  1  0  0  0  0
 57192  1  0  0  0  0
 57193  1  0  0  0  0
 57194  1  0  0  0  0
 58195  1  0  0  0  0
 59196  1  0  0  0  0
 66197  1  0  0  0  0
 67198  1  0  0  0  0
 70199  1  0  0  0  0
 70200  1  0  0  0  0
 70201  1  0  0  0  0
 71202  1  0  0  0  0
 72203  1  0  0  0  0
 74204  1  0  0  0  0
 75205  1  0  0  0  0
 78206  1  0  0  0  0
 78207  1  0  0  0  0
 78208  1  0  0  0  0
 79209  1  0  0  0  0
 80210  1  0  0  0  0
 87211  1  0  0  0  0
 88212  1  0  0  0  0
 91213  1  0  0  0  0
 91214  1  0  0  0  0
 91215  1  0  0  0  0
 92216  1  0  0  0  0
 93217  1  0  0  0  0
 95218  1  0  0  0  0
 96219  1  0  0  0  0
 99220  1  0  0  0  0
 99221  1  0  0  0  0
 99222  1  0  0  0  0
100223  1  0  0  0  0
101224  1  0  0  0  0
108225  1  0  0  0  0
109226  1  0  0  0  0
111227  1  0  0  0  0
111228  1  0  0  0  0
111229  1  0  0  0  0
112230  1  0  0  0  0
113231  1  0  0  0  0
115232  1  0  0  0  0
116233  1  0  0  0  0
118234  1  0  0  0  0
118235  1  0  0  0  0
118236  1  0  0  0  0
119237  1  0  0  0  0
120238  1  0  0  0  0
127239  1  0  0  0  0
128240  1  0  0  0  0
130241  1  0  0  0  0
130242  1  0  0  0  0
130243  1  0  0  0  0
131244  1  0  0  0  0
132245  1  0  0  0  0
134246  1  0  0  0  0
135247  1  0  0  0  0
137248  1  0  0  0  0
137249  1  0  0  0  0
137250  1  0  0  0  0
138251  1  0  0  0  0
139252  1  0  0  0  0
142253  1  0  0  0  0
149254  1  0  0  0  0
149255  1  0  0  0  0
149256  1  0  0  0  0
150257  1  0  0  0  0
M  END
