
  xtb     02062214503D
 energy: -440.420633505133 gnorm: 0.000642298037 xtb: 6.4.1 (unknown)
280306  0     0  0            999 V2000
   -8.0647    1.1487   -6.6249 C   0  0  0  0  0  0  0  0  0  0  0  0
   -9.2378    1.8291   -6.4567 C   0  0  0  0  0  0  0  0  0  0  0  0
  -10.3389    1.5500   -5.5082 C   0  0  0  0  0  0  0  0  0  0  0  0
  -10.3437    0.8039   -4.5503 O   0  0  0  0  0  0  0  0  0  0  0  0
  -11.4908    2.3336   -6.0021 C   0  0  0  0  0  0  0  0  0  0  0  0
  -12.7806    2.3447   -5.4746 C   0  0  0  0  0  0  0  0  0  0  0  0
  -13.6531    3.1692   -6.1439 C   0  0  0  0  0  0  0  0  0  0  0  0
  -13.2750    3.9288   -7.2593 C   0  0  0  0  0  0  0  0  0  0  0  0
  -12.0062    3.9332   -7.7876 C   0  0  0  0  0  0  0  0  0  0  0  0
  -11.1034    3.1009   -7.1194 C   0  0  0  0  0  0  0  0  0  0  0  0
   -9.6848    2.8705   -7.3601 C   0  0  0  0  0  0  0  0  0  0  0  0
   -8.8688    3.6113   -8.1776 C   0  0  0  0  0  0  0  0  0  0  0  0
   -9.3222    4.6245   -9.0455 C   0  0  0  0  0  0  0  0  0  0  0  0
   -9.6360    5.4443   -9.7859 N   0  0  0  0  0  0  0  0  0  0  0  0
   -7.4614    3.5113   -8.1888 C   0  0  0  0  0  0  0  0  0  0  0  0
   -6.3124    3.5214   -8.2043 N   0  0  0  0  0  0  0  0  0  0  0  0
  -14.6535    4.5170   -7.4276 C   0  0  0  0  0  0  0  0  0  0  0  0
  -15.5256    3.9249   -8.5547 C   0  0  0  0  0  0  0  0  0  0  0  0
  -16.9306    4.3352   -8.1774 C   0  0  0  0  0  0  0  0  0  0  0  0
  -17.2898    3.6188   -7.1198 C   0  0  0  0  0  0  0  0  0  0  0  0
  -16.1337    2.7116   -6.7650 C   0  0  0  0  0  0  0  0  0  0  0  0
  -15.5706    2.4414   -8.1662 C   0  0  0  0  0  0  0  0  0  0  0  0
  -15.0753    3.6723   -6.1828 C   0  0  0  0  0  0  0  0  0  0  0  0
   -7.3771    0.2837   -5.7526 C   0  0  0  0  0  0  0  0  0  0  0  0
   -7.5301    0.0438   -4.4080 C   0  0  0  0  0  0  0  0  0  0  0  0
   -6.4644   -0.6731   -3.8336 C   0  0  0  0  0  0  0  0  0  0  0  0
   -6.2739   -0.9800   -2.4620 C   0  0  0  0  0  0  0  0  0  0  0  0
   -7.3253   -0.7892   -1.4956 C   0  0  0  0  0  0  0  0  0  0  0  0
   -8.6875   -0.8607   -1.6735 C   0  0  0  0  0  0  0  0  0  0  0  0
   -9.4133   -0.5913   -0.5038 C   0  0  0  0  0  0  0  0  0  0  0  0
   -8.6356   -0.3102    0.5865 C   0  0  0  0  0  0  0  0  0  0  0  0
   -9.0678    0.1025    2.3797 Si  0  0  0  0  0  4  0  0  0  0  0  0
   -9.3987   -1.5333    3.3216 C   0  0  0  0  0  0  0  0  0  0  0  0
  -10.1256   -2.5873    2.4920 C   0  0  0  0  0  0  0  0  0  0  0  0
   -7.5176    0.9407    3.1266 C   0  0  0  0  0  0  0  0  0  0  0  0
   -7.2374    2.3213    2.5435 C   0  0  0  0  0  0  0  0  0  0  0  0
  -10.5535    1.3097    2.4396 C   0  0  0  0  0  0  0  0  0  0  0  0
  -11.9169    0.6500    2.2634 C   0  0  0  0  0  0  0  0  0  0  0  0
   -6.9627   -0.4071    0.1614 S   0  0  0  0  0  0  0  0  0  0  0  0
   -4.9913   -1.3937   -2.1147 C   0  0  0  0  0  0  0  0  0  0  0  0
   -3.9599   -1.6236   -3.0568 C   0  0  0  0  0  0  0  0  0  0  0  0
   -4.2038   -1.4811   -4.4368 C   0  0  0  0  0  0  0  0  0  0  0  0
   -3.1659   -1.7805   -5.3983 C   0  0  0  0  0  0  0  0  0  0  0  0
   -2.2504   -2.8004   -5.3530 C   0  0  0  0  0  0  0  0  0  0  0  0
   -1.3502   -2.7826   -6.4313 C   0  0  0  0  0  0  0  0  0  0  0  0
   -1.5512   -1.7541   -7.3077 C   0  0  0  0  0  0  0  0  0  0  0  0
   -0.6754   -1.3115   -8.9184 Si  0  0  0  0  0  4  0  0  0  0  0  0
   -0.6426    0.5983   -9.0322 C   0  0  0  0  0  0  0  0  0  0  0  0
    0.1321    1.2610   -7.8960 C   0  0  0  0  0  0  0  0  0  0  0  0
   -1.6664   -2.0539  -10.3773 C   0  0  0  0  0  0  0  0  0  0  0  0
   -3.1575   -1.7371  -10.3172 C   0  0  0  0  0  0  0  0  0  0  0  0
    1.0887   -2.0423   -8.8500 C   0  0  0  0  0  0  0  0  0  0  0  0
    1.8821   -1.7853  -10.1251 C   0  0  0  0  0  0  0  0  0  0  0  0
   -2.8977   -0.7906   -6.8017 S   0  0  0  0  0  0  0  0  0  0  0  0
   -5.4434   -0.9564   -4.7815 C   0  0  0  0  0  0  0  0  0  0  0  0
   -5.9027   -0.4463   -6.3757 S   0  0  0  0  0  0  0  0  0  0  0  0
   -2.6984   -1.7963   -2.4374 C   0  0  0  0  0  0  0  0  0  0  0  0
   -2.7462   -1.6773   -1.0833 C   0  0  0  0  0  0  0  0  0  0  0  0
   -4.3855   -1.5461   -0.4871 S   0  0  0  0  0  0  0  0  0  0  0  0
   -1.6470   -1.4725   -0.1904 C   0  0  0  0  0  0  0  0  0  0  0  0
   -1.5283   -0.4233    0.7070 C   0  0  0  0  0  0  0  0  0  0  0  0
   -2.4368    0.6193    0.8367 N   0  0  0  0  0  0  0  0  0  0  0  0
   -3.0550    1.1620   -0.3013 C   0  0  0  0  0  0  0  0  0  0  0  0
   -4.3799    1.6021   -0.2500 C   0  0  0  0  0  0  0  0  0  0  0  0
   -5.0117    2.0527   -1.3851 C   0  0  0  0  0  0  0  0  0  0  0  0
   -4.3468    2.0771   -2.6104 C   0  0  0  0  0  0  0  0  0  0  0  0
   -5.2953    2.6151   -4.0001 S   0  0  0  0  0  0  0  0  0  0  0  0
   -4.1307    2.5963   -5.3903 C   0  0  0  0  0  0  0  0  0  0  0  0
   -3.0197    1.6770   -2.6628 C   0  0  0  0  0  0  0  0  0  0  0  0
   -2.3817    1.2318   -1.5187 C   0  0  0  0  0  0  0  0  0  0  0  0
   -2.7823    1.0609    2.1184 C   0  0  0  0  0  0  0  0  0  0  0  0
   -2.8060    0.1692    3.1904 C   0  0  0  0  0  0  0  0  0  0  0  0
   -3.2138    0.5909    4.4369 C   0  0  0  0  0  0  0  0  0  0  0  0
   -3.6214    1.9055    4.6357 C   0  0  0  0  0  0  0  0  0  0  0  0
   -4.1973    2.3367    6.2507 S   0  0  0  0  0  0  0  0  0  0  0  0
   -5.1494    3.8561    5.9592 C   0  0  0  0  0  0  0  0  0  0  0  0
   -3.5566    2.8093    3.5844 C   0  0  0  0  0  0  0  0  0  0  0  0
   -3.1281    2.3915    2.3421 C   0  0  0  0  0  0  0  0  0  0  0  0
   -0.2824   -0.4799    1.3796 C   0  0  0  0  0  0  0  0  0  0  0  0
    0.4859    0.4854    2.5935 S   0  0  0  0  0  0  0  0  0  0  0  0
    1.9679   -0.4491    2.4222 C   0  0  0  0  0  0  0  0  0  0  0  0
    1.8223   -1.5040    1.5290 C   0  0  0  0  0  0  0  0  0  0  0  0
    2.7953   -2.4531    1.2245 N   0  0  0  0  0  0  0  0  0  0  0  0
    3.0075   -2.7411   -0.1294 C   0  0  0  0  0  0  0  0  0  0  0  0
    3.3001   -4.0357   -0.5573 C   0  0  0  0  0  0  0  0  0  0  0  0
    3.4424   -4.3035   -1.9007 C   0  0  0  0  0  0  0  0  0  0  0  0
    3.2818   -3.2934   -2.8479 C   0  0  0  0  0  0  0  0  0  0  0  0
    3.4479   -3.7650   -4.5432 S   0  0  0  0  0  0  0  0  0  0  0  0
    3.2160   -2.2126   -5.4533 C   0  0  0  0  0  0  0  0  0  0  0  0
    3.0071   -2.0008   -2.4259 C   0  0  0  0  0  0  0  0  0  0  0  0
    2.8830   -1.7298   -1.0785 C   0  0  0  0  0  0  0  0  0  0  0  0
    3.5471   -3.0474    2.2380 C   0  0  0  0  0  0  0  0  0  0  0  0
    4.8828   -3.3886    2.0260 C   0  0  0  0  0  0  0  0  0  0  0  0
    5.6616   -3.8687    3.0589 C   0  0  0  0  0  0  0  0  0  0  0  0
    5.1130   -4.0452    4.3216 C   0  0  0  0  0  0  0  0  0  0  0  0
    6.0512   -4.5560    5.7312 S   0  0  0  0  0  0  0  0  0  0  0  0
    7.4905   -5.3894    5.0017 C   0  0  0  0  0  0  0  0  0  0  0  0
    3.7638   -3.7641    4.5246 C   0  0  0  0  0  0  0  0  0  0  0  0
    2.9921   -3.2596    3.5003 C   0  0  0  0  0  0  0  0  0  0  0  0
    0.5393   -1.5059    0.9422 C   0  0  0  0  0  0  0  0  0  0  0  0
   -0.2059   -2.4644   -0.2876 S   0  0  0  0  0  0  0  0  0  0  0  0
    3.2146   -0.0759    3.0088 C   0  0  0  0  0  0  0  0  0  0  0  0
    3.5534    0.4236    4.2556 C   0  0  0  0  0  0  0  0  0  0  0  0
    2.6927    0.6426    5.3281 N   0  0  0  0  0  0  0  0  0  0  0  0
    1.6491    1.5652    5.2511 C   0  0  0  0  0  0  0  0  0  0  0  0
    0.5558    1.4491    6.1093 C   0  0  0  0  0  0  0  0  0  0  0  0
   -0.4315    2.4104    6.1208 C   0  0  0  0  0  0  0  0  0  0  0  0
   -0.3413    3.5056    5.2714 C   0  0  0  0  0  0  0  0  0  0  0  0
   -1.5110    4.8331    5.3342 S   0  0  0  0  0  0  0  0  0  0  0  0
   -1.7996    4.9607    7.1290 C   0  0  0  0  0  0  0  0  0  0  0  0
    0.7033    3.5898    4.3610 C   0  0  0  0  0  0  0  0  0  0  0  0
    1.6935    2.6295    4.3498 C   0  0  0  0  0  0  0  0  0  0  0  0
    3.1720    0.1959    6.5755 C   0  0  0  0  0  0  0  0  0  0  0  0
    3.8194   -1.0363    6.6367 C   0  0  0  0  0  0  0  0  0  0  0  0
    4.4297   -1.4650    7.7965 C   0  0  0  0  0  0  0  0  0  0  0  0
    4.3901   -0.6661    8.9315 C   0  0  0  0  0  0  0  0  0  0  0  0
    5.1889   -1.1025   10.4432 S   0  0  0  0  0  0  0  0  0  0  0  0
    6.5196   -2.2117    9.8946 C   0  0  0  0  0  0  0  0  0  0  0  0
    3.6909    0.5381    8.8944 C   0  0  0  0  0  0  0  0  0  0  0  0
    3.0942    0.9723    7.7304 C   0  0  0  0  0  0  0  0  0  0  0  0
    4.9606    0.5440    4.3854 C   0  0  0  0  0  0  0  0  0  0  0  0
    5.9895    0.9834    5.6938 S   0  0  0  0  0  0  0  0  0  0  0  0
    7.4239    0.5762    4.7398 C   0  0  0  0  0  0  0  0  0  0  0  0
    7.0835    0.0598    3.4716 C   0  0  0  0  0  0  0  0  0  0  0  0
    7.9098   -0.5998    2.6019 N   0  0  0  0  0  0  0  0  0  0  0  0
    9.0522   -1.2881    3.0286 C   0  0  0  0  0  0  0  0  0  0  0  0
    9.0799   -1.9786    4.2384 C   0  0  0  0  0  0  0  0  0  0  0  0
   10.2379   -2.5913    4.6767 C   0  0  0  0  0  0  0  0  0  0  0  0
   11.3959   -2.5262    3.9092 C   0  0  0  0  0  0  0  0  0  0  0  0
   12.9561   -3.1754    4.4001 S   0  0  0  0  0  0  0  0  0  0  0  0
   12.6550   -3.8789    6.0441 C   0  0  0  0  0  0  0  0  0  0  0  0
   11.3516   -1.8957    2.6657 C   0  0  0  0  0  0  0  0  0  0  0  0
   10.1984   -1.2857    2.2294 C   0  0  0  0  0  0  0  0  0  0  0  0
    7.5434   -0.6985    1.2470 C   0  0  0  0  0  0  0  0  0  0  0  0
    7.6404   -1.9202    0.5882 C   0  0  0  0  0  0  0  0  0  0  0  0
    7.2382   -2.0463   -0.7266 C   0  0  0  0  0  0  0  0  0  0  0  0
    6.7426   -0.9429   -1.4086 C   0  0  0  0  0  0  0  0  0  0  0  0
    6.1863   -1.0012   -3.0785 S   0  0  0  0  0  0  0  0  0  0  0  0
    6.6946   -2.6481   -3.6492 C   0  0  0  0  0  0  0  0  0  0  0  0
    6.6782    0.2907   -0.7623 C   0  0  0  0  0  0  0  0  0  0  0  0
    7.0753    0.4156    0.5509 C   0  0  0  0  0  0  0  0  0  0  0  0
    5.6854    0.1330    3.2777 C   0  0  0  0  0  0  0  0  0  0  0  0
    4.6330   -0.3008    1.9819 S   0  0  0  0  0  0  0  0  0  0  0  0
    8.6476    0.7338    5.3888 C   0  0  0  0  0  0  0  0  0  0  0  0
    9.8936    0.7928    4.8036 C   0  0  0  0  0  0  0  0  0  0  0  0
   10.1613    1.2618    3.4359 C   0  0  0  0  0  0  0  0  0  0  0  0
    9.3477    1.6323    2.6089 O   0  0  0  0  0  0  0  0  0  0  0  0
   11.6357    1.3104    3.3165 C   0  0  0  0  0  0  0  0  0  0  0  0
   12.3784    1.6740    2.1979 C   0  0  0  0  0  0  0  0  0  0  0  0
   13.7396    1.5911    2.3777 C   0  0  0  0  0  0  0  0  0  0  0  0
   14.3228    1.2004    3.5888 C   0  0  0  0  0  0  0  0  0  0  0  0
   13.6018    0.8456    4.7044 C   0  0  0  0  0  0  0  0  0  0  0  0
   12.2174    0.9040    4.5340 C   0  0  0  0  0  0  0  0  0  0  0  0
   11.1455    0.5471    5.4578 C   0  0  0  0  0  0  0  0  0  0  0  0
   11.2922   -0.0989    6.6637 C   0  0  0  0  0  0  0  0  0  0  0  0
   10.2185   -0.6400    7.3967 C   0  0  0  0  0  0  0  0  0  0  0  0
    9.4054   -1.1705    8.0134 N   0  0  0  0  0  0  0  0  0  0  0  0
   12.5274   -0.4032    7.2631 C   0  0  0  0  0  0  0  0  0  0  0  0
   13.4953   -0.6969    7.8092 N   0  0  0  0  0  0  0  0  0  0  0  0
   15.7261    1.3393    3.0521 C   0  0  0  0  0  0  0  0  0  0  0  0
   16.4545    0.0274    2.6930 C   0  0  0  0  0  0  0  0  0  0  0  0
   17.5608    0.4683    1.7626 C   0  0  0  0  0  0  0  0  0  0  0  0
   17.0033    0.8201    0.6110 C   0  0  0  0  0  0  0  0  0  0  0  0
   15.5101    0.6247    0.7449 C   0  0  0  0  0  0  0  0  0  0  0  0
   15.4863   -0.5929    1.6781 C   0  0  0  0  0  0  0  0  0  0  0  0
   15.0747    1.7605    1.6958 C   0  0  0  0  0  0  0  0  0  0  0  0
   -7.5431    1.3149   -7.5613 H   0  0  0  0  0  0  0  0  0  0  0  0
  -13.0308    1.7495   -4.6103 H   0  0  0  0  0  0  0  0  0  0  0  0
  -11.7250    4.5221   -8.6450 H   0  0  0  0  0  0  0  0  0  0  0  0
  -14.7158    5.6019   -7.3671 H   0  0  0  0  0  0  0  0  0  0  0  0
  -15.1974    4.1703   -9.5610 H   0  0  0  0  0  0  0  0  0  0  0  0
  -17.4790    5.1182   -8.6674 H   0  0  0  0  0  0  0  0  0  0  0  0
  -18.1982    3.6840   -6.5501 H   0  0  0  0  0  0  0  0  0  0  0  0
  -16.3607    1.8510   -6.1413 H   0  0  0  0  0  0  0  0  0  0  0  0
  -14.5979    1.9528   -8.1667 H   0  0  0  0  0  0  0  0  0  0  0  0
  -16.2634    1.8746   -8.7860 H   0  0  0  0  0  0  0  0  0  0  0  0
  -15.4186    4.1949   -5.2918 H   0  0  0  0  0  0  0  0  0  0  0  0
   -8.3512    0.4486   -3.8489 H   0  0  0  0  0  0  0  0  0  0  0  0
   -9.1551   -1.1319   -2.6024 H   0  0  0  0  0  0  0  0  0  0  0  0
  -10.4878   -0.6015   -0.4686 H   0  0  0  0  0  0  0  0  0  0  0  0
   -8.4489   -1.9509    3.6595 H   0  0  0  0  0  0  0  0  0  0  0  0
   -9.9798   -1.3263    4.2210 H   0  0  0  0  0  0  0  0  0  0  0  0
  -11.0980   -2.2253    2.1698 H   0  0  0  0  0  0  0  0  0  0  0  0
   -9.5489   -2.8382    1.6052 H   0  0  0  0  0  0  0  0  0  0  0  0
  -10.2759   -3.4968    3.0710 H   0  0  0  0  0  0  0  0  0  0  0  0
   -6.6501    0.3032    2.9475 H   0  0  0  0  0  0  0  0  0  0  0  0
   -7.6157    1.0255    4.2095 H   0  0  0  0  0  0  0  0  0  0  0  0
   -6.2877    2.7111    2.9084 H   0  0  0  0  0  0  0  0  0  0  0  0
   -8.0252    3.0206    2.8137 H   0  0  0  0  0  0  0  0  0  0  0  0
   -7.1851    2.2759    1.4585 H   0  0  0  0  0  0  0  0  0  0  0  0
  -10.4317    2.0749    1.6716 H   0  0  0  0  0  0  0  0  0  0  0  0
  -10.5432    1.8303    3.3986 H   0  0  0  0  0  0  0  0  0  0  0  0
  -12.7121    1.3926    2.3060 H   0  0  0  0  0  0  0  0  0  0  0  0
  -11.9795    0.1432    1.3042 H   0  0  0  0  0  0  0  0  0  0  0  0
  -12.0939   -0.0805    3.0486 H   0  0  0  0  0  0  0  0  0  0  0  0
   -2.2526   -3.5582   -4.5893 H   0  0  0  0  0  0  0  0  0  0  0  0
   -0.5685   -3.5103   -6.5594 H   0  0  0  0  0  0  0  0  0  0  0  0
   -1.6671    0.9732   -9.0181 H   0  0  0  0  0  0  0  0  0  0  0  0
   -0.2126    0.9114   -9.9845 H   0  0  0  0  0  0  0  0  0  0  0  0
    1.1768    0.9595   -7.9125 H   0  0  0  0  0  0  0  0  0  0  0  0
    0.0892    2.3451   -7.9814 H   0  0  0  0  0  0  0  0  0  0  0  0
   -0.2884    0.9793   -6.9333 H   0  0  0  0  0  0  0  0  0  0  0  0
   -1.2645   -1.6799  -11.3198 H   0  0  0  0  0  0  0  0  0  0  0  0
   -1.5367   -3.1373  -10.3935 H   0  0  0  0  0  0  0  0  0  0  0  0
   -3.5994   -2.1400   -9.4091 H   0  0  0  0  0  0  0  0  0  0  0  0
   -3.3252   -0.6632  -10.3248 H   0  0  0  0  0  0  0  0  0  0  0  0
   -3.6788   -2.1696  -11.1691 H   0  0  0  0  0  0  0  0  0  0  0  0
    1.6274   -1.6132   -8.0051 H   0  0  0  0  0  0  0  0  0  0  0  0
    1.0423   -3.1172   -8.6742 H   0  0  0  0  0  0  0  0  0  0  0  0
    1.3858   -2.2350  -10.9809 H   0  0  0  0  0  0  0  0  0  0  0  0
    1.9770   -0.7184  -10.3095 H   0  0  0  0  0  0  0  0  0  0  0  0
    2.8833   -2.2077  -10.0534 H   0  0  0  0  0  0  0  0  0  0  0  0
   -1.7736   -1.8768   -2.9793 H   0  0  0  0  0  0  0  0  0  0  0  0
   -4.9192    1.5573    0.6825 H   0  0  0  0  0  0  0  0  0  0  0  0
   -6.0416    2.3730   -1.3430 H   0  0  0  0  0  0  0  0  0  0  0  0
   -3.7578    1.5894   -5.5541 H   0  0  0  0  0  0  0  0  0  0  0  0
   -3.3197    3.2929   -5.2003 H   0  0  0  0  0  0  0  0  0  0  0  0
   -4.7042    2.9208   -6.2548 H   0  0  0  0  0  0  0  0  0  0  0  0
   -2.4694    1.6999   -3.5899 H   0  0  0  0  0  0  0  0  0  0  0  0
   -1.3480    0.9239   -1.5773 H   0  0  0  0  0  0  0  0  0  0  0  0
   -2.5330   -0.8640    3.0352 H   0  0  0  0  0  0  0  0  0  0  0  0
   -3.2455   -0.1027    5.2631 H   0  0  0  0  0  0  0  0  0  0  0  0
   -5.6571    4.0717    6.8943 H   0  0  0  0  0  0  0  0  0  0  0  0
   -5.8770    3.6782    5.1731 H   0  0  0  0  0  0  0  0  0  0  0  0
   -4.4841    4.6752    5.7020 H   0  0  0  0  0  0  0  0  0  0  0  0
   -3.8199    3.8450    3.7221 H   0  0  0  0  0  0  0  0  0  0  0  0
   -3.0708    3.1030    1.5324 H   0  0  0  0  0  0  0  0  0  0  0  0
    3.3992   -4.8299    0.1672 H   0  0  0  0  0  0  0  0  0  0  0  0
    3.6601   -5.3067   -2.2356 H   0  0  0  0  0  0  0  0  0  0  0  0
    2.2030   -1.8466   -5.3098 H   0  0  0  0  0  0  0  0  0  0  0  0
    3.9521   -1.4804   -5.1328 H   0  0  0  0  0  0  0  0  0  0  0  0
    3.3730   -2.4642   -6.4978 H   0  0  0  0  0  0  0  0  0  0  0  0
    2.8959   -1.1935   -3.1304 H   0  0  0  0  0  0  0  0  0  0  0  0
    2.6867   -0.7183   -0.7553 H   0  0  0  0  0  0  0  0  0  0  0  0
    5.3220   -3.2308    1.0528 H   0  0  0  0  0  0  0  0  0  0  0  0
    6.7020   -4.0851    2.8736 H   0  0  0  0  0  0  0  0  0  0  0  0
    7.9796   -5.9036    5.8234 H   0  0  0  0  0  0  0  0  0  0  0  0
    8.1722   -4.6642    4.5648 H   0  0  0  0  0  0  0  0  0  0  0  0
    7.1535   -6.1090    4.2616 H   0  0  0  0  0  0  0  0  0  0  0  0
    3.3288   -3.9456    5.4958 H   0  0  0  0  0  0  0  0  0  0  0  0
    1.9527   -3.0249    3.6749 H   0  0  0  0  0  0  0  0  0  0  0  0
    0.4942    0.6046    6.7790 H   0  0  0  0  0  0  0  0  0  0  0  0
   -1.2676    2.3037    6.7935 H   0  0  0  0  0  0  0  0  0  0  0  0
   -0.8446    4.9145    7.6425 H   0  0  0  0  0  0  0  0  0  0  0  0
   -2.4597    4.1670    7.4662 H   0  0  0  0  0  0  0  0  0  0  0  0
   -2.2658    5.9270    7.2940 H   0  0  0  0  0  0  0  0  0  0  0  0
    0.7509    4.4294    3.6846 H   0  0  0  0  0  0  0  0  0  0  0  0
    2.5264    2.7204    3.6683 H   0  0  0  0  0  0  0  0  0  0  0  0
    3.8691   -1.6518    5.7511 H   0  0  0  0  0  0  0  0  0  0  0  0
    4.9386   -2.4157    7.7972 H   0  0  0  0  0  0  0  0  0  0  0  0
    7.1648   -2.3414   10.7579 H   0  0  0  0  0  0  0  0  0  0  0  0
    7.0755   -1.7453    9.0871 H   0  0  0  0  0  0  0  0  0  0  0  0
    6.1141   -3.1730    9.5930 H   0  0  0  0  0  0  0  0  0  0  0  0
    3.6501    1.1474    9.7841 H   0  0  0  0  0  0  0  0  0  0  0  0
    2.5972    1.9302    7.7045 H   0  0  0  0  0  0  0  0  0  0  0  0
    8.1929   -2.0256    4.8533 H   0  0  0  0  0  0  0  0  0  0  0  0
   10.2263   -3.1004    5.6273 H   0  0  0  0  0  0  0  0  0  0  0  0
   12.3306   -3.1039    6.7318 H   0  0  0  0  0  0  0  0  0  0  0  0
   11.9285   -4.6836    5.9782 H   0  0  0  0  0  0  0  0  0  0  0  0
   13.6134   -4.2719    6.3686 H   0  0  0  0  0  0  0  0  0  0  0  0
   12.2432   -1.8725    2.0582 H   0  0  0  0  0  0  0  0  0  0  0  0
   10.1790   -0.7769    1.2779 H   0  0  0  0  0  0  0  0  0  0  0  0
    8.0258   -2.7820    1.1131 H   0  0  0  0  0  0  0  0  0  0  0  0
    7.3057   -3.0120   -1.2013 H   0  0  0  0  0  0  0  0  0  0  0  0
    6.1257   -3.4154   -3.1320 H   0  0  0  0  0  0  0  0  0  0  0  0
    6.4650   -2.6798   -4.7098 H   0  0  0  0  0  0  0  0  0  0  0  0
    7.7630   -2.7724   -3.5001 H   0  0  0  0  0  0  0  0  0  0  0  0
    6.3176    1.1497   -1.3067 H   0  0  0  0  0  0  0  0  0  0  0  0
    7.0566    1.3744    1.0444 H   0  0  0  0  0  0  0  0  0  0  0  0
    8.5851    0.8377    6.4660 H   0  0  0  0  0  0  0  0  0  0  0  0
   11.8932    1.9785    1.2835 H   0  0  0  0  0  0  0  0  0  0  0  0
   14.0597    0.5503    5.6340 H   0  0  0  0  0  0  0  0  0  0  0  0
   16.3636    2.0559    3.5664 H   0  0  0  0  0  0  0  0  0  0  0  0
   16.7420   -0.5815    3.5454 H   0  0  0  0  0  0  0  0  0  0  0  0
   18.5950    0.5304    2.0462 H   0  0  0  0  0  0  0  0  0  0  0  0
   17.4783    1.2354   -0.2585 H   0  0  0  0  0  0  0  0  0  0  0  0
   14.9409    0.5605   -0.1789 H   0  0  0  0  0  0  0  0  0  0  0  0
   14.5061   -0.8214    2.0922 H   0  0  0  0  0  0  0  0  0  0  0  0
   15.8985   -1.4832    1.2060 H   0  0  0  0  0  0  0  0  0  0  0  0
   15.2874    2.7517    1.2994 H   0  0  0  0  0  0  0  0  0  0  0  0
  1  2  2  0  0  0  0
  2  3  1  0  0  0  0
  3  4  2  0  0  0  0
  3  5  1  0  0  0  0
  5  6  2  0  0  0  0
  6  7  1  0  0  0  0
  7  8  2  0  0  0  0
  8  9  1  0  0  0  0
  9 10  2  0  0  0  0
 10 11  1  0  0  0  0
 11 12  2  0  0  0  0
 12 13  1  0  0  0  0
 13 14  3  0  0  0  0
 12 15  1  0  0  0  0
 15 16  3  0  0  0  0
  8 17  1  0  0  0  0
 17 18  1  0  0  0  0
 18 19  1  0  0  0  0
 19 20  2  0  0  0  0
 20 21  1  0  0  0  0
 21 22  1  0  0  0  0
 21 23  1  0  0  0  0
  1 24  1  0  0  0  0
 24 25  2  0  0  0  0
 25 26  1  0  0  0  0
 26 27  2  0  0  0  0
 27 28  1  0  0  0  0
 28 29  2  0  0  0  0
 29 30  1  0  0  0  0
 30 31  2  0  0  0  0
 31 32  1  0  0  0  0
 32 33  1  0  0  0  0
 33 34  1  0  0  0  0
 32 35  1  0  0  0  0
 35 36  1  0  0  0  0
 32 37  1  0  0  0  0
 37 38  1  0  0  0  0
 31 39  1  0  0  0  0
 27 40  1  0  0  0  0
 40 41  2  0  0  0  0
 41 42  1  0  0  0  0
 42 43  1  0  0  0  0
 43 44  2  0  0  0  0
 44 45  1  0  0  0  0
 45 46  2  0  0  0  0
 46 47  1  0  0  0  0
 47 48  1  0  0  0  0
 48 49  1  0  0  0  0
 47 50  1  0  0  0  0
 50 51  1  0  0  0  0
 47 52  1  0  0  0  0
 52 53  1  0  0  0  0
 46 54  1  0  0  0  0
 42 55  2  0  0  0  0
 55 56  1  0  0  0  0
 41 57  1  0  0  0  0
 57 58  2  0  0  0  0
 58 59  1  0  0  0  0
 58 60  1  0  0  0  0
 60 61  2  0  0  0  0
 61 62  1  0  0  0  0
 62 63  1  0  0  0  0
 63 64  2  0  0  0  0
 64 65  1  0  0  0  0
 65 66  2  0  0  0  0
 66 67  1  0  0  0  0
 67 68  1  0  0  0  0
 66 69  1  0  0  0  0
 69 70  2  0  0  0  0
 62 71  1  0  0  0  0
 71 72  2  0  0  0  0
 72 73  1  0  0  0  0
 73 74  2  0  0  0  0
 74 75  1  0  0  0  0
 75 76  1  0  0  0  0
 74 77  1  0  0  0  0
 77 78  2  0  0  0  0
 61 79  1  0  0  0  0
 79 80  1  0  0  0  0
 80 81  1  0  0  0  0
 81 82  2  0  0  0  0
 82 83  1  0  0  0  0
 83 84  1  0  0  0  0
 84 85  2  0  0  0  0
 85 86  1  0  0  0  0
 86 87  2  0  0  0  0
 87 88  1  0  0  0  0
 88 89  1  0  0  0  0
 87 90  1  0  0  0  0
 90 91  2  0  0  0  0
 83 92  1  0  0  0  0
 92 93  2  0  0  0  0
 93 94  1  0  0  0  0
 94 95  2  0  0  0  0
 95 96  1  0  0  0  0
 96 97  1  0  0  0  0
 95 98  1  0  0  0  0
 98 99  2  0  0  0  0
 82100  1  0  0  0  0
100101  1  0  0  0  0
 81102  1  0  0  0  0
102103  2  0  0  0  0
103104  1  0  0  0  0
104105  1  0  0  0  0
105106  2  0  0  0  0
106107  1  0  0  0  0
107108  2  0  0  0  0
108109  1  0  0  0  0
109110  1  0  0  0  0
108111  1  0  0  0  0
111112  2  0  0  0  0
104113  1  0  0  0  0
113114  2  0  0  0  0
114115  1  0  0  0  0
115116  2  0  0  0  0
116117  1  0  0  0  0
117118  1  0  0  0  0
116119  1  0  0  0  0
119120  2  0  0  0  0
103121  1  0  0  0  0
121122  1  0  0  0  0
122123  1  0  0  0  0
123124  2  0  0  0  0
124125  1  0  0  0  0
125126  1  0  0  0  0
126127  2  0  0  0  0
127128  1  0  0  0  0
128129  2  0  0  0  0
129130  1  0  0  0  0
130131  1  0  0  0  0
129132  1  0  0  0  0
132133  2  0  0  0  0
125134  1  0  0  0  0
134135  2  0  0  0  0
135136  1  0  0  0  0
136137  2  0  0  0  0
137138  1  0  0  0  0
138139  1  0  0  0  0
137140  1  0  0  0  0
140141  2  0  0  0  0
124142  1  0  0  0  0
142143  1  0  0  0  0
123144  1  0  0  0  0
144145  2  0  0  0  0
145146  1  0  0  0  0
146147  2  0  0  0  0
146148  1  0  0  0  0
148149  2  0  0  0  0
149150  1  0  0  0  0
150151  2  0  0  0  0
151152  1  0  0  0  0
152153  2  0  0  0  0
153154  1  0  0  0  0
154155  2  0  0  0  0
155156  1  0  0  0  0
156157  3  0  0  0  0
155158  1  0  0  0  0
158159  3  0  0  0  0
151160  1  0  0  0  0
160161  1  0  0  0  0
161162  1  0  0  0  0
162163  2  0  0  0  0
163164  1  0  0  0  0
164165  1  0  0  0  0
164166  1  0  0  0  0
 11  2  1  0  0  0  0
 23 17  1  0  0  0  0
 56 24  1  0  0  0  0
101 60  1  0  0  0  0
143102  1  0  0  0  0
154145  1  0  0  0  0
166160  1  0  0  0  0
 10  5  1  0  0  0  0
 22 18  1  0  0  0  0
 55 26  1  0  0  0  0
 70 63  1  0  0  0  0
 78 71  1  0  0  0  0
100 79  2  0  0  0  0
112105  1  0  0  0  0
120113  1  0  0  0  0
142121  2  0  0  0  0
153148  1  0  0  0  0
165161  1  0  0  0  0
 23  7  1  0  0  0  0
 39 28  1  0  0  0  0
 59 40  1  0  0  0  0
 91 84  1  0  0  0  0
 99 92  1  0  0  0  0
133126  1  0  0  0  0
141134  1  0  0  0  0
166150  1  0  0  0  0
 54 43  1  0  0  0  0
  1167  1  0  0  0  0
  6168  1  0  0  0  0
  9169  1  0  0  0  0
 17170  1  0  0  0  0
 18171  1  0  0  0  0
 19172  1  0  0  0  0
 20173  1  0  0  0  0
 21174  1  0  0  0  0
 22175  1  0  0  0  0
 22176  1  0  0  0  0
 23177  1  0  0  0  0
 25178  1  0  0  0  0
 29179  1  0  0  0  0
 30180  1  0  0  0  0
 33181  1  0  0  0  0
 33182  1  0  0  0  0
 34183  1  0  0  0  0
 34184  1  0  0  0  0
 34185  1  0  0  0  0
 35186  1  0  0  0  0
 35187  1  0  0  0  0
 36188  1  0  0  0  0
 36189  1  0  0  0  0
 36190  1  0  0  0  0
 37191  1  0  0  0  0
 37192  1  0  0  0  0
 38193  1  0  0  0  0
 38194  1  0  0  0  0
 38195  1  0  0  0  0
 44196  1  0  0  0  0
 45197  1  0  0  0  0
 48198  1  0  0  0  0
 48199  1  0  0  0  0
 49200  1  0  0  0  0
 49201  1  0  0  0  0
 49202  1  0  0  0  0
 50203  1  0  0  0  0
 50204  1  0  0  0  0
 51205  1  0  0  0  0
 51206  1  0  0  0  0
 51207  1  0  0  0  0
 52208  1  0  0  0  0
 52209  1  0  0  0  0
 53210  1  0  0  0  0
 53211  1  0  0  0  0
 53212  1  0  0  0  0
 57213  1  0  0  0  0
 64214  1  0  0  0  0
 65215  1  0  0  0  0
 68216  1  0  0  0  0
 68217  1  0  0  0  0
 68218  1  0  0  0  0
 69219  1  0  0  0  0
 70220  1  0  0  0  0
 72221  1  0  0  0  0
 73222  1  0  0  0  0
 76223  1  0  0  0  0
 76224  1  0  0  0  0
 76225  1  0  0  0  0
 77226  1  0  0  0  0
 78227  1  0  0  0  0
 85228  1  0  0  0  0
 86229  1  0  0  0  0
 89230  1  0  0  0  0
 89231  1  0  0  0  0
 89232  1  0  0  0  0
 90233  1  0  0  0  0
 91234  1  0  0  0  0
 93235  1  0  0  0  0
 94236  1  0  0  0  0
 97237  1  0  0  0  0
 97238  1  0  0  0  0
 97239  1  0  0  0  0
 98240  1  0  0  0  0
 99241  1  0  0  0  0
106242  1  0  0  0  0
107243  1  0  0  0  0
110244  1  0  0  0  0
110245  1  0  0  0  0
110246  1  0  0  0  0
111247  1  0  0  0  0
112248  1  0  0  0  0
114249  1  0  0  0  0
115250  1  0  0  0  0
118251  1  0  0  0  0
118252  1  0  0  0  0
118253  1  0  0  0  0
119254  1  0  0  0  0
120255  1  0  0  0  0
127256  1  0  0  0  0
128257  1  0  0  0  0
131258  1  0  0  0  0
131259  1  0  0  0  0
131260  1  0  0  0  0
132261  1  0  0  0  0
133262  1  0  0  0  0
135263  1  0  0  0  0
136264  1  0  0  0  0
139265  1  0  0  0  0
139266  1  0  0  0  0
139267  1  0  0  0  0
140268  1  0  0  0  0
141269  1  0  0  0  0
144270  1  0  0  0  0
149271  1  0  0  0  0
152272  1  0  0  0  0
160273  1  0  0  0  0
161274  1  0  0  0  0
162275  1  0  0  0  0
163276  1  0  0  0  0
164277  1  0  0  0  0
165278  1  0  0  0  0
165279  1  0  0  0  0
166280  1  0  0  0  0
M  END
