
  xtb     02132206233D
 energy: -396.600534963542 gnorm: 0.000553096584 xtb: 6.4.1 (unknown)
251273  0     0  0            999 V2000
    1.3798    8.0363   -3.4974 C   0  0  0  0  0  0  0  0  0  0  0  0
    2.5474    8.7353   -3.3266 C   0  0  0  0  0  0  0  0  0  0  0  0
    2.5536   10.2107   -3.4525 C   0  0  0  0  0  0  0  0  0  0  0  0
    1.6379   10.9169   -3.8174 O   0  0  0  0  0  0  0  0  0  0  0  0
    3.8894   10.6423   -2.9888 C   0  0  0  0  0  0  0  0  0  0  0  0
    4.3693   11.9457   -2.8924 C   0  0  0  0  0  0  0  0  0  0  0  0
    5.6775   12.0357   -2.4783 C   0  0  0  0  0  0  0  0  0  0  0  0
    6.4577   10.9097   -2.1873 C   0  0  0  0  0  0  0  0  0  0  0  0
    5.9961    9.6175   -2.2751 C   0  0  0  0  0  0  0  0  0  0  0  0
    4.6658    9.5070   -2.6842 C   0  0  0  0  0  0  0  0  0  0  0  0
    3.8666    8.3120   -2.9535 C   0  0  0  0  0  0  0  0  0  0  0  0
    4.3583    7.0290   -3.0640 C   0  0  0  0  0  0  0  0  0  0  0  0
    3.6783    5.9984   -3.7342 C   0  0  0  0  0  0  0  0  0  0  0  0
    3.1947    5.1356   -4.3208 N   0  0  0  0  0  0  0  0  0  0  0  0
    5.6174    6.6144   -2.5974 C   0  0  0  0  0  0  0  0  0  0  0  0
    6.6049    6.2000   -2.1795 N   0  0  0  0  0  0  0  0  0  0  0  0
    7.6875   11.7358   -1.8994 C   0  0  0  0  0  0  0  0  0  0  0  0
    8.1030   11.9645   -0.4263 C   0  0  0  0  0  0  0  0  0  0  0  0
    6.8444   11.8623    0.3974 C   0  0  0  0  0  0  0  0  0  0  0  0
    6.0985   12.9258    0.1304 C   0  0  0  0  0  0  0  0  0  0  0  0
    6.8404   13.7683   -0.8765 C   0  0  0  0  0  0  0  0  0  0  0  0
    8.2896   13.4904   -0.4444 C   0  0  0  0  0  0  0  0  0  0  0  0
    6.8157   12.9918   -2.2155 C   0  0  0  0  0  0  0  0  0  0  0  0
    1.0132    6.7591   -3.0422 C   0  0  0  0  0  0  0  0  0  0  0  0
    1.4740    5.9772   -1.9663 C   0  0  0  0  0  0  0  0  0  0  0  0
    2.3280    6.4049   -0.9792 N   0  0  0  0  0  0  0  0  0  0  0  0
    2.3198    7.7474   -0.5577 C   0  0  0  0  0  0  0  0  0  0  0  0
    1.1392    8.4851   -0.5377 C   0  0  0  0  0  0  0  0  0  0  0  0
    1.1546    9.8137   -0.1683 C   0  0  0  0  0  0  0  0  0  0  0  0
    2.3373   10.4403    0.2073 C   0  0  0  0  0  0  0  0  0  0  0  0
    2.3597   11.8945    0.5564 C   0  0  0  0  0  0  0  0  0  0  0  0
    3.5026    9.6850    0.2357 C   0  0  0  0  0  0  0  0  0  0  0  0
    3.5025    8.3566   -0.1431 C   0  0  0  0  0  0  0  0  0  0  0  0
    3.0605    5.4741   -0.2094 C   0  0  0  0  0  0  0  0  0  0  0  0
    3.1444    5.6285    1.1723 C   0  0  0  0  0  0  0  0  0  0  0  0
    3.9169    4.7650    1.9204 C   0  0  0  0  0  0  0  0  0  0  0  0
    4.6192    3.7241    1.3214 C   0  0  0  0  0  0  0  0  0  0  0  0
    5.4851    2.8251    2.1450 C   0  0  0  0  0  0  0  0  0  0  0  0
    4.5019    3.5584   -0.0512 C   0  0  0  0  0  0  0  0  0  0  0  0
    3.7360    4.4192   -0.8144 C   0  0  0  0  0  0  0  0  0  0  0  0
    0.8456    4.7124   -1.9671 C   0  0  0  0  0  0  0  0  0  0  0  0
    0.9370    3.3234   -0.9472 S   0  0  0  0  0  0  0  0  0  0  0  0
   -0.2786    2.4890   -1.9221 C   0  0  0  0  0  0  0  0  0  0  0  0
   -0.7402    3.2717   -2.9617 C   0  0  0  0  0  0  0  0  0  0  0  0
   -1.6436    2.8725   -3.9327 N   0  0  0  0  0  0  0  0  0  0  0  0
   -2.8564    2.2753   -3.5536 C   0  0  0  0  0  0  0  0  0  0  0  0
   -3.5851    2.7807   -2.4805 C   0  0  0  0  0  0  0  0  0  0  0  0
   -4.8074    2.2263   -2.1491 C   0  0  0  0  0  0  0  0  0  0  0  0
   -5.3286    1.1620   -2.8704 C   0  0  0  0  0  0  0  0  0  0  0  0
   -6.6683    0.5803   -2.5436 C   0  0  0  0  0  0  0  0  0  0  0  0
   -4.5804    0.6467   -3.9247 C   0  0  0  0  0  0  0  0  0  0  0  0
   -3.3608    1.1911   -4.2671 C   0  0  0  0  0  0  0  0  0  0  0  0
   -1.4096    3.2347   -5.2664 C   0  0  0  0  0  0  0  0  0  0  0  0
   -2.4677    3.4403   -6.1502 C   0  0  0  0  0  0  0  0  0  0  0  0
   -2.2210    3.7980   -7.4600 C   0  0  0  0  0  0  0  0  0  0  0  0
   -0.9244    3.9869   -7.9258 C   0  0  0  0  0  0  0  0  0  0  0  0
   -0.6747    4.3974   -9.3452 C   0  0  0  0  0  0  0  0  0  0  0  0
    0.1236    3.7984   -7.0354 C   0  0  0  0  0  0  0  0  0  0  0  0
   -0.1075    3.4132   -5.7295 C   0  0  0  0  0  0  0  0  0  0  0  0
   -0.0956    4.5364   -2.9692 C   0  0  0  0  0  0  0  0  0  0  0  0
   -0.2721    5.9469   -3.9396 S   0  0  0  0  0  0  0  0  0  0  0  0
   -0.5705    1.1502   -1.4899 C   0  0  0  0  0  0  0  0  0  0  0  0
    0.4262    0.2438   -1.1807 C   0  0  0  0  0  0  0  0  0  0  0  0
    1.7560    0.4102   -1.5524 N   0  0  0  0  0  0  0  0  0  0  0  0
    2.7463    0.1335   -0.6113 C   0  0  0  0  0  0  0  0  0  0  0  0
    2.4907    0.3546    0.7440 C   0  0  0  0  0  0  0  0  0  0  0  0
    3.4332    0.0386    1.6942 C   0  0  0  0  0  0  0  0  0  0  0  0
    4.6641   -0.4903    1.3151 C   0  0  0  0  0  0  0  0  0  0  0  0
    5.8017   -0.8730    2.6161 S   0  0  0  0  0  0  0  0  0  0  0  0
    7.3697   -1.1674    1.7517 C   0  0  0  0  0  0  0  0  0  0  0  0
    4.9321   -0.6985   -0.0301 C   0  0  0  0  0  0  0  0  0  0  0  0
    3.9801   -0.3941   -0.9832 C   0  0  0  0  0  0  0  0  0  0  0  0
    2.0425    0.7405   -2.8848 C   0  0  0  0  0  0  0  0  0  0  0  0
    1.2371    0.2591   -3.9136 C   0  0  0  0  0  0  0  0  0  0  0  0
    1.5151    0.5614   -5.2319 C   0  0  0  0  0  0  0  0  0  0  0  0
    2.6085    1.3561   -5.5474 C   0  0  0  0  0  0  0  0  0  0  0  0
    3.0764    1.7827   -7.1941 S   0  0  0  0  0  0  0  0  0  0  0  0
    1.8227    0.9747   -8.2307 C   0  0  0  0  0  0  0  0  0  0  0  0
    3.4056    1.8593   -4.5206 C   0  0  0  0  0  0  0  0  0  0  0  0
    3.1258    1.5573   -3.2066 C   0  0  0  0  0  0  0  0  0  0  0  0
   -0.0839   -0.8790   -0.4911 C   0  0  0  0  0  0  0  0  0  0  0  0
    0.6298   -2.3015    0.1631 S   0  0  0  0  0  0  0  0  0  0  0  0
   -0.9310   -2.8036    0.8017 C   0  0  0  0  0  0  0  0  0  0  0  0
   -1.9564   -1.9413    0.4592 C   0  0  0  0  0  0  0  0  0  0  0  0
   -3.2944   -2.1224    0.7594 N   0  0  0  0  0  0  0  0  0  0  0  0
   -3.8343   -3.4147    0.8927 C   0  0  0  0  0  0  0  0  0  0  0  0
   -3.4994   -4.4392    0.0139 C   0  0  0  0  0  0  0  0  0  0  0  0
   -4.0237   -5.7097    0.1768 C   0  0  0  0  0  0  0  0  0  0  0  0
   -4.8935   -5.9780    1.2244 C   0  0  0  0  0  0  0  0  0  0  0  0
   -5.5938   -7.5569    1.5893 S   0  0  0  0  0  0  0  0  0  0  0  0
   -5.2539   -8.5803    0.1286 C   0  0  0  0  0  0  0  0  0  0  0  0
   -5.2625   -4.9401    2.0799 C   0  0  0  0  0  0  0  0  0  0  0  0
   -4.7496   -3.6763    1.9119 C   0  0  0  0  0  0  0  0  0  0  0  0
   -4.1267   -1.0141    0.9561 C   0  0  0  0  0  0  0  0  0  0  0  0
   -5.4745   -1.0765    0.5974 C   0  0  0  0  0  0  0  0  0  0  0  0
   -6.2970    0.0102    0.7811 C   0  0  0  0  0  0  0  0  0  0  0  0
   -5.7925    1.2006    1.2990 C   0  0  0  0  0  0  0  0  0  0  0  0
   -6.9284    2.5496    1.4344 S   0  0  0  0  0  0  0  0  0  0  0  0
   -5.8568    3.9760    1.7734 C   0  0  0  0  0  0  0  0  0  0  0  0
   -4.4605    1.2663    1.6744 C   0  0  0  0  0  0  0  0  0  0  0  0
   -3.6412    0.1659    1.5124 C   0  0  0  0  0  0  0  0  0  0  0  0
   -1.4499   -0.8325   -0.2757 C   0  0  0  0  0  0  0  0  0  0  0  0
   -2.1574    0.5801   -0.9938 S   0  0  0  0  0  0  0  0  0  0  0  0
   -0.9851   -4.0420    1.5412 C   0  0  0  0  0  0  0  0  0  0  0  0
   -1.2372   -4.2239    2.8828 C   0  0  0  0  0  0  0  0  0  0  0  0
   -1.3223   -3.1607    3.7996 N   0  0  0  0  0  0  0  0  0  0  0  0
   -0.1326   -2.5894    4.2617 C   0  0  0  0  0  0  0  0  0  0  0  0
   -0.1239   -1.8360    5.4380 C   0  0  0  0  0  0  0  0  0  0  0  0
    1.0454   -1.2744    5.9064 C   0  0  0  0  0  0  0  0  0  0  0  0
    2.2531   -1.4508    5.2408 C   0  0  0  0  0  0  0  0  0  0  0  0
    3.5173   -0.8439    5.7698 C   0  0  0  0  0  0  0  0  0  0  0  0
    2.2491   -2.2315    4.0946 C   0  0  0  0  0  0  0  0  0  0  0  0
    1.0835   -2.7949    3.6111 C   0  0  0  0  0  0  0  0  0  0  0  0
   -2.5745   -2.7144    4.2586 C   0  0  0  0  0  0  0  0  0  0  0  0
   -2.8582   -1.3495    4.2598 C   0  0  0  0  0  0  0  0  0  0  0  0
   -4.0868   -0.8903    4.6828 C   0  0  0  0  0  0  0  0  0  0  0  0
   -5.0675   -1.7718    5.1273 C   0  0  0  0  0  0  0  0  0  0  0  0
   -6.4013   -1.2537    5.5710 C   0  0  0  0  0  0  0  0  0  0  0  0
   -4.7726   -3.1276    5.1408 C   0  0  0  0  0  0  0  0  0  0  0  0
   -3.5473   -3.6006    4.7048 C   0  0  0  0  0  0  0  0  0  0  0  0
   -1.2156   -5.5982    3.2208 C   0  0  0  0  0  0  0  0  0  0  0  0
   -1.4655   -6.4741    4.6844 S   0  0  0  0  0  0  0  0  0  0  0  0
   -1.1986   -8.0017    3.8411 C   0  0  0  0  0  0  0  0  0  0  0  0
   -0.7844   -7.8073    2.5162 C   0  0  0  0  0  0  0  0  0  0  0  0
   -0.1977   -8.7689    1.7361 N   0  0  0  0  0  0  0  0  0  0  0  0
   -0.2394   -8.6779    0.3357 C   0  0  0  0  0  0  0  0  0  0  0  0
    0.8647   -9.0370   -0.4298 C   0  0  0  0  0  0  0  0  0  0  0  0
    0.8036   -8.9576   -1.8077 C   0  0  0  0  0  0  0  0  0  0  0  0
   -0.3458   -8.5198   -2.4525 C   0  0  0  0  0  0  0  0  0  0  0  0
   -0.4178   -8.4345   -3.9462 C   0  0  0  0  0  0  0  0  0  0  0  0
   -1.4434   -8.1631   -1.6766 C   0  0  0  0  0  0  0  0  0  0  0  0
   -1.3962   -8.2400   -0.3006 C   0  0  0  0  0  0  0  0  0  0  0  0
    0.5023   -9.8432    2.3230 C   0  0  0  0  0  0  0  0  0  0  0  0
    1.3410   -9.6314    3.4133 C   0  0  0  0  0  0  0  0  0  0  0  0
    2.0124  -10.6916    3.9882 C   0  0  0  0  0  0  0  0  0  0  0  0
    1.8763  -11.9828    3.4915 C   0  0  0  0  0  0  0  0  0  0  0  0
    2.6221  -13.1290    4.1023 C   0  0  0  0  0  0  0  0  0  0  0  0
    1.0550  -12.1806    2.3883 C   0  0  0  0  0  0  0  0  0  0  0  0
    0.3746  -11.1294    1.8062 C   0  0  0  0  0  0  0  0  0  0  0  0
   -0.8725   -6.4365    2.1682 C   0  0  0  0  0  0  0  0  0  0  0  0
   -0.5974   -5.5422    0.7171 S   0  0  0  0  0  0  0  0  0  0  0  0
   -1.4640   -9.1999    4.5330 C   0  0  0  0  0  0  0  0  0  0  0  0
   -1.8914  -10.3657    3.9567 C   0  0  0  0  0  0  0  0  0  0  0  0
   -2.3447  -10.3976    2.6266 C   0  0  0  0  0  0  0  0  0  0  0  0
   -2.7800  -10.3745    1.5634 N   0  0  0  0  0  0  0  0  0  0  0  0
   -1.9949  -11.6261    4.7097 C   0  0  0  0  0  0  0  0  0  0  0  0
   -2.4074  -12.6659    4.2544 O   0  0  0  0  0  0  0  0  0  0  0  0
   -1.5478  -11.4903    5.9719 O   0  0  0  0  0  0  0  0  0  0  0  0
   -1.5596  -12.6660    6.7774 C   0  0  0  0  0  0  0  0  0  0  0  0
   -0.3432  -13.5380    6.5022 C   0  0  0  0  0  0  0  0  0  0  0  0
    0.6086    8.5721   -4.0435 H   0  0  0  0  0  0  0  0  0  0  0  0
    3.7450   12.7864   -3.1533 H   0  0  0  0  0  0  0  0  0  0  0  0
    6.6071    8.7573   -2.0552 H   0  0  0  0  0  0  0  0  0  0  0  0
    8.5432   11.5396   -2.5429 H   0  0  0  0  0  0  0  0  0  0  0  0
    8.9436   11.3608   -0.0944 H   0  0  0  0  0  0  0  0  0  0  0  0
    6.6173   11.0270    1.0343 H   0  0  0  0  0  0  0  0  0  0  0  0
    5.1161   13.1609    0.4948 H   0  0  0  0  0  0  0  0  0  0  0  0
    6.5314   14.8078   -0.9511 H   0  0  0  0  0  0  0  0  0  0  0  0
    8.5221   13.8984    0.5384 H   0  0  0  0  0  0  0  0  0  0  0  0
    9.0307   13.8286   -1.1672 H   0  0  0  0  0  0  0  0  0  0  0  0
    7.1116   13.6155   -3.0573 H   0  0  0  0  0  0  0  0  0  0  0  0
    0.2078    8.0143   -0.8144 H   0  0  0  0  0  0  0  0  0  0  0  0
    0.2311   10.3732   -0.1713 H   0  0  0  0  0  0  0  0  0  0  0  0
    2.7158   12.4677   -0.3003 H   0  0  0  0  0  0  0  0  0  0  0  0
    1.3646   12.2496    0.8122 H   0  0  0  0  0  0  0  0  0  0  0  0
    3.0299   12.0803    1.3932 H   0  0  0  0  0  0  0  0  0  0  0  0
    4.4290   10.1507    0.5358 H   0  0  0  0  0  0  0  0  0  0  0  0
    4.4188    7.7845   -0.1188 H   0  0  0  0  0  0  0  0  0  0  0  0
    2.6070    6.4329    1.6532 H   0  0  0  0  0  0  0  0  0  0  0  0
    3.9808    4.9026    2.9900 H   0  0  0  0  0  0  0  0  0  0  0  0
    6.0364    2.1358    1.5122 H   0  0  0  0  0  0  0  0  0  0  0  0
    4.8810    2.2449    2.8406 H   0  0  0  0  0  0  0  0  0  0  0  0
    6.1947    3.4108    2.7274 H   0  0  0  0  0  0  0  0  0  0  0  0
    5.0365    2.7541   -0.5354 H   0  0  0  0  0  0  0  0  0  0  0  0
    3.6774    4.2878   -1.8837 H   0  0  0  0  0  0  0  0  0  0  0  0
   -3.1939    3.6200   -1.9231 H   0  0  0  0  0  0  0  0  0  0  0  0
   -5.3741    2.6360   -1.3265 H   0  0  0  0  0  0  0  0  0  0  0  0
   -7.1745    1.1755   -1.7888 H   0  0  0  0  0  0  0  0  0  0  0  0
   -6.5555   -0.4350   -2.1655 H   0  0  0  0  0  0  0  0  0  0  0  0
   -7.2923    0.5386   -3.4353 H   0  0  0  0  0  0  0  0  0  0  0  0
   -4.9664   -0.1913   -4.4877 H   0  0  0  0  0  0  0  0  0  0  0  0
   -2.7914    0.7918   -5.0937 H   0  0  0  0  0  0  0  0  0  0  0  0
   -3.4847    3.3265   -5.8055 H   0  0  0  0  0  0  0  0  0  0  0  0
   -3.0543    3.9491   -8.1315 H   0  0  0  0  0  0  0  0  0  0  0  0
    0.3831    4.3311   -9.5867 H   0  0  0  0  0  0  0  0  0  0  0  0
   -0.9978    5.4267   -9.5012 H   0  0  0  0  0  0  0  0  0  0  0  0
   -1.2345    3.7661  -10.0340 H   0  0  0  0  0  0  0  0  0  0  0  0
    1.1420    3.9527   -7.3602 H   0  0  0  0  0  0  0  0  0  0  0  0
    0.7308    3.2562   -5.0686 H   0  0  0  0  0  0  0  0  0  0  0  0
    1.5478    0.7841    1.0471 H   0  0  0  0  0  0  0  0  0  0  0  0
    3.2211    0.1972    2.7400 H   0  0  0  0  0  0  0  0  0  0  0  0
    8.1208   -1.2607    2.5299 H   0  0  0  0  0  0  0  0  0  0  0  0
    7.6020   -0.3202    1.1131 H   0  0  0  0  0  0  0  0  0  0  0  0
    7.3175   -2.0896    1.1800 H   0  0  0  0  0  0  0  0  0  0  0  0
    5.8729   -1.1151   -0.3534 H   0  0  0  0  0  0  0  0  0  0  0  0
    4.1910   -0.5827   -2.0252 H   0  0  0  0  0  0  0  0  0  0  0  0
    0.3882   -0.3672   -3.6811 H   0  0  0  0  0  0  0  0  0  0  0  0
    0.8702    0.1681   -6.0008 H   0  0  0  0  0  0  0  0  0  0  0  0
    1.8653   -0.1022   -8.0954 H   0  0  0  0  0  0  0  0  0  0  0  0
    2.0857    1.2258   -9.2536 H   0  0  0  0  0  0  0  0  0  0  0  0
    0.8379    1.3695   -7.9954 H   0  0  0  0  0  0  0  0  0  0  0  0
    4.2368    2.5013   -4.7668 H   0  0  0  0  0  0  0  0  0  0  0  0
    3.7433    1.9523   -2.4157 H   0  0  0  0  0  0  0  0  0  0  0  0
   -2.8246   -4.2440   -0.8069 H   0  0  0  0  0  0  0  0  0  0  0  0
   -3.7454   -6.4792   -0.5244 H   0  0  0  0  0  0  0  0  0  0  0  0
   -5.9446   -9.4150    0.1994 H   0  0  0  0  0  0  0  0  0  0  0  0
   -5.4549   -8.0096   -0.7725 H   0  0  0  0  0  0  0  0  0  0  0  0
   -4.2364   -8.9580    0.1579 H   0  0  0  0  0  0  0  0  0  0  0  0
   -5.9572   -5.1428    2.8798 H   0  0  0  0  0  0  0  0  0  0  0  0
   -5.0538   -2.8763    2.5668 H   0  0  0  0  0  0  0  0  0  0  0  0
   -5.8725   -1.9851    0.1715 H   0  0  0  0  0  0  0  0  0  0  0  0
   -7.3406   -0.0455    0.5124 H   0  0  0  0  0  0  0  0  0  0  0  0
   -5.0656    4.0244    1.0309 H   0  0  0  0  0  0  0  0  0  0  0  0
   -6.4962    4.8497    1.6927 H   0  0  0  0  0  0  0  0  0  0  0  0
   -5.4496    3.9114    2.7784 H   0  0  0  0  0  0  0  0  0  0  0  0
   -4.0434    2.1630    2.1037 H   0  0  0  0  0  0  0  0  0  0  0  0
   -2.6127    0.2273    1.8304 H   0  0  0  0  0  0  0  0  0  0  0  0
   -1.0388   -1.7022    5.9951 H   0  0  0  0  0  0  0  0  0  0  0  0
    1.0202   -0.6937    6.8180 H   0  0  0  0  0  0  0  0  0  0  0  0
    3.3516    0.1880    6.0754 H   0  0  0  0  0  0  0  0  0  0  0  0
    3.8631   -1.3970    6.6435 H   0  0  0  0  0  0  0  0  0  0  0  0
    4.3033   -0.8690    5.0187 H   0  0  0  0  0  0  0  0  0  0  0  0
    3.1737   -2.4044    3.5630 H   0  0  0  0  0  0  0  0  0  0  0  0
    1.1350   -3.4029    2.7214 H   0  0  0  0  0  0  0  0  0  0  0  0
   -2.0995   -0.6559    3.9299 H   0  0  0  0  0  0  0  0  0  0  0  0
   -4.2962    0.1696    4.6614 H   0  0  0  0  0  0  0  0  0  0  0  0
   -7.0755   -2.0707    5.8141 H   0  0  0  0  0  0  0  0  0  0  0  0
   -6.2902   -0.6225    6.4523 H   0  0  0  0  0  0  0  0  0  0  0  0
   -6.8525   -0.6496    4.7843 H   0  0  0  0  0  0  0  0  0  0  0  0
   -5.5129   -3.8320    5.4916 H   0  0  0  0  0  0  0  0  0  0  0  0
   -3.3513   -4.6605    4.7160 H   0  0  0  0  0  0  0  0  0  0  0  0
    1.7669   -9.3766    0.0572 H   0  0  0  0  0  0  0  0  0  0  0  0
    1.6685   -9.2394   -2.3907 H   0  0  0  0  0  0  0  0  0  0  0  0
    0.5106   -8.7693   -4.4013 H   0  0  0  0  0  0  0  0  0  0  0  0
   -0.6074   -7.4081   -4.2582 H   0  0  0  0  0  0  0  0  0  0  0  0
   -1.2323   -9.0521   -4.3227 H   0  0  0  0  0  0  0  0  0  0  0  0
   -2.3492   -7.8332   -2.1654 H   0  0  0  0  0  0  0  0  0  0  0  0
   -2.2533   -7.9893    0.3030 H   0  0  0  0  0  0  0  0  0  0  0  0
    1.4690   -8.6337    3.8073 H   0  0  0  0  0  0  0  0  0  0  0  0
    2.6602  -10.5098    4.8337 H   0  0  0  0  0  0  0  0  0  0  0  0
    3.5227  -13.3367    3.5232 H   0  0  0  0  0  0  0  0  0  0  0  0
    2.9220  -12.9020    5.1224 H   0  0  0  0  0  0  0  0  0  0  0  0
    2.0126  -14.0298    4.1036 H   0  0  0  0  0  0  0  0  0  0  0  0
    0.9365  -13.1745    1.9830 H   0  0  0  0  0  0  0  0  0  0  0  0
   -0.2671  -11.2998    0.9556 H   0  0  0  0  0  0  0  0  0  0  0  0
   -1.3738   -9.1784    5.6110 H   0  0  0  0  0  0  0  0  0  0  0  0
   -2.4789  -13.2265    6.5774 H   0  0  0  0  0  0  0  0  0  0  0  0
   -1.5612  -12.3025    7.8074 H   0  0  0  0  0  0  0  0  0  0  0  0
   -0.3758  -13.8982    5.4770 H   0  0  0  0  0  0  0  0  0  0  0  0
   -0.3426  -14.3890    7.1773 H   0  0  0  0  0  0  0  0  0  0  0  0
    0.5691  -12.9642    6.6464 H   0  0  0  0  0  0  0  0  0  0  0  0
  1  2  2  0  0  0  0
  2  3  1  0  0  0  0
  3  4  2  0  0  0  0
  3  5  1  0  0  0  0
  5  6  2  0  0  0  0
  6  7  1  0  0  0  0
  7  8  2  0  0  0  0
  8  9  1  0  0  0  0
  9 10  2  0  0  0  0
 10 11  1  0  0  0  0
 11 12  2  0  0  0  0
 12 13  1  0  0  0  0
 13 14  3  0  0  0  0
 12 15  1  0  0  0  0
 15 16  3  0  0  0  0
  8 17  1  0  0  0  0
 17 18  1  0  0  0  0
 18 19  1  0  0  0  0
 19 20  2  0  0  0  0
 20 21  1  0  0  0  0
 21 22  1  0  0  0  0
 21 23  1  0  0  0  0
  1 24  1  0  0  0  0
 24 25  2  0  0  0  0
 25 26  1  0  0  0  0
 26 27  1  0  0  0  0
 27 28  2  0  0  0  0
 28 29  1  0  0  0  0
 29 30  2  0  0  0  0
 30 31  1  0  0  0  0
 30 32  1  0  0  0  0
 32 33  2  0  0  0  0
 26 34  1  0  0  0  0
 34 35  2  0  0  0  0
 35 36  1  0  0  0  0
 36 37  2  0  0  0  0
 37 38  1  0  0  0  0
 37 39  1  0  0  0  0
 39 40  2  0  0  0  0
 25 41  1  0  0  0  0
 41 42  1  0  0  0  0
 42 43  1  0  0  0  0
 43 44  2  0  0  0  0
 44 45  1  0  0  0  0
 45 46  1  0  0  0  0
 46 47  2  0  0  0  0
 47 48  1  0  0  0  0
 48 49  2  0  0  0  0
 49 50  1  0  0  0  0
 49 51  1  0  0  0  0
 51 52  2  0  0  0  0
 45 53  1  0  0  0  0
 53 54  2  0  0  0  0
 54 55  1  0  0  0  0
 55 56  2  0  0  0  0
 56 57  1  0  0  0  0
 56 58  1  0  0  0  0
 58 59  2  0  0  0  0
 44 60  1  0  0  0  0
 60 61  1  0  0  0  0
 43 62  1  0  0  0  0
 62 63  2  0  0  0  0
 63 64  1  0  0  0  0
 64 65  1  0  0  0  0
 65 66  2  0  0  0  0
 66 67  1  0  0  0  0
 67 68  2  0  0  0  0
 68 69  1  0  0  0  0
 69 70  1  0  0  0  0
 68 71  1  0  0  0  0
 71 72  2  0  0  0  0
 64 73  1  0  0  0  0
 73 74  2  0  0  0  0
 74 75  1  0  0  0  0
 75 76  2  0  0  0  0
 76 77  1  0  0  0  0
 77 78  1  0  0  0  0
 76 79  1  0  0  0  0
 79 80  2  0  0  0  0
 63 81  1  0  0  0  0
 81 82  1  0  0  0  0
 82 83  1  0  0  0  0
 83 84  2  0  0  0  0
 84 85  1  0  0  0  0
 85 86  1  0  0  0  0
 86 87  2  0  0  0  0
 87 88  1  0  0  0  0
 88 89  2  0  0  0  0
 89 90  1  0  0  0  0
 90 91  1  0  0  0  0
 89 92  1  0  0  0  0
 92 93  2  0  0  0  0
 85 94  1  0  0  0  0
 94 95  2  0  0  0  0
 95 96  1  0  0  0  0
 96 97  2  0  0  0  0
 97 98  1  0  0  0  0
 98 99  1  0  0  0  0
 97100  1  0  0  0  0
100101  2  0  0  0  0
 84102  1  0  0  0  0
102103  1  0  0  0  0
 83104  1  0  0  0  0
104105  2  0  0  0  0
105106  1  0  0  0  0
106107  1  0  0  0  0
107108  2  0  0  0  0
108109  1  0  0  0  0
109110  2  0  0  0  0
110111  1  0  0  0  0
110112  1  0  0  0  0
112113  2  0  0  0  0
106114  1  0  0  0  0
114115  2  0  0  0  0
115116  1  0  0  0  0
116117  2  0  0  0  0
117118  1  0  0  0  0
117119  1  0  0  0  0
119120  2  0  0  0  0
105121  1  0  0  0  0
121122  1  0  0  0  0
122123  1  0  0  0  0
123124  2  0  0  0  0
124125  1  0  0  0  0
125126  1  0  0  0  0
126127  2  0  0  0  0
127128  1  0  0  0  0
128129  2  0  0  0  0
129130  1  0  0  0  0
129131  1  0  0  0  0
131132  2  0  0  0  0
125133  1  0  0  0  0
133134  2  0  0  0  0
134135  1  0  0  0  0
135136  2  0  0  0  0
136137  1  0  0  0  0
136138  1  0  0  0  0
138139  2  0  0  0  0
124140  1  0  0  0  0
140141  1  0  0  0  0
123142  1  0  0  0  0
142143  2  0  0  0  0
143144  1  0  0  0  0
144145  3  0  0  0  0
143146  1  0  0  0  0
146147  2  0  0  0  0
146148  1  0  0  0  0
148149  1  0  0  0  0
149150  1  0  0  0  0
 11  2  1  0  0  0  0
 23 17  1  0  0  0  0
 61 24  1  0  0  0  0
103 62  1  0  0  0  0
141104  1  0  0  0  0
 10  5  1  0  0  0  0
 22 18  1  0  0  0  0
 33 27  1  0  0  0  0
 40 34  1  0  0  0  0
 60 41  2  0  0  0  0
 72 65  1  0  0  0  0
 80 73  1  0  0  0  0
102 81  2  0  0  0  0
113107  1  0  0  0  0
120114  1  0  0  0  0
140121  2  0  0  0  0
 23  7  1  0  0  0  0
 52 46  1  0  0  0  0
 59 53  1  0  0  0  0
 93 86  1  0  0  0  0
101 94  1  0  0  0  0
132126  1  0  0  0  0
139133  1  0  0  0  0
  1151  1  0  0  0  0
  6152  1  0  0  0  0
  9153  1  0  0  0  0
 17154  1  0  0  0  0
 18155  1  0  0  0  0
 19156  1  0  0  0  0
 20157  1  0  0  0  0
 21158  1  0  0  0  0
 22159  1  0  0  0  0
 22160  1  0  0  0  0
 23161  1  0  0  0  0
 28162  1  0  0  0  0
 29163  1  0  0  0  0
 31164  1  0  0  0  0
 31165  1  0  0  0  0
 31166  1  0  0  0  0
 32167  1  0  0  0  0
 33168  1  0  0  0  0
 35169  1  0  0  0  0
 36170  1  0  0  0  0
 38171  1  0  0  0  0
 38172  1  0  0  0  0
 38173  1  0  0  0  0
 39174  1  0  0  0  0
 40175  1  0  0  0  0
 47176  1  0  0  0  0
 48177  1  0  0  0  0
 50178  1  0  0  0  0
 50179  1  0  0  0  0
 50180  1  0  0  0  0
 51181  1  0  0  0  0
 52182  1  0  0  0  0
 54183  1  0  0  0  0
 55184  1  0  0  0  0
 57185  1  0  0  0  0
 57186  1  0  0  0  0
 57187  1  0  0  0  0
 58188  1  0  0  0  0
 59189  1  0  0  0  0
 66190  1  0  0  0  0
 67191  1  0  0  0  0
 70192  1  0  0  0  0
 70193  1  0  0  0  0
 70194  1  0  0  0  0
 71195  1  0  0  0  0
 72196  1  0  0  0  0
 74197  1  0  0  0  0
 75198  1  0  0  0  0
 78199  1  0  0  0  0
 78200  1  0  0  0  0
 78201  1  0  0  0  0
 79202  1  0  0  0  0
 80203  1  0  0  0  0
 87204  1  0  0  0  0
 88205  1  0  0  0  0
 91206  1  0  0  0  0
 91207  1  0  0  0  0
 91208  1  0  0  0  0
 92209  1  0  0  0  0
 93210  1  0  0  0  0
 95211  1  0  0  0  0
 96212  1  0  0  0  0
 99213  1  0  0  0  0
 99214  1  0  0  0  0
 99215  1  0  0  0  0
100216  1  0  0  0  0
101217  1  0  0  0  0
108218  1  0  0  0  0
109219  1  0  0  0  0
111220  1  0  0  0  0
111221  1  0  0  0  0
111222  1  0  0  0  0
112223  1  0  0  0  0
113224  1  0  0  0  0
115225  1  0  0  0  0
116226  1  0  0  0  0
118227  1  0  0  0  0
118228  1  0  0  0  0
118229  1  0  0  0  0
119230  1  0  0  0  0
120231  1  0  0  0  0
127232  1  0  0  0  0
128233  1  0  0  0  0
130234  1  0  0  0  0
130235  1  0  0  0  0
130236  1  0  0  0  0
131237  1  0  0  0  0
132238  1  0  0  0  0
134239  1  0  0  0  0
135240  1  0  0  0  0
137241  1  0  0  0  0
137242  1  0  0  0  0
137243  1  0  0  0  0
138244  1  0  0  0  0
139245  1  0  0  0  0
142246  1  0  0  0  0
149247  1  0  0  0  0
149248  1  0  0  0  0
150249  1  0  0  0  0
150250  1  0  0  0  0
150251  1  0  0  0  0
M  END
