
  xtb     02142208423D
 energy: -410.916418527051 gnorm: 0.000438812671 xtb: 6.4.1 (unknown)
260283  0     0  0            999 V2000
   -0.6115   -9.0879    1.7458 C   0  0  0  0  0  0  0  0  0  0  0  0
   -1.5432   -9.8634    1.1314 C   0  0  0  0  0  0  0  0  0  0  0  0
   -2.2094  -10.9427    1.9137 C   0  0  0  0  0  0  0  0  0  0  0  0
   -1.9259  -11.2966    3.0367 O   0  0  0  0  0  0  0  0  0  0  0  0
   -3.2934  -11.4463    1.0515 C   0  0  0  0  0  0  0  0  0  0  0  0
   -4.2734  -12.3810    1.3836 C   0  0  0  0  0  0  0  0  0  0  0  0
   -5.1590  -12.6483    0.3679 C   0  0  0  0  0  0  0  0  0  0  0  0
   -5.0835  -12.0272   -0.8864 C   0  0  0  0  0  0  0  0  0  0  0  0
   -4.1199  -11.1103   -1.2298 C   0  0  0  0  0  0  0  0  0  0  0  0
   -3.2057  -10.8279   -0.2117 C   0  0  0  0  0  0  0  0  0  0  0  0
   -2.0524   -9.9302   -0.2182 C   0  0  0  0  0  0  0  0  0  0  0  0
   -1.4157   -9.4781   -1.3441 C   0  0  0  0  0  0  0  0  0  0  0  0
   -1.8367   -9.7735   -2.6564 C   0  0  0  0  0  0  0  0  0  0  0  0
   -2.1147  -10.0108   -3.7453 N   0  0  0  0  0  0  0  0  0  0  0  0
   -0.2088   -8.7520   -1.3314 C   0  0  0  0  0  0  0  0  0  0  0  0
    0.7854   -8.1806   -1.3894 N   0  0  0  0  0  0  0  0  0  0  0  0
   -6.2886  -12.7655   -1.4140 C   0  0  0  0  0  0  0  0  0  0  0  0
   -6.0081  -13.9420   -2.3723 C   0  0  0  0  0  0  0  0  0  0  0  0
   -7.2836  -14.7524   -2.3346 C   0  0  0  0  0  0  0  0  0  0  0  0
   -7.3491  -15.3465   -1.1499 C   0  0  0  0  0  0  0  0  0  0  0  0
   -6.1191  -14.9473   -0.3668 C   0  0  0  0  0  0  0  0  0  0  0  0
   -5.1037  -14.8331   -1.5112 C   0  0  0  0  0  0  0  0  0  0  0  0
   -6.3682  -13.4643   -0.0187 C   0  0  0  0  0  0  0  0  0  0  0  0
   -0.1022   -7.8029    1.4218 C   0  0  0  0  0  0  0  0  0  0  0  0
   -0.7741   -6.6386    1.0637 C   0  0  0  0  0  0  0  0  0  0  0  0
   -2.1545   -6.4669    0.9820 N   0  0  0  0  0  0  0  0  0  0  0  0
   -2.8765   -6.9118   -0.1419 C   0  0  0  0  0  0  0  0  0  0  0  0
   -2.3795   -6.7082   -1.4252 C   0  0  0  0  0  0  0  0  0  0  0  0
   -3.1106   -7.1249   -2.5215 C   0  0  0  0  0  0  0  0  0  0  0  0
   -4.3432   -7.7504   -2.3657 C   0  0  0  0  0  0  0  0  0  0  0  0
   -5.1047   -8.2095   -3.5696 C   0  0  0  0  0  0  0  0  0  0  0  0
   -4.8309   -7.9432   -1.0783 C   0  0  0  0  0  0  0  0  0  0  0  0
   -4.1109   -7.5290    0.0260 C   0  0  0  0  0  0  0  0  0  0  0  0
   -2.6961   -5.4541    1.7901 C   0  0  0  0  0  0  0  0  0  0  0  0
   -2.1885   -5.2527    3.0734 C   0  0  0  0  0  0  0  0  0  0  0  0
   -2.6951   -4.2497    3.8737 C   0  0  0  0  0  0  0  0  0  0  0  0
   -3.7210   -3.4230    3.4325 C   0  0  0  0  0  0  0  0  0  0  0  0
   -4.2877   -2.3598    4.3212 C   0  0  0  0  0  0  0  0  0  0  0  0
   -4.2280   -3.6369    2.1570 C   0  0  0  0  0  0  0  0  0  0  0  0
   -3.7274   -4.6329    1.3416 C   0  0  0  0  0  0  0  0  0  0  0  0
    0.1111   -5.5359    1.0581 C   0  0  0  0  0  0  0  0  0  0  0  0
   -0.1010   -3.8738    0.6697 S   0  0  0  0  0  0  0  0  0  0  0  0
    1.6003   -3.5620    1.0127 C   0  0  0  0  0  0  0  0  0  0  0  0
    2.2841   -4.6977    1.3868 C   0  0  0  0  0  0  0  0  0  0  0  0
    3.6131   -4.7446    1.7601 N   0  0  0  0  0  0  0  0  0  0  0  0
    4.5700   -4.0085    1.0467 C   0  0  0  0  0  0  0  0  0  0  0  0
    5.6374   -3.4088    1.7102 C   0  0  0  0  0  0  0  0  0  0  0  0
    6.6118   -2.7440    0.9943 C   0  0  0  0  0  0  0  0  0  0  0  0
    6.5465   -2.6499   -0.3913 C   0  0  0  0  0  0  0  0  0  0  0  0
    7.6490   -1.9946   -1.1632 C   0  0  0  0  0  0  0  0  0  0  0  0
    5.4589   -3.2165   -1.0421 C   0  0  0  0  0  0  0  0  0  0  0  0
    4.4819   -3.8928   -0.3378 C   0  0  0  0  0  0  0  0  0  0  0  0
    3.9903   -5.5909    2.8127 C   0  0  0  0  0  0  0  0  0  0  0  0
    5.2386   -6.2068    2.8253 C   0  0  0  0  0  0  0  0  0  0  0  0
    5.6002   -7.0253    3.8769 C   0  0  0  0  0  0  0  0  0  0  0  0
    4.7277   -7.2777    4.9274 C   0  0  0  0  0  0  0  0  0  0  0  0
    5.1270   -8.1395    6.0848 C   0  0  0  0  0  0  0  0  0  0  0  0
    3.4739   -6.6820    4.8926 C   0  0  0  0  0  0  0  0  0  0  0  0
    3.1092   -5.8396    3.8632 C   0  0  0  0  0  0  0  0  0  0  0  0
    1.4165   -5.8256    1.4037 C   0  0  0  0  0  0  0  0  0  0  0  0
    1.5978   -7.5018    1.7703 S   0  0  0  0  0  0  0  0  0  0  0  0
    1.9707   -2.1653    0.9419 C   0  0  0  0  0  0  0  0  0  0  0  0
    1.5530   -1.2462    1.8761 C   0  0  0  0  0  0  0  0  0  0  0  0
    0.9407   -1.5632    3.0923 N   0  0  0  0  0  0  0  0  0  0  0  0
    1.6330   -2.2631    4.0755 C   0  0  0  0  0  0  0  0  0  0  0  0
    0.9432   -2.9336    5.0830 C   0  0  0  0  0  0  0  0  0  0  0  0
    1.6222   -3.5943    6.0892 C   0  0  0  0  0  0  0  0  0  0  0  0
    3.0098   -3.6093    6.0990 C   0  0  0  0  0  0  0  0  0  0  0  0
    3.9962   -4.3997    7.3322 S   0  0  0  0  0  0  0  0  0  0  0  0
    2.7795   -5.1128    8.4765 C   0  0  0  0  0  0  0  0  0  0  0  0
    3.7034   -2.9701    5.0744 C   0  0  0  0  0  0  0  0  0  0  0  0
    3.0292   -2.3050    4.0762 C   0  0  0  0  0  0  0  0  0  0  0  0
   -0.2669   -0.8898    3.3341 C   0  0  0  0  0  0  0  0  0  0  0  0
   -1.1972   -0.7931    2.2980 C   0  0  0  0  0  0  0  0  0  0  0  0
   -2.3412   -0.0449    2.4540 C   0  0  0  0  0  0  0  0  0  0  0  0
   -2.5856    0.6195    3.6511 C   0  0  0  0  0  0  0  0  0  0  0  0
   -4.0734    1.5729    3.7610 S   0  0  0  0  0  0  0  0  0  0  0  0
   -3.6010    2.9087    4.8995 C   0  0  0  0  0  0  0  0  0  0  0  0
   -1.6866    0.4916    4.7013 C   0  0  0  0  0  0  0  0  0  0  0  0
   -0.5331   -0.2516    4.5425 C   0  0  0  0  0  0  0  0  0  0  0  0
    1.7193    0.0804    1.4175 C   0  0  0  0  0  0  0  0  0  0  0  0
    1.2714    1.6170    2.0601 S   0  0  0  0  0  0  0  0  0  0  0  0
    1.7476    2.3885    0.5594 C   0  0  0  0  0  0  0  0  0  0  0  0
    2.1935    1.4865   -0.3961 C   0  0  0  0  0  0  0  0  0  0  0  0
    2.4127    1.7860   -1.7352 N   0  0  0  0  0  0  0  0  0  0  0  0
    1.5373    2.6569   -2.3975 C   0  0  0  0  0  0  0  0  0  0  0  0
    0.1867    2.6980   -2.0559 C   0  0  0  0  0  0  0  0  0  0  0  0
   -0.6473    3.6682   -2.5750 C   0  0  0  0  0  0  0  0  0  0  0  0
   -0.1481    4.6172   -3.4577 C   0  0  0  0  0  0  0  0  0  0  0  0
   -1.0750    5.9872   -4.0763 S   0  0  0  0  0  0  0  0  0  0  0  0
   -2.6311    5.9141   -3.1510 C   0  0  0  0  0  0  0  0  0  0  0  0
    1.1733    4.5120   -3.8847 C   0  0  0  0  0  0  0  0  0  0  0  0
    2.0040    3.5435   -3.3683 C   0  0  0  0  0  0  0  0  0  0  0  0
    3.5861    1.3336   -2.3499 C   0  0  0  0  0  0  0  0  0  0  0  0
    4.7852    1.3127   -1.6434 C   0  0  0  0  0  0  0  0  0  0  0  0
    5.9598    0.9292   -2.2607 C   0  0  0  0  0  0  0  0  0  0  0  0
    5.9507    0.5527   -3.5963 C   0  0  0  0  0  0  0  0  0  0  0  0
    7.3960    0.0651   -4.4917 S   0  0  0  0  0  0  0  0  0  0  0  0
    8.7587    0.7802   -3.5246 C   0  0  0  0  0  0  0  0  0  0  0  0
    4.7452    0.5320   -4.2951 C   0  0  0  0  0  0  0  0  0  0  0  0
    3.5754    0.9184   -3.6816 C   0  0  0  0  0  0  0  0  0  0  0  0
    2.2188    0.1695    0.1295 C   0  0  0  0  0  0  0  0  0  0  0  0
    2.5929   -1.3944   -0.5130 S   0  0  0  0  0  0  0  0  0  0  0  0
    1.4777    3.7761    0.3552 C   0  0  0  0  0  0  0  0  0  0  0  0
    2.1775    4.6620   -0.4093 C   0  0  0  0  0  0  0  0  0  0  0  0
    1.4929    5.8770   -0.6527 C   0  0  0  0  0  0  0  0  0  0  0  0
    1.8577    6.9414   -1.5099 C   0  0  0  0  0  0  0  0  0  0  0  0
    3.1606    7.0734   -2.1241 C   0  0  0  0  0  0  0  0  0  0  0  0
    3.7790    8.2409   -2.5043 C   0  0  0  0  0  0  0  0  0  0  0  0
    5.0378    8.0466   -3.0926 C   0  0  0  0  0  0  0  0  0  0  0  0
    5.4158    6.7373   -3.1812 C   0  0  0  0  0  0  0  0  0  0  0  0
    6.9984    5.9507   -3.8393 Si  0  0  0  0  0  4  0  0  0  0  0  0
    7.5869    6.9599   -5.3512 C   0  0  0  0  0  0  0  0  0  0  0  0
    8.8685    6.4161   -5.9735 C   0  0  0  0  0  0  0  0  0  0  0  0
    6.5799    4.1443   -4.3135 C   0  0  0  0  0  0  0  0  0  0  0  0
    5.5727    4.0318   -5.4543 C   0  0  0  0  0  0  0  0  0  0  0  0
    8.2942    6.0064   -2.4221 C   0  0  0  0  0  0  0  0  0  0  0  0
    9.2689    4.8330   -2.4116 C   0  0  0  0  0  0  0  0  0  0  0  0
    4.1915    5.7259   -2.5021 S   0  0  0  0  0  0  0  0  0  0  0  0
    0.8556    7.8801   -1.7620 C   0  0  0  0  0  0  0  0  0  0  0  0
   -0.4123    7.8738   -1.1192 C   0  0  0  0  0  0  0  0  0  0  0  0
   -0.7071    6.9024   -0.1345 C   0  0  0  0  0  0  0  0  0  0  0  0
   -1.9334    6.8746    0.6314 C   0  0  0  0  0  0  0  0  0  0  0  0
   -2.0691    6.4857    1.9420 C   0  0  0  0  0  0  0  0  0  0  0  0
   -3.3950    6.5253    2.3945 C   0  0  0  0  0  0  0  0  0  0  0  0
   -4.2982    6.9237    1.4470 C   0  0  0  0  0  0  0  0  0  0  0  0
   -6.1732    7.0878    1.6071 Si  0  0  0  0  0  4  0  0  0  0  0  0
   -6.5339    8.7711    2.4451 C   0  0  0  0  0  0  0  0  0  0  0  0
   -8.0198    9.0140    2.6878 C   0  0  0  0  0  0  0  0  0  0  0  0
   -6.9940    6.9707   -0.1167 C   0  0  0  0  0  0  0  0  0  0  0  0
   -6.7943    8.2010   -0.9985 C   0  0  0  0  0  0  0  0  0  0  0  0
   -6.7557    5.6459    2.7225 C   0  0  0  0  0  0  0  0  0  0  0  0
   -6.3234    4.2748    2.2121 C   0  0  0  0  0  0  0  0  0  0  0  0
   -3.4882    7.2811   -0.0337 S   0  0  0  0  0  0  0  0  0  0  0  0
    0.2461    5.9052    0.0232 C   0  0  0  0  0  0  0  0  0  0  0  0
   -0.0176    4.4550    0.9522 S   0  0  0  0  0  0  0  0  0  0  0  0
   -1.2720    8.8661   -1.6180 C   0  0  0  0  0  0  0  0  0  0  0  0
   -0.7399    9.5967   -2.6520 C   0  0  0  0  0  0  0  0  0  0  0  0
    0.9262    9.1333   -2.9644 S   0  0  0  0  0  0  0  0  0  0  0  0
   -1.2933   10.6460   -3.4155 C   0  0  0  0  0  0  0  0  0  0  0  0
   -2.6086   10.9676   -3.6088 C   0  0  0  0  0  0  0  0  0  0  0  0
   -3.7958   10.1320   -3.2796 C   0  0  0  0  0  0  0  0  0  0  0  0
   -3.8423    9.0478   -2.7349 O   0  0  0  0  0  0  0  0  0  0  0  0
   -4.9208   10.8752   -3.8382 C   0  0  0  0  0  0  0  0  0  0  0  0
   -6.6130   10.6445   -3.9183 S   0  0  0  0  0  0  0  0  0  0  0  0
   -6.7521   12.1417   -4.7937 C   0  0  0  0  0  0  0  0  0  0  0  0
   -8.4391   12.7431   -5.3414 Br  0  0  0  0  0  0  0  0  0  0  0  0
   -5.5633   12.7820   -5.0134 C   0  0  0  0  0  0  0  0  0  0  0  0
   -4.5032   12.0430   -4.4590 C   0  0  0  0  0  0  0  0  0  0  0  0
   -3.0611   12.1474   -4.3304 C   0  0  0  0  0  0  0  0  0  0  0  0
   -2.3240   13.2124   -4.7762 C   0  0  0  0  0  0  0  0  0  0  0  0
   -2.9265   14.2922   -5.4563 C   0  0  0  0  0  0  0  0  0  0  0  0
   -3.3975   15.1782   -6.0127 N   0  0  0  0  0  0  0  0  0  0  0  0
   -0.9355   13.3928   -4.6127 C   0  0  0  0  0  0  0  0  0  0  0  0
    0.1839   13.6255   -4.5071 N   0  0  0  0  0  0  0  0  0  0  0  0
   -0.2395   -9.4976    2.6829 H   0  0  0  0  0  0  0  0  0  0  0  0
   -4.2991  -12.8334    2.3625 H   0  0  0  0  0  0  0  0  0  0  0  0
   -4.0748  -10.6336   -2.1939 H   0  0  0  0  0  0  0  0  0  0  0  0
   -7.1245  -12.1458   -1.7338 H   0  0  0  0  0  0  0  0  0  0  0  0
   -5.6395  -13.6523   -3.3524 H   0  0  0  0  0  0  0  0  0  0  0  0
   -8.0099  -14.7659   -3.1260 H   0  0  0  0  0  0  0  0  0  0  0  0
   -8.1409  -15.9553   -0.7543 H   0  0  0  0  0  0  0  0  0  0  0  0
   -5.8526  -15.5753    0.4790 H   0  0  0  0  0  0  0  0  0  0  0  0
   -4.9049  -15.7944   -1.9820 H   0  0  0  0  0  0  0  0  0  0  0  0
   -4.1630  -14.3661   -1.2261 H   0  0  0  0  0  0  0  0  0  0  0  0
   -7.2583  -13.3145    0.5899 H   0  0  0  0  0  0  0  0  0  0  0  0
   -1.4283   -6.2134   -1.5571 H   0  0  0  0  0  0  0  0  0  0  0  0
   -2.7197   -6.9631   -3.5153 H   0  0  0  0  0  0  0  0  0  0  0  0
   -5.3833   -7.3579   -4.1894 H   0  0  0  0  0  0  0  0  0  0  0  0
   -4.4808   -8.8675   -4.1746 H   0  0  0  0  0  0  0  0  0  0  0  0
   -6.0087   -8.7411   -3.2824 H   0  0  0  0  0  0  0  0  0  0  0  0
   -5.7854   -8.4295   -0.9354 H   0  0  0  0  0  0  0  0  0  0  0  0
   -4.4971   -7.6763    1.0239 H   0  0  0  0  0  0  0  0  0  0  0  0
   -1.3967   -5.8892    3.4418 H   0  0  0  0  0  0  0  0  0  0  0  0
   -2.2935   -4.1138    4.8679 H   0  0  0  0  0  0  0  0  0  0  0  0
   -3.5285   -1.9762    4.9988 H   0  0  0  0  0  0  0  0  0  0  0  0
   -5.1009   -2.7705    4.9208 H   0  0  0  0  0  0  0  0  0  0  0  0
   -4.6842   -1.5331    3.7373 H   0  0  0  0  0  0  0  0  0  0  0  0
   -5.0233   -3.0047    1.7897 H   0  0  0  0  0  0  0  0  0  0  0  0
   -4.1264   -4.7691    0.3475 H   0  0  0  0  0  0  0  0  0  0  0  0
    5.7033   -3.4848    2.7849 H   0  0  0  0  0  0  0  0  0  0  0  0
    7.4420   -2.2945    1.5208 H   0  0  0  0  0  0  0  0  0  0  0  0
    8.0345   -1.1307   -0.6242 H   0  0  0  0  0  0  0  0  0  0  0  0
    8.4728   -2.6968   -1.3002 H   0  0  0  0  0  0  0  0  0  0  0  0
    7.2983   -1.6905   -2.1455 H   0  0  0  0  0  0  0  0  0  0  0  0
    5.3811   -3.1414   -2.1168 H   0  0  0  0  0  0  0  0  0  0  0  0
    3.6565   -4.3520   -0.8615 H   0  0  0  0  0  0  0  0  0  0  0  0
    5.9242   -6.0423    2.0076 H   0  0  0  0  0  0  0  0  0  0  0  0
    6.5779   -7.4852    3.8738 H   0  0  0  0  0  0  0  0  0  0  0  0
    4.3174   -8.8109    6.3645 H   0  0  0  0  0  0  0  0  0  0  0  0
    6.0079   -8.7299    5.8465 H   0  0  0  0  0  0  0  0  0  0  0  0
    5.3569   -7.5125    6.9471 H   0  0  0  0  0  0  0  0  0  0  0  0
    2.7716   -6.8749    5.6905 H   0  0  0  0  0  0  0  0  0  0  0  0
    2.1424   -5.3584    3.8786 H   0  0  0  0  0  0  0  0  0  0  0  0
   -0.1366   -2.9316    5.0734 H   0  0  0  0  0  0  0  0  0  0  0  0
    1.0531   -4.0966    6.8551 H   0  0  0  0  0  0  0  0  0  0  0  0
    2.1645   -5.8439    7.9600 H   0  0  0  0  0  0  0  0  0  0  0  0
    2.1723   -4.3255    8.9137 H   0  0  0  0  0  0  0  0  0  0  0  0
    3.3592   -5.6031    9.2523 H   0  0  0  0  0  0  0  0  0  0  0  0
    4.7825   -2.9919    5.0851 H   0  0  0  0  0  0  0  0  0  0  0  0
    3.5810   -1.8014    3.2965 H   0  0  0  0  0  0  0  0  0  0  0  0
   -1.0080   -1.2998    1.3637 H   0  0  0  0  0  0  0  0  0  0  0  0
   -3.0533    0.0385    1.6478 H   0  0  0  0  0  0  0  0  0  0  0  0
   -3.5983    2.5540    5.9262 H   0  0  0  0  0  0  0  0  0  0  0  0
   -2.6258    3.2900    4.6128 H   0  0  0  0  0  0  0  0  0  0  0  0
   -4.3558    3.6795    4.7801 H   0  0  0  0  0  0  0  0  0  0  0  0
   -1.8692    0.9833    5.6442 H   0  0  0  0  0  0  0  0  0  0  0  0
    0.1776   -0.3212    5.3528 H   0  0  0  0  0  0  0  0  0  0  0  0
   -0.2126    1.9792   -1.3554 H   0  0  0  0  0  0  0  0  0  0  0  0
   -1.6825    3.6760   -2.2738 H   0  0  0  0  0  0  0  0  0  0  0  0
   -2.4170    5.7695   -2.0976 H   0  0  0  0  0  0  0  0  0  0  0  0
   -3.2594    5.1173   -3.5388 H   0  0  0  0  0  0  0  0  0  0  0  0
   -3.1149    6.8767   -3.2890 H   0  0  0  0  0  0  0  0  0  0  0  0
    1.5495    5.2225   -4.6049 H   0  0  0  0  0  0  0  0  0  0  0  0
    3.0318    3.4903   -3.6890 H   0  0  0  0  0  0  0  0  0  0  0  0
    4.7991    1.6189   -0.6073 H   0  0  0  0  0  0  0  0  0  0  0  0
    6.8762    0.9413   -1.6935 H   0  0  0  0  0  0  0  0  0  0  0  0
    8.5333    1.8168   -3.2953 H   0  0  0  0  0  0  0  0  0  0  0  0
    9.6335    0.7238   -4.1650 H   0  0  0  0  0  0  0  0  0  0  0  0
    8.9312    0.2044   -2.6204 H   0  0  0  0  0  0  0  0  0  0  0  0
    4.7413    0.2113   -5.3258 H   0  0  0  0  0  0  0  0  0  0  0  0
    2.6453    0.9124   -4.2291 H   0  0  0  0  0  0  0  0  0  0  0  0
    3.1440    4.4196   -0.8057 H   0  0  0  0  0  0  0  0  0  0  0  0
    3.3653    9.2173   -2.3297 H   0  0  0  0  0  0  0  0  0  0  0  0
    5.6532    8.8542   -3.4457 H   0  0  0  0  0  0  0  0  0  0  0  0
    6.8034    6.9804   -6.1095 H   0  0  0  0  0  0  0  0  0  0  0  0
    7.7526    7.9966   -5.0551 H   0  0  0  0  0  0  0  0  0  0  0  0
    9.1602    7.0082   -6.8392 H   0  0  0  0  0  0  0  0  0  0  0  0
    9.6842    6.4438   -5.2553 H   0  0  0  0  0  0  0  0  0  0  0  0
    8.7334    5.3870   -6.2971 H   0  0  0  0  0  0  0  0  0  0  0  0
    6.1777    3.6256   -3.4399 H   0  0  0  0  0  0  0  0  0  0  0  0
    7.4876    3.6135   -4.6025 H   0  0  0  0  0  0  0  0  0  0  0  0
    5.3233    2.9888   -5.6419 H   0  0  0  0  0  0  0  0  0  0  0  0
    4.6556    4.5639   -5.2131 H   0  0  0  0  0  0  0  0  0  0  0  0
    5.9789    4.4560   -6.3689 H   0  0  0  0  0  0  0  0  0  0  0  0
    7.7823    6.0410   -1.4592 H   0  0  0  0  0  0  0  0  0  0  0  0
    8.8615    6.9349   -2.4986 H   0  0  0  0  0  0  0  0  0  0  0  0
    9.7908    4.7506   -3.3616 H   0  0  0  0  0  0  0  0  0  0  0  0
   10.0118    4.9553   -1.6251 H   0  0  0  0  0  0  0  0  0  0  0  0
    8.7371    3.9021   -2.2307 H   0  0  0  0  0  0  0  0  0  0  0  0
   -1.2355    6.2197    2.5675 H   0  0  0  0  0  0  0  0  0  0  0  0
   -3.6847    6.2642    3.3967 H   0  0  0  0  0  0  0  0  0  0  0  0
   -6.1367    9.5783    1.8281 H   0  0  0  0  0  0  0  0  0  0  0  0
   -6.0055    8.8278    3.3982 H   0  0  0  0  0  0  0  0  0  0  0  0
   -8.4295    8.2496    3.3431 H   0  0  0  0  0  0  0  0  0  0  0  0
   -8.5721    8.9896    1.7519 H   0  0  0  0  0  0  0  0  0  0  0  0
   -8.1831    9.9844    3.1536 H   0  0  0  0  0  0  0  0  0  0  0  0
   -6.6067    6.0986   -0.6459 H   0  0  0  0  0  0  0  0  0  0  0  0
   -8.0650    6.8015    0.0115 H   0  0  0  0  0  0  0  0  0  0  0  0
   -7.1745    9.0946   -0.5094 H   0  0  0  0  0  0  0  0  0  0  0  0
   -7.3226    8.0816   -1.9434 H   0  0  0  0  0  0  0  0  0  0  0  0
   -5.7411    8.3512   -1.2209 H   0  0  0  0  0  0  0  0  0  0  0  0
   -7.8424    5.6638    2.8079 H   0  0  0  0  0  0  0  0  0  0  0  0
   -6.3690    5.7894    3.7325 H   0  0  0  0  0  0  0  0  0  0  0  0
   -5.2416    4.2227    2.1168 H   0  0  0  0  0  0  0  0  0  0  0  0
   -6.7576    4.0773    1.2357 H   0  0  0  0  0  0  0  0  0  0  0  0
   -6.6419    3.4851    2.8901 H   0  0  0  0  0  0  0  0  0  0  0  0
   -2.2554    9.0466   -1.2326 H   0  0  0  0  0  0  0  0  0  0  0  0
   -0.5593   11.2513   -3.9345 H   0  0  0  0  0  0  0  0  0  0  0  0
   -5.4781   13.7142   -5.5403 H   0  0  0  0  0  0  0  0  0  0  0  0
  1  2  2  0  0  0  0
  2  3  1  0  0  0  0
  3  4  2  0  0  0  0
  3  5  1  0  0  0  0
  5  6  2  0  0  0  0
  6  7  1  0  0  0  0
  7  8  2  0  0  0  0
  8  9  1  0  0  0  0
  9 10  2  0  0  0  0
 10 11  1  0  0  0  0
 11 12  2  0  0  0  0
 12 13  1  0  0  0  0
 13 14  3  0  0  0  0
 12 15  1  0  0  0  0
 15 16  3  0  0  0  0
  8 17  1  0  0  0  0
 17 18  1  0  0  0  0
 18 19  1  0  0  0  0
 19 20  2  0  0  0  0
 20 21  1  0  0  0  0
 21 22  1  0  0  0  0
 21 23  1  0  0  0  0
  1 24  1  0  0  0  0
 24 25  2  0  0  0  0
 25 26  1  0  0  0  0
 26 27  1  0  0  0  0
 27 28  2  0  0  0  0
 28 29  1  0  0  0  0
 29 30  2  0  0  0  0
 30 31  1  0  0  0  0
 30 32  1  0  0  0  0
 32 33  2  0  0  0  0
 26 34  1  0  0  0  0
 34 35  2  0  0  0  0
 35 36  1  0  0  0  0
 36 37  2  0  0  0  0
 37 38  1  0  0  0  0
 37 39  1  0  0  0  0
 39 40  2  0  0  0  0
 25 41  1  0  0  0  0
 41 42  1  0  0  0  0
 42 43  1  0  0  0  0
 43 44  2  0  0  0  0
 44 45  1  0  0  0  0
 45 46  1  0  0  0  0
 46 47  2  0  0  0  0
 47 48  1  0  0  0  0
 48 49  2  0  0  0  0
 49 50  1  0  0  0  0
 49 51  1  0  0  0  0
 51 52  2  0  0  0  0
 45 53  1  0  0  0  0
 53 54  2  0  0  0  0
 54 55  1  0  0  0  0
 55 56  2  0  0  0  0
 56 57  1  0  0  0  0
 56 58  1  0  0  0  0
 58 59  2  0  0  0  0
 44 60  1  0  0  0  0
 60 61  1  0  0  0  0
 43 62  1  0  0  0  0
 62 63  2  0  0  0  0
 63 64  1  0  0  0  0
 64 65  1  0  0  0  0
 65 66  2  0  0  0  0
 66 67  1  0  0  0  0
 67 68  2  0  0  0  0
 68 69  1  0  0  0  0
 69 70  1  0  0  0  0
 68 71  1  0  0  0  0
 71 72  2  0  0  0  0
 64 73  1  0  0  0  0
 73 74  2  0  0  0  0
 74 75  1  0  0  0  0
 75 76  2  0  0  0  0
 76 77  1  0  0  0  0
 77 78  1  0  0  0  0
 76 79  1  0  0  0  0
 79 80  2  0  0  0  0
 63 81  1  0  0  0  0
 81 82  1  0  0  0  0
 82 83  1  0  0  0  0
 83 84  2  0  0  0  0
 84 85  1  0  0  0  0
 85 86  1  0  0  0  0
 86 87  2  0  0  0  0
 87 88  1  0  0  0  0
 88 89  2  0  0  0  0
 89 90  1  0  0  0  0
 90 91  1  0  0  0  0
 89 92  1  0  0  0  0
 92 93  2  0  0  0  0
 85 94  1  0  0  0  0
 94 95  2  0  0  0  0
 95 96  1  0  0  0  0
 96 97  2  0  0  0  0
 97 98  1  0  0  0  0
 98 99  1  0  0  0  0
 97100  1  0  0  0  0
100101  2  0  0  0  0
 84102  1  0  0  0  0
102103  1  0  0  0  0
 83104  1  0  0  0  0
104105  2  0  0  0  0
105106  1  0  0  0  0
106107  2  0  0  0  0
107108  1  0  0  0  0
108109  2  0  0  0  0
109110  1  0  0  0  0
110111  2  0  0  0  0
111112  1  0  0  0  0
112113  1  0  0  0  0
113114  1  0  0  0  0
112115  1  0  0  0  0
115116  1  0  0  0  0
112117  1  0  0  0  0
117118  1  0  0  0  0
111119  1  0  0  0  0
107120  1  0  0  0  0
120121  2  0  0  0  0
121122  1  0  0  0  0
122123  1  0  0  0  0
123124  2  0  0  0  0
124125  1  0  0  0  0
125126  2  0  0  0  0
126127  1  0  0  0  0
127128  1  0  0  0  0
128129  1  0  0  0  0
127130  1  0  0  0  0
130131  1  0  0  0  0
127132  1  0  0  0  0
132133  1  0  0  0  0
126134  1  0  0  0  0
122135  2  0  0  0  0
135136  1  0  0  0  0
121137  1  0  0  0  0
137138  2  0  0  0  0
138139  1  0  0  0  0
138140  1  0  0  0  0
140141  2  0  0  0  0
141142  1  0  0  0  0
142143  2  0  0  0  0
142144  1  0  0  0  0
144145  1  0  0  0  0
145146  1  0  0  0  0
146147  1  0  0  0  0
146148  2  0  0  0  0
148149  1  0  0  0  0
149150  1  0  0  0  0
150151  2  0  0  0  0
151152  1  0  0  0  0
152153  3  0  0  0  0
151154  1  0  0  0  0
154155  3  0  0  0  0
 11  2  1  0  0  0  0
 23 17  1  0  0  0  0
 61 24  1  0  0  0  0
103 62  1  0  0  0  0
136104  1  0  0  0  0
150141  1  0  0  0  0
 10  5  1  0  0  0  0
 22 18  1  0  0  0  0
 33 27  1  0  0  0  0
 40 34  1  0  0  0  0
 60 41  2  0  0  0  0
 72 65  1  0  0  0  0
 80 73  1  0  0  0  0
102 81  2  0  0  0  0
135106  1  0  0  0  0
149144  2  0  0  0  0
 23  7  1  0  0  0  0
 52 46  1  0  0  0  0
 59 53  1  0  0  0  0
 93 86  1  0  0  0  0
101 94  1  0  0  0  0
119108  1  0  0  0  0
139120  1  0  0  0  0
134123  1  0  0  0  0
  1156  1  0  0  0  0
  6157  1  0  0  0  0
  9158  1  0  0  0  0
 17159  1  0  0  0  0
 18160  1  0  0  0  0
 19161  1  0  0  0  0
 20162  1  0  0  0  0
 21163  1  0  0  0  0
 22164  1  0  0  0  0
 22165  1  0  0  0  0
 23166  1  0  0  0  0
 28167  1  0  0  0  0
 29168  1  0  0  0  0
 31169  1  0  0  0  0
 31170  1  0  0  0  0
 31171  1  0  0  0  0
 32172  1  0  0  0  0
 33173  1  0  0  0  0
 35174  1  0  0  0  0
 36175  1  0  0  0  0
 38176  1  0  0  0  0
 38177  1  0  0  0  0
 38178  1  0  0  0  0
 39179  1  0  0  0  0
 40180  1  0  0  0  0
 47181  1  0  0  0  0
 48182  1  0  0  0  0
 50183  1  0  0  0  0
 50184  1  0  0  0  0
 50185  1  0  0  0  0
 51186  1  0  0  0  0
 52187  1  0  0  0  0
 54188  1  0  0  0  0
 55189  1  0  0  0  0
 57190  1  0  0  0  0
 57191  1  0  0  0  0
 57192  1  0  0  0  0
 58193  1  0  0  0  0
 59194  1  0  0  0  0
 66195  1  0  0  0  0
 67196  1  0  0  0  0
 70197  1  0  0  0  0
 70198  1  0  0  0  0
 70199  1  0  0  0  0
 71200  1  0  0  0  0
 72201  1  0  0  0  0
 74202  1  0  0  0  0
 75203  1  0  0  0  0
 78204  1  0  0  0  0
 78205  1  0  0  0  0
 78206  1  0  0  0  0
 79207  1  0  0  0  0
 80208  1  0  0  0  0
 87209  1  0  0  0  0
 88210  1  0  0  0  0
 91211  1  0  0  0  0
 91212  1  0  0  0  0
 91213  1  0  0  0  0
 92214  1  0  0  0  0
 93215  1  0  0  0  0
 95216  1  0  0  0  0
 96217  1  0  0  0  0
 99218  1  0  0  0  0
 99219  1  0  0  0  0
 99220  1  0  0  0  0
100221  1  0  0  0  0
101222  1  0  0  0  0
105223  1  0  0  0  0
109224  1  0  0  0  0
110225  1  0  0  0  0
113226  1  0  0  0  0
113227  1  0  0  0  0
114228  1  0  0  0  0
114229  1  0  0  0  0
114230  1  0  0  0  0
115231  1  0  0  0  0
115232  1  0  0  0  0
116233  1  0  0  0  0
116234  1  0  0  0  0
116235  1  0  0  0  0
117236  1  0  0  0  0
117237  1  0  0  0  0
118238  1  0  0  0  0
118239  1  0  0  0  0
118240  1  0  0  0  0
124241  1  0  0  0  0
125242  1  0  0  0  0
128243  1  0  0  0  0
128244  1  0  0  0  0
129245  1  0  0  0  0
129246  1  0  0  0  0
129247  1  0  0  0  0
130248  1  0  0  0  0
130249  1  0  0  0  0
131250  1  0  0  0  0
131251  1  0  0  0  0
131252  1  0  0  0  0
132253  1  0  0  0  0
132254  1  0  0  0  0
133255  1  0  0  0  0
133256  1  0  0  0  0
133257  1  0  0  0  0
137258  1  0  0  0  0
140259  1  0  0  0  0
148260  1  0  0  0  0
M  END
