
  xtb     02132211333D
 energy: -362.841646661089 gnorm: 0.000264164184 xtb: 6.4.1 (unknown)
224248  0     0  0            999 V2000
   -0.7485    8.6521    0.5553 C   0  0  0  0  0  0  0  0  0  0  0  0
   -1.4641    9.4068   -0.3554 C   0  0  0  0  0  0  0  0  0  0  0  0
   -1.9037    8.9078   -1.6615 C   0  0  0  0  0  0  0  0  0  0  0  0
   -1.7782    7.7791   -2.1129 O   0  0  0  0  0  0  0  0  0  0  0  0
   -2.4171   10.0830   -2.3928 C   0  0  0  0  0  0  0  0  0  0  0  0
   -2.9131   10.1130   -3.6917 C   0  0  0  0  0  0  0  0  0  0  0  0
   -3.3096   11.3611   -4.1110 C   0  0  0  0  0  0  0  0  0  0  0  0
   -3.2107   12.4977   -3.3008 C   0  0  0  0  0  0  0  0  0  0  0  0
   -2.7219   12.4805   -2.0145 C   0  0  0  0  0  0  0  0  0  0  0  0
   -2.3198   11.2209   -1.5694 C   0  0  0  0  0  0  0  0  0  0  0  0
   -1.7566   10.8086   -0.2842 C   0  0  0  0  0  0  0  0  0  0  0  0
   -1.6681   11.5868    0.8455 C   0  0  0  0  0  0  0  0  0  0  0  0
   -2.0805   12.9286    0.9205 C   0  0  0  0  0  0  0  0  0  0  0  0
   -2.4188   14.0194    1.0520 N   0  0  0  0  0  0  0  0  0  0  0  0
   -1.2314   11.1081    2.0957 C   0  0  0  0  0  0  0  0  0  0  0  0
   -0.9129   10.7794    3.1499 N   0  0  0  0  0  0  0  0  0  0  0  0
   -3.7569   13.4077   -4.3733 C   0  0  0  0  0  0  0  0  0  0  0  0
   -2.7504   14.2893   -5.1533 C   0  0  0  0  0  0  0  0  0  0  0  0
   -1.4252   13.5698   -5.1115 C   0  0  0  0  0  0  0  0  0  0  0  0
   -1.5251   12.4919   -5.8777 C   0  0  0  0  0  0  0  0  0  0  0  0
   -2.9202   12.4632   -6.4514 C   0  0  0  0  0  0  0  0  0  0  0  0
   -3.1858   13.9703   -6.5926 C   0  0  0  0  0  0  0  0  0  0  0  0
   -3.8732   12.1382   -5.2747 C   0  0  0  0  0  0  0  0  0  0  0  0
   -0.7689    7.2625    0.6386 C   0  0  0  0  0  0  0  0  0  0  0  0
   -1.7459    6.3257    0.2280 C   0  0  0  0  0  0  0  0  0  0  0  0
   -3.0406    6.5912   -0.0687 N   0  0  0  0  0  0  0  0  0  0  0  0
   -3.6933    7.7897    0.2691 C   0  0  0  0  0  0  0  0  0  0  0  0
   -3.5319    8.3651    1.5287 C   0  0  0  0  0  0  0  0  0  0  0  0
   -4.1577    9.5549    1.8327 C   0  0  0  0  0  0  0  0  0  0  0  0
   -4.9581   10.2089    0.8982 C   0  0  0  0  0  0  0  0  0  0  0  0
   -5.5828   11.5278    1.2274 C   0  0  0  0  0  0  0  0  0  0  0  0
   -5.1497    9.6059   -0.3366 C   0  0  0  0  0  0  0  0  0  0  0  0
   -4.5360    8.4068   -0.6504 C   0  0  0  0  0  0  0  0  0  0  0  0
   -3.8500    5.6037   -0.7058 C   0  0  0  0  0  0  0  0  0  0  0  0
   -3.8493    5.4836   -2.0877 C   0  0  0  0  0  0  0  0  0  0  0  0
   -4.7023    4.5817   -2.6952 C   0  0  0  0  0  0  0  0  0  0  0  0
   -5.5435    3.7702   -1.9418 C   0  0  0  0  0  0  0  0  0  0  0  0
   -6.4738    2.8105   -2.6160 C   0  0  0  0  0  0  0  0  0  0  0  0
   -5.5194    3.8900   -0.5583 C   0  0  0  0  0  0  0  0  0  0  0  0
   -4.6924    4.8094    0.0600 C   0  0  0  0  0  0  0  0  0  0  0  0
   -1.2157    5.0166    0.2834 C   0  0  0  0  0  0  0  0  0  0  0  0
   -1.7733    3.4687   -0.2481 S   0  0  0  0  0  0  0  0  0  0  0  0
   -0.2627    2.7126    0.2580 C   0  0  0  0  0  0  0  0  0  0  0  0
    0.6071    3.6261    0.8418 C   0  0  0  0  0  0  0  0  0  0  0  0
    1.8567    3.3515    1.3770 N   0  0  0  0  0  0  0  0  0  0  0  0
    2.8351    2.6622    0.6542 C   0  0  0  0  0  0  0  0  0  0  0  0
    3.8804    2.0276    1.3208 C   0  0  0  0  0  0  0  0  0  0  0  0
    4.8807    1.4008    0.6060 C   0  0  0  0  0  0  0  0  0  0  0  0
    4.8464    1.3440   -0.7811 C   0  0  0  0  0  0  0  0  0  0  0  0
    5.9221    0.6477   -1.5580 C   0  0  0  0  0  0  0  0  0  0  0  0
    3.7842    1.9543   -1.4377 C   0  0  0  0  0  0  0  0  0  0  0  0
    2.7993    2.6202   -0.7373 C   0  0  0  0  0  0  0  0  0  0  0  0
    2.1917    4.0536    2.5507 C   0  0  0  0  0  0  0  0  0  0  0  0
    3.4165    4.6979    2.6939 C   0  0  0  0  0  0  0  0  0  0  0  0
    3.6959    5.4033    3.8475 C   0  0  0  0  0  0  0  0  0  0  0  0
    2.7685    5.4967    4.8781 C   0  0  0  0  0  0  0  0  0  0  0  0
    3.0593    6.2981    6.1092 C   0  0  0  0  0  0  0  0  0  0  0  0
    1.5479    4.8495    4.7267 C   0  0  0  0  0  0  0  0  0  0  0  0
    1.2602    4.1326    3.5833 C   0  0  0  0  0  0  0  0  0  0  0  0
    0.0570    4.9280    0.8282 C   0  0  0  0  0  0  0  0  0  0  0  0
    0.6708    6.4670    1.3049 S   0  0  0  0  0  0  0  0  0  0  0  0
   -0.1414    1.3025    0.1253 C   0  0  0  0  0  0  0  0  0  0  0  0
   -0.8750    0.5021   -0.7414 C   0  0  0  0  0  0  0  0  0  0  0  0
   -1.6509    0.9691   -1.7997 N   0  0  0  0  0  0  0  0  0  0  0  0
   -1.1087    1.8930   -2.6955 C   0  0  0  0  0  0  0  0  0  0  0  0
   -1.9251    2.8550   -3.2912 C   0  0  0  0  0  0  0  0  0  0  0  0
   -1.3738    3.8486   -4.0705 C   0  0  0  0  0  0  0  0  0  0  0  0
   -0.0027    3.8932   -4.2693 C   0  0  0  0  0  0  0  0  0  0  0  0
    0.7200    5.2599   -5.1625 S   0  0  0  0  0  0  0  0  0  0  0  0
    0.7337    6.4610   -3.7931 C   0  0  0  0  0  0  0  0  0  0  0  0
    0.8073    2.9005   -3.7424 C   0  0  0  0  0  0  0  0  0  0  0  0
    0.2598    1.9033   -2.9592 C   0  0  0  0  0  0  0  0  0  0  0  0
   -2.9454    0.4638   -1.9446 C   0  0  0  0  0  0  0  0  0  0  0  0
   -3.7109    0.1801   -0.8129 C   0  0  0  0  0  0  0  0  0  0  0  0
   -4.9836   -0.3256   -0.9441 C   0  0  0  0  0  0  0  0  0  0  0  0
   -5.5263   -0.5558   -2.2063 C   0  0  0  0  0  0  0  0  0  0  0  0
   -7.1806   -1.1775   -2.2477 S   0  0  0  0  0  0  0  0  0  0  0  0
   -7.6003   -1.1912   -4.0132 C   0  0  0  0  0  0  0  0  0  0  0  0
   -4.7651   -0.2853   -3.3351 C   0  0  0  0  0  0  0  0  0  0  0  0
   -3.4853    0.2165   -3.2033 C   0  0  0  0  0  0  0  0  0  0  0  0
   -0.6986   -0.8659   -0.4518 C   0  0  0  0  0  0  0  0  0  0  0  0
   -1.3984   -2.3121   -1.0851 S   0  0  0  0  0  0  0  0  0  0  0  0
   -0.4312   -3.2712    0.0227 C   0  0  0  0  0  0  0  0  0  0  0  0
    0.3434   -2.4981    0.8731 C   0  0  0  0  0  0  0  0  0  0  0  0
    1.0924   -2.9865    1.9346 N   0  0  0  0  0  0  0  0  0  0  0  0
    2.3825   -2.4812    2.1448 C   0  0  0  0  0  0  0  0  0  0  0  0
    2.8828   -2.3584    3.4373 C   0  0  0  0  0  0  0  0  0  0  0  0
    4.1705   -1.9094    3.6545 C   0  0  0  0  0  0  0  0  0  0  0  0
    4.9812   -1.5811    2.5769 C   0  0  0  0  0  0  0  0  0  0  0  0
    6.6540   -1.0313    2.7301 S   0  0  0  0  0  0  0  0  0  0  0  0
    6.9943   -1.1289    4.5089 C   0  0  0  0  0  0  0  0  0  0  0  0
    4.4783   -1.6874    1.2821 C   0  0  0  0  0  0  0  0  0  0  0  0
    3.1913   -2.1242    1.0669 C   0  0  0  0  0  0  0  0  0  0  0  0
    0.6554   -4.1202    2.6345 C   0  0  0  0  0  0  0  0  0  0  0  0
    1.5474   -5.1240    3.0065 C   0  0  0  0  0  0  0  0  0  0  0  0
    1.0917   -6.3150    3.5367 C   0  0  0  0  0  0  0  0  0  0  0  0
   -0.2697   -6.5243    3.7071 C   0  0  0  0  0  0  0  0  0  0  0  0
   -0.9836   -8.0562    4.2207 S   0  0  0  0  0  0  0  0  0  0  0  0
    0.4351   -9.1760    4.3697 C   0  0  0  0  0  0  0  0  0  0  0  0
   -1.1570   -5.4868    3.4306 C   0  0  0  0  0  0  0  0  0  0  0  0
   -0.7020   -4.2981    2.9057 C   0  0  0  0  0  0  0  0  0  0  0  0
    0.1917   -1.1194    0.5803 C   0  0  0  0  0  0  0  0  0  0  0  0
    0.8481    0.3482    1.2265 S   0  0  0  0  0  0  0  0  0  0  0  0
   -0.5380   -4.7001    0.0205 C   0  0  0  0  0  0  0  0  0  0  0  0
    0.9237   -5.6758    0.0014 S   0  0  0  0  0  0  0  0  0  0  0  0
   -0.0206   -7.0955    0.2518 C   0  0  0  0  0  0  0  0  0  0  0  0
    0.1207   -8.4560    0.5062 C   0  0  0  0  0  0  0  0  0  0  0  0
   -1.1969   -8.9622    0.6808 C   0  0  0  0  0  0  0  0  0  0  0  0
   -2.1083   -7.9458    0.5452 N   0  0  0  0  0  0  0  0  0  0  0  0
   -3.5391   -8.0683    0.6449 C   0  0  0  0  0  0  0  0  0  0  0  0
   -4.1682   -8.4312   -0.6986 C   0  0  0  0  0  0  0  0  0  0  0  0
   -1.4030   -6.8071    0.2735 C   0  0  0  0  0  0  0  0  0  0  0  0
   -1.6880   -5.4459    0.1129 C   0  0  0  0  0  0  0  0  0  0  0  0
   -1.2200  -10.3147    0.9593 C   0  0  0  0  0  0  0  0  0  0  0  0
    0.0645  -10.8689    1.0033 C   0  0  0  0  0  0  0  0  0  0  0  0
    1.3268   -9.6659    0.7080 S   0  0  0  0  0  0  0  0  0  0  0  0
    0.2618  -12.2379    1.2206 C   0  0  0  0  0  0  0  0  0  0  0  0
    1.4152  -12.9814    1.2616 C   0  0  0  0  0  0  0  0  0  0  0  0
    2.7793  -12.4587    1.1396 C   0  0  0  0  0  0  0  0  0  0  0  0
    3.1233  -11.2929    1.0402 O   0  0  0  0  0  0  0  0  0  0  0  0
    3.6763  -13.6264    1.1749 C   0  0  0  0  0  0  0  0  0  0  0  0
    5.0644  -13.6201    1.0596 C   0  0  0  0  0  0  0  0  0  0  0  0
    5.6335  -14.8702    1.1020 C   0  0  0  0  0  0  0  0  0  0  0  0
    4.8773  -16.0396    1.2542 C   0  0  0  0  0  0  0  0  0  0  0  0
    3.5080  -16.0581    1.3776 C   0  0  0  0  0  0  0  0  0  0  0  0
    2.9070  -14.7964    1.3317 C   0  0  0  0  0  0  0  0  0  0  0  0
    1.4952  -14.4195    1.4116 C   0  0  0  0  0  0  0  0  0  0  0  0
    0.4540  -15.2959    1.5925 C   0  0  0  0  0  0  0  0  0  0  0  0
   -0.9108  -14.9528    1.6765 C   0  0  0  0  0  0  0  0  0  0  0  0
   -2.0426  -14.7684    1.7571 N   0  0  0  0  0  0  0  0  0  0  0  0
    0.5974  -16.6920    1.7294 C   0  0  0  0  0  0  0  0  0  0  0  0
    0.6306  -17.8340    1.8478 N   0  0  0  0  0  0  0  0  0  0  0  0
    6.0937  -16.9300    1.1931 C   0  0  0  0  0  0  0  0  0  0  0  0
    6.3373  -17.6701   -0.1392 C   0  0  0  0  0  0  0  0  0  0  0  0
    7.7976  -18.0561   -0.0772 C   0  0  0  0  0  0  0  0  0  0  0  0
    8.5142  -16.9487   -0.2210 C   0  0  0  0  0  0  0  0  0  0  0  0
    7.5503  -15.7955   -0.3827 C   0  0  0  0  0  0  0  0  0  0  0  0
    6.4152  -16.5040   -1.1332 C   0  0  0  0  0  0  0  0  0  0  0  0
    6.9370  -15.6256    1.0237 C   0  0  0  0  0  0  0  0  0  0  0  0
   -0.0583    9.1579    1.2198 H   0  0  0  0  0  0  0  0  0  0  0  0
   -2.9666    9.2164   -4.2900 H   0  0  0  0  0  0  0  0  0  0  0  0
   -2.6420   13.3645   -1.4037 H   0  0  0  0  0  0  0  0  0  0  0  0
   -4.6714   13.9439   -4.1265 H   0  0  0  0  0  0  0  0  0  0  0  0
   -2.7388   15.3338   -4.8534 H   0  0  0  0  0  0  0  0  0  0  0  0
   -0.5958   13.8774   -4.5020 H   0  0  0  0  0  0  0  0  0  0  0  0
   -0.7961   11.7189   -6.0363 H   0  0  0  0  0  0  0  0  0  0  0  0
   -3.0636   11.8447   -7.3338 H   0  0  0  0  0  0  0  0  0  0  0  0
   -2.5494   14.4421   -7.3400 H   0  0  0  0  0  0  0  0  0  0  0  0
   -4.2292   14.2102   -6.7936 H   0  0  0  0  0  0  0  0  0  0  0  0
   -4.8652   11.8439   -5.6132 H   0  0  0  0  0  0  0  0  0  0  0  0
   -2.9095    7.8813    2.2663 H   0  0  0  0  0  0  0  0  0  0  0  0
   -4.0166    9.9916    2.8105 H   0  0  0  0  0  0  0  0  0  0  0  0
   -6.3040   11.8179    0.4678 H   0  0  0  0  0  0  0  0  0  0  0  0
   -4.8181   12.3029    1.2870 H   0  0  0  0  0  0  0  0  0  0  0  0
   -6.0829   11.4850    2.1932 H   0  0  0  0  0  0  0  0  0  0  0  0
   -5.7792   10.0837   -1.0733 H   0  0  0  0  0  0  0  0  0  0  0  0
   -4.6973    7.9541   -1.6166 H   0  0  0  0  0  0  0  0  0  0  0  0
   -3.1824    6.1071   -2.6626 H   0  0  0  0  0  0  0  0  0  0  0  0
   -4.7218    4.5094   -3.7737 H   0  0  0  0  0  0  0  0  0  0  0  0
   -5.9963    2.3564   -3.4821 H   0  0  0  0  0  0  0  0  0  0  0  0
   -6.7838    2.0247   -1.9323 H   0  0  0  0  0  0  0  0  0  0  0  0
   -7.3652    3.3369   -2.9592 H   0  0  0  0  0  0  0  0  0  0  0  0
   -6.1625    3.2631    0.0413 H   0  0  0  0  0  0  0  0  0  0  0  0
   -4.6928    4.9125    1.1352 H   0  0  0  0  0  0  0  0  0  0  0  0
    3.9101    2.0398    2.3998 H   0  0  0  0  0  0  0  0  0  0  0  0
    5.7038    0.9487    1.1377 H   0  0  0  0  0  0  0  0  0  0  0  0
    6.7082    0.2916   -0.8967 H   0  0  0  0  0  0  0  0  0  0  0  0
    6.3625    1.3230   -2.2904 H   0  0  0  0  0  0  0  0  0  0  0  0
    5.5098   -0.2034   -2.1004 H   0  0  0  0  0  0  0  0  0  0  0  0
    3.7424    1.9268   -2.5175 H   0  0  0  0  0  0  0  0  0  0  0  0
    2.0037    3.1246   -1.2656 H   0  0  0  0  0  0  0  0  0  0  0  0
    4.1413    4.6521    1.8949 H   0  0  0  0  0  0  0  0  0  0  0  0
    4.6489    5.9034    3.9420 H   0  0  0  0  0  0  0  0  0  0  0  0
    2.6231    5.8300    6.9892 H   0  0  0  0  0  0  0  0  0  0  0  0
    2.6277    7.2948    6.0117 H   0  0  0  0  0  0  0  0  0  0  0  0
    4.1305    6.4069    6.2600 H   0  0  0  0  0  0  0  0  0  0  0  0
    0.8135    4.9063    5.5172 H   0  0  0  0  0  0  0  0  0  0  0  0
    0.3102    3.6278    3.4797 H   0  0  0  0  0  0  0  0  0  0  0  0
   -2.9855    2.8386   -3.0963 H   0  0  0  0  0  0  0  0  0  0  0  0
   -2.0007    4.6100   -4.5075 H   0  0  0  0  0  0  0  0  0  0  0  0
    1.1460    7.3810   -4.1945 H   0  0  0  0  0  0  0  0  0  0  0  0
    1.3688    6.0851   -2.9953 H   0  0  0  0  0  0  0  0  0  0  0  0
   -0.2750    6.6307   -3.4275 H   0  0  0  0  0  0  0  0  0  0  0  0
    1.8682    2.9213   -3.9394 H   0  0  0  0  0  0  0  0  0  0  0  0
    0.8944    1.1402   -2.5329 H   0  0  0  0  0  0  0  0  0  0  0  0
   -3.3021    0.3737    0.1674 H   0  0  0  0  0  0  0  0  0  0  0  0
   -5.5796   -0.5397   -0.0699 H   0  0  0  0  0  0  0  0  0  0  0  0
   -8.6376   -1.5075   -4.0638 H   0  0  0  0  0  0  0  0  0  0  0  0
   -7.4990   -0.1912   -4.4245 H   0  0  0  0  0  0  0  0  0  0  0  0
   -6.9731   -1.9032   -4.5417 H   0  0  0  0  0  0  0  0  0  0  0  0
   -5.1505   -0.4704   -4.3249 H   0  0  0  0  0  0  0  0  0  0  0  0
   -2.8942    0.4126   -4.0854 H   0  0  0  0  0  0  0  0  0  0  0  0
    2.2576   -2.6252    4.2765 H   0  0  0  0  0  0  0  0  0  0  0  0
    4.5263   -1.8244    4.6686 H   0  0  0  0  0  0  0  0  0  0  0  0
    6.8546   -2.1481    4.8573 H   0  0  0  0  0  0  0  0  0  0  0  0
    8.0344   -0.8393    4.6232 H   0  0  0  0  0  0  0  0  0  0  0  0
    6.3578   -0.4339    5.0492 H   0  0  0  0  0  0  0  0  0  0  0  0
    5.1139   -1.4445    0.4463 H   0  0  0  0  0  0  0  0  0  0  0  0
    2.8150   -2.2211    0.0595 H   0  0  0  0  0  0  0  0  0  0  0  0
    2.6039   -4.9919    2.8292 H   0  0  0  0  0  0  0  0  0  0  0  0
    1.8090   -7.0829    3.7754 H   0  0  0  0  0  0  0  0  0  0  0  0
    0.9776   -9.2187    3.4297 H   0  0  0  0  0  0  0  0  0  0  0  0
    0.0146  -10.1509    4.5970 H   0  0  0  0  0  0  0  0  0  0  0  0
    1.0787   -8.8536    5.1832 H   0  0  0  0  0  0  0  0  0  0  0  0
   -2.2107   -5.6354    3.6112 H   0  0  0  0  0  0  0  0  0  0  0  0
   -1.4006   -3.5087    2.6715 H   0  0  0  0  0  0  0  0  0  0  0  0
   -3.7626   -8.8381    1.3880 H   0  0  0  0  0  0  0  0  0  0  0  0
   -3.9373   -7.1154    1.0024 H   0  0  0  0  0  0  0  0  0  0  0  0
   -5.2458   -8.5190   -0.5933 H   0  0  0  0  0  0  0  0  0  0  0  0
   -3.9497   -7.6634   -1.4372 H   0  0  0  0  0  0  0  0  0  0  0  0
   -3.7735   -9.3790   -1.0566 H   0  0  0  0  0  0  0  0  0  0  0  0
   -2.6667   -5.0019    0.1244 H   0  0  0  0  0  0  0  0  0  0  0  0
   -2.1015  -10.9080    1.1243 H   0  0  0  0  0  0  0  0  0  0  0  0
   -0.6674  -12.7794    1.3498 H   0  0  0  0  0  0  0  0  0  0  0  0
    5.6062  -12.6943    0.9450 H   0  0  0  0  0  0  0  0  0  0  0  0
    2.9442  -16.9678    1.4968 H   0  0  0  0  0  0  0  0  0  0  0  0
    6.2702  -17.5554    2.0661 H   0  0  0  0  0  0  0  0  0  0  0  0
    5.6290  -18.4656   -0.3538 H   0  0  0  0  0  0  0  0  0  0  0  0
    8.1467  -19.0538    0.1141 H   0  0  0  0  0  0  0  0  0  0  0  0
    9.5815  -16.8364   -0.1738 H   0  0  0  0  0  0  0  0  0  0  0  0
    7.9474  -14.8832   -0.8198 H   0  0  0  0  0  0  0  0  0  0  0  0
    5.4993  -15.9206   -1.2062 H   0  0  0  0  0  0  0  0  0  0  0  0
    6.7193  -16.8297   -2.1266 H   0  0  0  0  0  0  0  0  0  0  0  0
    7.6765  -15.3808    1.7840 H   0  0  0  0  0  0  0  0  0  0  0  0
  1  2  2  0  0  0  0
  2  3  1  0  0  0  0
  3  4  2  0  0  0  0
  3  5  1  0  0  0  0
  5  6  2  0  0  0  0
  6  7  1  0  0  0  0
  7  8  2  0  0  0  0
  8  9  1  0  0  0  0
  9 10  2  0  0  0  0
 10 11  1  0  0  0  0
 11 12  2  0  0  0  0
 12 13  1  0  0  0  0
 13 14  3  0  0  0  0
 12 15  1  0  0  0  0
 15 16  3  0  0  0  0
  8 17  1  0  0  0  0
 17 18  1  0  0  0  0
 18 19  1  0  0  0  0
 19 20  2  0  0  0  0
 20 21  1  0  0  0  0
 21 22  1  0  0  0  0
 21 23  1  0  0  0  0
  1 24  1  0  0  0  0
 24 25  2  0  0  0  0
 25 26  1  0  0  0  0
 26 27  1  0  0  0  0
 27 28  2  0  0  0  0
 28 29  1  0  0  0  0
 29 30  2  0  0  0  0
 30 31  1  0  0  0  0
 30 32  1  0  0  0  0
 32 33  2  0  0  0  0
 26 34  1  0  0  0  0
 34 35  2  0  0  0  0
 35 36  1  0  0  0  0
 36 37  2  0  0  0  0
 37 38  1  0  0  0  0
 37 39  1  0  0  0  0
 39 40  2  0  0  0  0
 25 41  1  0  0  0  0
 41 42  1  0  0  0  0
 42 43  1  0  0  0  0
 43 44  2  0  0  0  0
 44 45  1  0  0  0  0
 45 46  1  0  0  0  0
 46 47  2  0  0  0  0
 47 48  1  0  0  0  0
 48 49  2  0  0  0  0
 49 50  1  0  0  0  0
 49 51  1  0  0  0  0
 51 52  2  0  0  0  0
 45 53  1  0  0  0  0
 53 54  2  0  0  0  0
 54 55  1  0  0  0  0
 55 56  2  0  0  0  0
 56 57  1  0  0  0  0
 56 58  1  0  0  0  0
 58 59  2  0  0  0  0
 44 60  1  0  0  0  0
 60 61  1  0  0  0  0
 43 62  1  0  0  0  0
 62 63  2  0  0  0  0
 63 64  1  0  0  0  0
 64 65  1  0  0  0  0
 65 66  2  0  0  0  0
 66 67  1  0  0  0  0
 67 68  2  0  0  0  0
 68 69  1  0  0  0  0
 69 70  1  0  0  0  0
 68 71  1  0  0  0  0
 71 72  2  0  0  0  0
 64 73  1  0  0  0  0
 73 74  2  0  0  0  0
 74 75  1  0  0  0  0
 75 76  2  0  0  0  0
 76 77  1  0  0  0  0
 77 78  1  0  0  0  0
 76 79  1  0  0  0  0
 79 80  2  0  0  0  0
 63 81  1  0  0  0  0
 81 82  1  0  0  0  0
 82 83  1  0  0  0  0
 83 84  2  0  0  0  0
 84 85  1  0  0  0  0
 85 86  1  0  0  0  0
 86 87  2  0  0  0  0
 87 88  1  0  0  0  0
 88 89  2  0  0  0  0
 89 90  1  0  0  0  0
 90 91  1  0  0  0  0
 89 92  1  0  0  0  0
 92 93  2  0  0  0  0
 85 94  1  0  0  0  0
 94 95  2  0  0  0  0
 95 96  1  0  0  0  0
 96 97  2  0  0  0  0
 97 98  1  0  0  0  0
 98 99  1  0  0  0  0
 97100  1  0  0  0  0
100101  2  0  0  0  0
 84102  1  0  0  0  0
102103  1  0  0  0  0
 83104  1  0  0  0  0
104105  1  0  0  0  0
105106  1  0  0  0  0
106107  1  0  0  0  0
107108  2  0  0  0  0
108109  1  0  0  0  0
109110  1  0  0  0  0
110111  1  0  0  0  0
109112  1  0  0  0  0
112113  1  0  0  0  0
108114  1  0  0  0  0
114115  2  0  0  0  0
115116  1  0  0  0  0
115117  1  0  0  0  0
117118  2  0  0  0  0
118119  1  0  0  0  0
119120  2  0  0  0  0
119121  1  0  0  0  0
121122  2  0  0  0  0
122123  1  0  0  0  0
123124  2  0  0  0  0
124125  1  0  0  0  0
125126  2  0  0  0  0
126127  1  0  0  0  0
127128  2  0  0  0  0
128129  1  0  0  0  0
129130  3  0  0  0  0
128131  1  0  0  0  0
131132  3  0  0  0  0
124133  1  0  0  0  0
133134  1  0  0  0  0
134135  1  0  0  0  0
135136  2  0  0  0  0
136137  1  0  0  0  0
137138  1  0  0  0  0
137139  1  0  0  0  0
 11  2  1  0  0  0  0
 23 17  1  0  0  0  0
 61 24  1  0  0  0  0
103 62  1  0  0  0  0
113104  2  0  0  0  0
127118  1  0  0  0  0
139133  1  0  0  0  0
 10  5  1  0  0  0  0
 22 18  1  0  0  0  0
 33 27  1  0  0  0  0
 40 34  1  0  0  0  0
 60 41  2  0  0  0  0
 72 65  1  0  0  0  0
 80 73  1  0  0  0  0
102 81  2  0  0  0  0
112106  2  0  0  0  0
126121  1  0  0  0  0
138134  1  0  0  0  0
 23  7  1  0  0  0  0
 52 46  1  0  0  0  0
 59 53  1  0  0  0  0
 93 86  1  0  0  0  0
101 94  1  0  0  0  0
116107  1  0  0  0  0
139123  1  0  0  0  0
  1140  1  0  0  0  0
  6141  1  0  0  0  0
  9142  1  0  0  0  0
 17143  1  0  0  0  0
 18144  1  0  0  0  0
 19145  1  0  0  0  0
 20146  1  0  0  0  0
 21147  1  0  0  0  0
 22148  1  0  0  0  0
 22149  1  0  0  0  0
 23150  1  0  0  0  0
 28151  1  0  0  0  0
 29152  1  0  0  0  0
 31153  1  0  0  0  0
 31154  1  0  0  0  0
 31155  1  0  0  0  0
 32156  1  0  0  0  0
 33157  1  0  0  0  0
 35158  1  0  0  0  0
 36159  1  0  0  0  0
 38160  1  0  0  0  0
 38161  1  0  0  0  0
 38162  1  0  0  0  0
 39163  1  0  0  0  0
 40164  1  0  0  0  0
 47165  1  0  0  0  0
 48166  1  0  0  0  0
 50167  1  0  0  0  0
 50168  1  0  0  0  0
 50169  1  0  0  0  0
 51170  1  0  0  0  0
 52171  1  0  0  0  0
 54172  1  0  0  0  0
 55173  1  0  0  0  0
 57174  1  0  0  0  0
 57175  1  0  0  0  0
 57176  1  0  0  0  0
 58177  1  0  0  0  0
 59178  1  0  0  0  0
 66179  1  0  0  0  0
 67180  1  0  0  0  0
 70181  1  0  0  0  0
 70182  1  0  0  0  0
 70183  1  0  0  0  0
 71184  1  0  0  0  0
 72185  1  0  0  0  0
 74186  1  0  0  0  0
 75187  1  0  0  0  0
 78188  1  0  0  0  0
 78189  1  0  0  0  0
 78190  1  0  0  0  0
 79191  1  0  0  0  0
 80192  1  0  0  0  0
 87193  1  0  0  0  0
 88194  1  0  0  0  0
 91195  1  0  0  0  0
 91196  1  0  0  0  0
 91197  1  0  0  0  0
 92198  1  0  0  0  0
 93199  1  0  0  0  0
 95200  1  0  0  0  0
 96201  1  0  0  0  0
 99202  1  0  0  0  0
 99203  1  0  0  0  0
 99204  1  0  0  0  0
100205  1  0  0  0  0
101206  1  0  0  0  0
110207  1  0  0  0  0
110208  1  0  0  0  0
111209  1  0  0  0  0
111210  1  0  0  0  0
111211  1  0  0  0  0
113212  1  0  0  0  0
114213  1  0  0  0  0
117214  1  0  0  0  0
122215  1  0  0  0  0
125216  1  0  0  0  0
133217  1  0  0  0  0
134218  1  0  0  0  0
135219  1  0  0  0  0
136220  1  0  0  0  0
137221  1  0  0  0  0
138222  1  0  0  0  0
138223  1  0  0  0  0
139224  1  0  0  0  0
M  END
