
  xtb     02132209303D
 energy: -298.272975053227 gnorm: 0.000360386354 xtb: 6.4.1 (unknown)
178196  0     0  0            999 V2000
   -4.5440   -6.5012    2.4483 C   0  0  0  0  0  0  0  0  0  0  0  0
   -4.8328   -5.7662    3.5681 C   0  0  0  0  0  0  0  0  0  0  0  0
   -5.3071   -4.3773    3.5957 C   0  0  0  0  0  0  0  0  0  0  0  0
   -5.3743   -3.5893    2.6681 O   0  0  0  0  0  0  0  0  0  0  0  0
   -5.7392   -4.1246    4.9836 C   0  0  0  0  0  0  0  0  0  0  0  0
   -6.3127   -2.9586    5.4858 C   0  0  0  0  0  0  0  0  0  0  0  0
   -6.6090   -3.0129    6.8268 C   0  0  0  0  0  0  0  0  0  0  0  0
   -6.3632   -4.1469    7.6120 C   0  0  0  0  0  0  0  0  0  0  0  0
   -5.7993   -5.3048    7.1300 C   0  0  0  0  0  0  0  0  0  0  0  0
   -5.4812   -5.2664    5.7699 C   0  0  0  0  0  0  0  0  0  0  0  0
   -4.8432   -6.2711    4.9232 C   0  0  0  0  0  0  0  0  0  0  0  0
   -4.2270   -7.4181    5.3565 C   0  0  0  0  0  0  0  0  0  0  0  0
   -4.2394   -7.8741    6.6895 C   0  0  0  0  0  0  0  0  0  0  0  0
   -4.2253   -8.3031    7.7547 N   0  0  0  0  0  0  0  0  0  0  0  0
   -3.4329   -8.2446    4.5351 C   0  0  0  0  0  0  0  0  0  0  0  0
   -2.7358   -8.9294    3.9303 N   0  0  0  0  0  0  0  0  0  0  0  0
   -6.8980   -3.4955    8.8631 C   0  0  0  0  0  0  0  0  0  0  0  0
   -5.8486   -2.9927    9.8771 C   0  0  0  0  0  0  0  0  0  0  0  0
   -6.6117   -2.0020   10.7265 C   0  0  0  0  0  0  0  0  0  0  0  0
   -6.8416   -0.9267    9.9839 C   0  0  0  0  0  0  0  0  0  0  0  0
   -6.2379   -1.1728    8.6199 C   0  0  0  0  0  0  0  0  0  0  0  0
   -5.0254   -2.0242    9.0180 C   0  0  0  0  0  0  0  0  0  0  0  0
   -7.1691   -2.2296    7.9882 C   0  0  0  0  0  0  0  0  0  0  0  0
   -4.3114   -6.0611    1.1386 C   0  0  0  0  0  0  0  0  0  0  0  0
   -4.0071   -6.9192    0.0863 C   0  0  0  0  0  0  0  0  0  0  0  0
   -3.5661   -6.2679   -1.0627 C   0  0  0  0  0  0  0  0  0  0  0  0
   -3.2394   -6.9741   -2.1760 O   0  0  0  0  0  0  0  0  0  0  0  0
   -3.7982   -6.5361   -3.4046 C   0  0  0  0  0  0  0  0  0  0  0  0
   -5.2979   -6.8049   -3.4665 C   0  0  0  0  0  0  0  0  0  0  0  0
   -3.4975   -4.8804   -0.8821 C   0  0  0  0  0  0  0  0  0  0  0  0
   -4.1642   -4.3996    0.6409 S   0  0  0  0  0  0  0  0  0  0  0  0
   -2.8385   -3.8589   -1.6441 C   0  0  0  0  0  0  0  0  0  0  0  0
   -1.7013   -4.0502   -2.4207 C   0  0  0  0  0  0  0  0  0  0  0  0
   -1.2379   -5.2870   -2.6742 F   0  0  0  0  0  0  0  0  0  0  0  0
   -0.9170   -2.9844   -2.8619 C   0  0  0  0  0  0  0  0  0  0  0  0
    0.1683   -3.2674   -3.6092 F   0  0  0  0  0  0  0  0  0  0  0  0
   -1.1982   -1.6643   -2.5306 C   0  0  0  0  0  0  0  0  0  0  0  0
   -2.4700   -1.4250   -1.9392 C   0  0  0  0  0  0  0  0  0  0  0  0
   -2.9061   -0.1703   -1.7926 N   0  0  0  0  0  0  0  0  0  0  0  0
   -4.0116    0.0653   -1.1246 C   0  0  0  0  0  0  0  0  0  0  0  0
   -4.4350    1.4991   -1.0415 C   0  0  0  0  0  0  0  0  0  0  0  0
   -3.6199    2.2235    0.0318 C   0  0  0  0  0  0  0  0  0  0  0  0
   -4.7142   -1.0101   -0.5133 C   0  0  0  0  0  0  0  0  0  0  0  0
   -4.3351   -2.2468   -0.7289 N   0  0  0  0  0  0  0  0  0  0  0  0
   -3.2392   -2.5027   -1.4489 C   0  0  0  0  0  0  0  0  0  0  0  0
   -5.9213   -0.8441    0.3552 C   0  0  0  0  0  0  0  0  0  0  0  0
   -7.1996   -0.9392   -0.4813 C   0  0  0  0  0  0  0  0  0  0  0  0
   -0.2562   -0.5983   -2.6283 C   0  0  0  0  0  0  0  0  0  0  0  0
    1.1291   -0.6813   -2.4768 C   0  0  0  0  0  0  0  0  0  0  0  0
    1.8026   -1.7879   -2.0050 N   0  0  0  0  0  0  0  0  0  0  0  0
    1.1988   -2.6424   -1.0652 C   0  0  0  0  0  0  0  0  0  0  0  0
    0.3376   -2.1439   -0.0844 C   0  0  0  0  0  0  0  0  0  0  0  0
   -0.3124   -3.0015    0.7726 C   0  0  0  0  0  0  0  0  0  0  0  0
   -0.1071   -4.3795    0.6914 C   0  0  0  0  0  0  0  0  0  0  0  0
   -1.0108   -5.3710    1.8370 S   0  0  0  0  0  0  0  0  0  0  0  0
   -0.6846   -7.0773    1.3153 C   0  0  0  0  0  0  0  0  0  0  0  0
    0.7867   -4.8764   -0.2479 C   0  0  0  0  0  0  0  0  0  0  0  0
    1.4295   -4.0148   -1.1169 C   0  0  0  0  0  0  0  0  0  0  0  0
    3.1622   -1.9354   -2.3127 C   0  0  0  0  0  0  0  0  0  0  0  0
    4.0762   -2.3225   -1.3335 C   0  0  0  0  0  0  0  0  0  0  0  0
    5.4230   -2.3493   -1.6201 C   0  0  0  0  0  0  0  0  0  0  0  0
    5.8795   -1.9861   -2.8832 C   0  0  0  0  0  0  0  0  0  0  0  0
    7.6233   -1.9406   -3.1569 S   0  0  0  0  0  0  0  0  0  0  0  0
    7.7599   -0.5581   -4.3310 C   0  0  0  0  0  0  0  0  0  0  0  0
    4.9673   -1.6735   -3.8815 C   0  0  0  0  0  0  0  0  0  0  0  0
    3.6175   -1.6510   -3.5978 C   0  0  0  0  0  0  0  0  0  0  0  0
    1.7298    0.5833   -2.7000 C   0  0  0  0  0  0  0  0  0  0  0  0
    3.3661    1.1330   -2.7383 S   0  0  0  0  0  0  0  0  0  0  0  0
    2.8132    2.7934   -2.9829 C   0  0  0  0  0  0  0  0  0  0  0  0
    1.3972    2.8881   -2.9499 C   0  0  0  0  0  0  0  0  0  0  0  0
    0.6661    4.0466   -2.9441 N   0  0  0  0  0  0  0  0  0  0  0  0
    1.1027    5.2462   -2.3543 C   0  0  0  0  0  0  0  0  0  0  0  0
    1.9243    5.2493   -1.2285 C   0  0  0  0  0  0  0  0  0  0  0  0
    2.3828    6.4383   -0.6995 C   0  0  0  0  0  0  0  0  0  0  0  0
    2.0026    7.6489   -1.2682 C   0  0  0  0  0  0  0  0  0  0  0  0
    2.5582    9.2167   -0.6812 S   0  0  0  0  0  0  0  0  0  0  0  0
    4.1064    8.8123    0.1783 C   0  0  0  0  0  0  0  0  0  0  0  0
    1.1249    7.6503   -2.3484 C   0  0  0  0  0  0  0  0  0  0  0  0
    0.6875    6.4635   -2.8939 C   0  0  0  0  0  0  0  0  0  0  0  0
   -0.6746    3.9844   -3.3778 C   0  0  0  0  0  0  0  0  0  0  0  0
   -1.7009    4.4763   -2.5731 C   0  0  0  0  0  0  0  0  0  0  0  0
   -3.0095    4.3589   -2.9802 C   0  0  0  0  0  0  0  0  0  0  0  0
   -3.3210    3.7513   -4.1966 C   0  0  0  0  0  0  0  0  0  0  0  0
   -5.0368    3.6039   -4.5765 S   0  0  0  0  0  0  0  0  0  0  0  0
   -5.0630    2.6632   -6.1277 C   0  0  0  0  0  0  0  0  0  0  0  0
   -2.2979    3.2994   -5.0185 C   0  0  0  0  0  0  0  0  0  0  0  0
   -0.9840    3.4166   -4.6089 C   0  0  0  0  0  0  0  0  0  0  0  0
    0.8099    1.6114   -2.8670 C   0  0  0  0  0  0  0  0  0  0  0  0
   -0.8344    1.0444   -2.7787 S   0  0  0  0  0  0  0  0  0  0  0  0
    3.6557    3.8757   -3.2235 C   0  0  0  0  0  0  0  0  0  0  0  0
    5.0291    3.9745   -3.1707 C   0  0  0  0  0  0  0  0  0  0  0  0
    5.9795    2.8991   -2.8894 C   0  0  0  0  0  0  0  0  0  0  0  0
    5.7581    1.6989   -2.8273 O   0  0  0  0  0  0  0  0  0  0  0  0
    7.2955    3.5391   -2.7220 C   0  0  0  0  0  0  0  0  0  0  0  0
    8.5014    2.9132   -2.4189 C   0  0  0  0  0  0  0  0  0  0  0  0
    9.5676    3.7751   -2.3205 C   0  0  0  0  0  0  0  0  0  0  0  0
    9.4442    5.1560   -2.5178 C   0  0  0  0  0  0  0  0  0  0  0  0
    8.2594    5.7847   -2.8233 C   0  0  0  0  0  0  0  0  0  0  0  0
    7.1602    4.9282   -2.9178 C   0  0  0  0  0  0  0  0  0  0  0  0
    5.7634    5.2146   -3.2475 C   0  0  0  0  0  0  0  0  0  0  0  0
    5.2622    6.4563   -3.5638 C   0  0  0  0  0  0  0  0  0  0  0  0
    3.9841    6.7063   -4.0977 C   0  0  0  0  0  0  0  0  0  0  0  0
    2.9841    6.9867   -4.5918 N   0  0  0  0  0  0  0  0  0  0  0  0
    5.9765    7.6606   -3.4160 C   0  0  0  0  0  0  0  0  0  0  0  0
    6.4785    8.6829   -3.2630 N   0  0  0  0  0  0  0  0  0  0  0  0
   10.9086    5.4050   -2.2557 C   0  0  0  0  0  0  0  0  0  0  0  0
   11.3043    5.9877   -0.8764 C   0  0  0  0  0  0  0  0  0  0  0  0
   10.2266    5.5667    0.0915 C   0  0  0  0  0  0  0  0  0  0  0  0
   10.3408    4.2590    0.2808 C   0  0  0  0  0  0  0  0  0  0  0  0
   11.4984    3.7721   -0.5551 C   0  0  0  0  0  0  0  0  0  0  0  0
   12.4176    5.0021   -0.4870 C   0  0  0  0  0  0  0  0  0  0  0  0
   11.0452    3.8656   -2.0332 C   0  0  0  0  0  0  0  0  0  0  0  0
   -4.4266   -7.5711    2.5760 H   0  0  0  0  0  0  0  0  0  0  0  0
   -6.4896   -2.1075    4.8468 H   0  0  0  0  0  0  0  0  0  0  0  0
   -5.6216   -6.1731    7.7426 H   0  0  0  0  0  0  0  0  0  0  0  0
   -7.7426   -3.9932    9.3355 H   0  0  0  0  0  0  0  0  0  0  0  0
   -5.3115   -3.7774   10.4025 H   0  0  0  0  0  0  0  0  0  0  0  0
   -6.9427   -2.2008   11.7289 H   0  0  0  0  0  0  0  0  0  0  0  0
   -7.4032   -0.0480   10.2419 H   0  0  0  0  0  0  0  0  0  0  0  0
   -6.0549   -0.2985    8.0009 H   0  0  0  0  0  0  0  0  0  0  0  0
   -4.3042   -1.4619    9.6089 H   0  0  0  0  0  0  0  0  0  0  0  0
   -4.5187   -2.4961    8.1783 H   0  0  0  0  0  0  0  0  0  0  0  0
   -8.1948   -1.8820    7.8784 H   0  0  0  0  0  0  0  0  0  0  0  0
   -4.0710   -7.9904    0.1568 H   0  0  0  0  0  0  0  0  0  0  0  0
   -3.6073   -5.4703   -3.5727 H   0  0  0  0  0  0  0  0  0  0  0  0
   -3.2684   -7.1133   -4.1651 H   0  0  0  0  0  0  0  0  0  0  0  0
   -5.8181   -6.2193   -2.7105 H   0  0  0  0  0  0  0  0  0  0  0  0
   -5.6801   -6.5330   -4.4464 H   0  0  0  0  0  0  0  0  0  0  0  0
   -5.4965   -7.8587   -3.2882 H   0  0  0  0  0  0  0  0  0  0  0  0
   -4.2349    1.9693   -2.0052 H   0  0  0  0  0  0  0  0  0  0  0  0
   -5.4988    1.5770   -0.8230 H   0  0  0  0  0  0  0  0  0  0  0  0
   -3.9232    3.2653    0.0917 H   0  0  0  0  0  0  0  0  0  0  0  0
   -2.5639    2.1811   -0.2217 H   0  0  0  0  0  0  0  0  0  0  0  0
   -3.7648    1.7611    1.0061 H   0  0  0  0  0  0  0  0  0  0  0  0
   -5.9114   -1.6568    1.0835 H   0  0  0  0  0  0  0  0  0  0  0  0
   -5.8868    0.1109    0.8794 H   0  0  0  0  0  0  0  0  0  0  0  0
   -8.0724   -0.8389    0.1585 H   0  0  0  0  0  0  0  0  0  0  0  0
   -7.2318   -0.1578   -1.2385 H   0  0  0  0  0  0  0  0  0  0  0  0
   -7.2426   -1.9045   -0.9787 H   0  0  0  0  0  0  0  0  0  0  0  0
    0.1725   -1.0798   -0.0030 H   0  0  0  0  0  0  0  0  0  0  0  0
   -0.9896   -2.6170    1.5199 H   0  0  0  0  0  0  0  0  0  0  0  0
    0.3663   -7.3137    1.4538 H   0  0  0  0  0  0  0  0  0  0  0  0
   -0.9908   -7.2097    0.2816 H   0  0  0  0  0  0  0  0  0  0  0  0
   -1.2889   -7.7009    1.9687 H   0  0  0  0  0  0  0  0  0  0  0  0
    0.9761   -5.9340   -0.3297 H   0  0  0  0  0  0  0  0  0  0  0  0
    2.1001   -4.4102   -1.8649 H   0  0  0  0  0  0  0  0  0  0  0  0
    3.7269   -2.5651   -0.3408 H   0  0  0  0  0  0  0  0  0  0  0  0
    6.1379   -2.6197   -0.8584 H   0  0  0  0  0  0  0  0  0  0  0  0
    7.0796    0.2270   -4.0134 H   0  0  0  0  0  0  0  0  0  0  0  0
    8.7892   -0.2161   -4.2812 H   0  0  0  0  0  0  0  0  0  0  0  0
    7.5362   -0.8911   -5.3405 H   0  0  0  0  0  0  0  0  0  0  0  0
    5.3012   -1.4399   -4.8796 H   0  0  0  0  0  0  0  0  0  0  0  0
    2.9049   -1.4096   -4.3722 H   0  0  0  0  0  0  0  0  0  0  0  0
    2.2190    4.3148   -0.7741 H   0  0  0  0  0  0  0  0  0  0  0  0
    3.0276    6.4113    0.1647 H   0  0  0  0  0  0  0  0  0  0  0  0
    3.9025    8.3238    1.1269 H   0  0  0  0  0  0  0  0  0  0  0  0
    4.6004    9.7626    0.3542 H   0  0  0  0  0  0  0  0  0  0  0  0
    4.7243    8.1909   -0.4631 H   0  0  0  0  0  0  0  0  0  0  0  0
    0.8197    8.5909   -2.7776 H   0  0  0  0  0  0  0  0  0  0  0  0
    0.0422    6.4726   -3.7580 H   0  0  0  0  0  0  0  0  0  0  0  0
   -1.4639    4.9327   -1.6240 H   0  0  0  0  0  0  0  0  0  0  0  0
   -3.8112    4.7244   -2.3572 H   0  0  0  0  0  0  0  0  0  0  0  0
   -6.1123    2.4984   -6.3523 H   0  0  0  0  0  0  0  0  0  0  0  0
   -4.5602    1.7107   -5.9885 H   0  0  0  0  0  0  0  0  0  0  0  0
   -4.6043    3.2426   -6.9235 H   0  0  0  0  0  0  0  0  0  0  0  0
   -2.5061    2.8529   -5.9768 H   0  0  0  0  0  0  0  0  0  0  0  0
   -0.1878    3.0604   -5.2453 H   0  0  0  0  0  0  0  0  0  0  0  0
    3.1330    4.7947   -3.4537 H   0  0  0  0  0  0  0  0  0  0  0  0
    8.5539    1.8451   -2.2754 H   0  0  0  0  0  0  0  0  0  0  0  0
    8.1833    6.8483   -2.9769 H   0  0  0  0  0  0  0  0  0  0  0  0
   11.4703    5.8540   -3.0725 H   0  0  0  0  0  0  0  0  0  0  0  0
   11.5526    7.0456   -0.8879 H   0  0  0  0  0  0  0  0  0  0  0  0
    9.4789    6.2327    0.4810 H   0  0  0  0  0  0  0  0  0  0  0  0
    9.7071    3.6130    0.8600 H   0  0  0  0  0  0  0  0  0  0  0  0
   11.9236    2.8125   -0.2732 H   0  0  0  0  0  0  0  0  0  0  0  0
   13.2386    4.9703   -1.2019 H   0  0  0  0  0  0  0  0  0  0  0  0
   12.8079    5.1814    0.5136 H   0  0  0  0  0  0  0  0  0  0  0  0
   11.6985    3.3096   -2.7029 H   0  0  0  0  0  0  0  0  0  0  0  0
  1  2  2  0  0  0  0
  2  3  1  0  0  0  0
  3  4  2  0  0  0  0
  3  5  1  0  0  0  0
  5  6  2  0  0  0  0
  6  7  1  0  0  0  0
  7  8  2  0  0  0  0
  8  9  1  0  0  0  0
  9 10  2  0  0  0  0
 10 11  1  0  0  0  0
 11 12  2  0  0  0  0
 12 13  1  0  0  0  0
 13 14  3  0  0  0  0
 12 15  1  0  0  0  0
 15 16  3  0  0  0  0
  8 17  1  0  0  0  0
 17 18  1  0  0  0  0
 18 19  1  0  0  0  0
 19 20  2  0  0  0  0
 20 21  1  0  0  0  0
 21 22  1  0  0  0  0
 21 23  1  0  0  0  0
  1 24  1  0  0  0  0
 24 25  2  0  0  0  0
 25 26  1  0  0  0  0
 26 27  1  0  0  0  0
 27 28  1  0  0  0  0
 28 29  1  0  0  0  0
 26 30  2  0  0  0  0
 30 31  1  0  0  0  0
 30 32  1  0  0  0  0
 32 33  2  0  0  0  0
 33 34  1  0  0  0  0
 33 35  1  0  0  0  0
 35 36  1  0  0  0  0
 35 37  2  0  0  0  0
 37 38  1  0  0  0  0
 38 39  2  0  0  0  0
 39 40  1  0  0  0  0
 40 41  1  0  0  0  0
 41 42  1  0  0  0  0
 40 43  2  0  0  0  0
 43 44  1  0  0  0  0
 44 45  2  0  0  0  0
 43 46  1  0  0  0  0
 46 47  1  0  0  0  0
 37 48  1  0  0  0  0
 48 49  2  0  0  0  0
 49 50  1  0  0  0  0
 50 51  1  0  0  0  0
 51 52  2  0  0  0  0
 52 53  1  0  0  0  0
 53 54  2  0  0  0  0
 54 55  1  0  0  0  0
 55 56  1  0  0  0  0
 54 57  1  0  0  0  0
 57 58  2  0  0  0  0
 50 59  1  0  0  0  0
 59 60  2  0  0  0  0
 60 61  1  0  0  0  0
 61 62  2  0  0  0  0
 62 63  1  0  0  0  0
 63 64  1  0  0  0  0
 62 65  1  0  0  0  0
 65 66  2  0  0  0  0
 49 67  1  0  0  0  0
 67 68  1  0  0  0  0
 68 69  1  0  0  0  0
 69 70  2  0  0  0  0
 70 71  1  0  0  0  0
 71 72  1  0  0  0  0
 72 73  2  0  0  0  0
 73 74  1  0  0  0  0
 74 75  2  0  0  0  0
 75 76  1  0  0  0  0
 76 77  1  0  0  0  0
 75 78  1  0  0  0  0
 78 79  2  0  0  0  0
 71 80  1  0  0  0  0
 80 81  2  0  0  0  0
 81 82  1  0  0  0  0
 82 83  2  0  0  0  0
 83 84  1  0  0  0  0
 84 85  1  0  0  0  0
 83 86  1  0  0  0  0
 86 87  2  0  0  0  0
 70 88  1  0  0  0  0
 88 89  1  0  0  0  0
 69 90  1  0  0  0  0
 90 91  2  0  0  0  0
 91 92  1  0  0  0  0
 92 93  2  0  0  0  0
 92 94  1  0  0  0  0
 94 95  2  0  0  0  0
 95 96  1  0  0  0  0
 96 97  2  0  0  0  0
 97 98  1  0  0  0  0
 98 99  2  0  0  0  0
 99100  1  0  0  0  0
100101  2  0  0  0  0
101102  1  0  0  0  0
102103  3  0  0  0  0
101104  1  0  0  0  0
104105  3  0  0  0  0
 97106  1  0  0  0  0
106107  1  0  0  0  0
107108  1  0  0  0  0
108109  2  0  0  0  0
109110  1  0  0  0  0
110111  1  0  0  0  0
110112  1  0  0  0  0
 11  2  1  0  0  0  0
 23 17  1  0  0  0  0
 31 24  1  0  0  0  0
 45 32  1  0  0  0  0
 89 48  1  0  0  0  0
100 91  1  0  0  0  0
112106  1  0  0  0  0
 10  5  1  0  0  0  0
 22 18  1  0  0  0  0
 45 38  1  0  0  0  0
 58 51  1  0  0  0  0
 66 59  1  0  0  0  0
 88 67  2  0  0  0  0
 99 94  1  0  0  0  0
111107  1  0  0  0  0
 23  7  1  0  0  0  0
 79 72  1  0  0  0  0
 87 80  1  0  0  0  0
112 96  1  0  0  0  0
  1113  1  0  0  0  0
  6114  1  0  0  0  0
  9115  1  0  0  0  0
 17116  1  0  0  0  0
 18117  1  0  0  0  0
 19118  1  0  0  0  0
 20119  1  0  0  0  0
 21120  1  0  0  0  0
 22121  1  0  0  0  0
 22122  1  0  0  0  0
 23123  1  0  0  0  0
 25124  1  0  0  0  0
 28125  1  0  0  0  0
 28126  1  0  0  0  0
 29127  1  0  0  0  0
 29128  1  0  0  0  0
 29129  1  0  0  0  0
 41130  1  0  0  0  0
 41131  1  0  0  0  0
 42132  1  0  0  0  0
 42133  1  0  0  0  0
 42134  1  0  0  0  0
 46135  1  0  0  0  0
 46136  1  0  0  0  0
 47137  1  0  0  0  0
 47138  1  0  0  0  0
 47139  1  0  0  0  0
 52140  1  0  0  0  0
 53141  1  0  0  0  0
 56142  1  0  0  0  0
 56143  1  0  0  0  0
 56144  1  0  0  0  0
 57145  1  0  0  0  0
 58146  1  0  0  0  0
 60147  1  0  0  0  0
 61148  1  0  0  0  0
 64149  1  0  0  0  0
 64150  1  0  0  0  0
 64151  1  0  0  0  0
 65152  1  0  0  0  0
 66153  1  0  0  0  0
 73154  1  0  0  0  0
 74155  1  0  0  0  0
 77156  1  0  0  0  0
 77157  1  0  0  0  0
 77158  1  0  0  0  0
 78159  1  0  0  0  0
 79160  1  0  0  0  0
 81161  1  0  0  0  0
 82162  1  0  0  0  0
 85163  1  0  0  0  0
 85164  1  0  0  0  0
 85165  1  0  0  0  0
 86166  1  0  0  0  0
 87167  1  0  0  0  0
 90168  1  0  0  0  0
 95169  1  0  0  0  0
 98170  1  0  0  0  0
106171  1  0  0  0  0
107172  1  0  0  0  0
108173  1  0  0  0  0
109174  1  0  0  0  0
110175  1  0  0  0  0
111176  1  0  0  0  0
111177  1  0  0  0  0
112178  1  0  0  0  0
M  END
