176

C          5.24660        5.63120       -0.73880
C          6.20740        5.53740        0.24380
C          6.66780        4.30910        0.89350
O          6.25890        3.17160        0.72460
C          7.77080        4.70280        1.78870
C          8.50510        3.87120        2.62930
C          9.46960        4.52470        3.35840
C          9.68490        5.90470        3.25900
C          8.96250        6.73710        2.43640
C          7.97910        6.09190        1.68280
C          7.00510        6.63520        0.73450
C          6.87350        7.96540        0.41210
C          5.85230        8.52270       -0.38070
N          5.03800        9.07440       -0.97730
C          7.73730        8.98410        0.85970
N          8.40780        9.86660        1.16320
C         10.80740        5.88300        4.26630
C         12.25850        5.96470        3.73140
C         12.23270        5.39930        2.33330
C         12.02870        4.09230        2.42880
C         11.91240        3.75050        3.89360
C         12.88240        4.78260        4.49040
C         10.56660        4.34450        4.37810
C          4.37350        4.66750       -1.23840
C          3.41280        4.93860       -2.24730
N          3.35950        6.06850       -3.01400
C          4.50930        6.74410       -3.46130
C          4.48570        8.12870       -3.60990
C          5.60970        8.79350       -4.05680
C          6.78040        8.10680       -4.35670
C          8.00070        8.85190       -4.80230
C          6.78760        6.72340       -4.22130
C          5.66720        6.04280       -3.78860
C          2.09940        6.51110       -3.46910
C          1.91020        6.86770       -4.79900
C          0.66670        7.28900       -5.22890
C         -0.40880        7.36150       -4.35310
C         -1.76370        7.79700       -4.81660
C         -0.20510        7.01280       -3.02190
C          1.03230        6.59550       -2.57840
C          2.49500        3.87680       -2.36000
S          1.06720        3.60940       -3.30440
C          0.87880        2.02150       -2.59100
C          1.85050        1.73170       -1.64350
N          1.89370        0.61560       -0.83130
C          0.73290       -0.03400       -0.39570
C         -0.42000        0.68200       -0.07910
C         -1.57640        0.01930        0.28420
C         -1.61740       -1.36680        0.36210
C         -2.86800       -2.09360        0.74980
C         -0.45100       -2.07270        0.08930
C          0.70790       -1.42320       -0.28100
C          3.15450        0.15650       -0.41370
C          3.35950       -0.26450        0.89590
C          4.61810       -0.65880        1.30570
C          5.69760       -0.63970        0.43220
C          7.07550       -1.00160        0.89180
C          5.47780       -0.24530       -0.88210
C          4.22360        0.14260       -1.30760
C          2.77630        2.80040       -1.52930
S          4.19080        3.04410       -0.56930
C         -0.26440        1.19750       -2.89820
C         -1.55480        1.68940       -2.90650
F         -1.77900        3.01030       -2.79330
C         -2.66850        0.84490       -2.90550
F         -3.87380        1.43680       -2.82860
C         -2.56530       -0.53710       -2.90840
C         -1.24840       -1.06530       -3.07790
N         -1.05800       -2.38790       -3.19260
C          0.14510       -2.86430       -3.39730
C          0.22740       -4.35190       -3.56990
C         -0.11300       -4.72980       -5.01430
C          1.25750       -1.98910       -3.52600
N          1.10350       -0.70010       -3.34680
C         -0.11990       -0.20620       -3.09730
C          2.63610       -2.46120       -3.87930
C          3.40080       -2.98020       -2.65910
C         -3.69900       -1.39080       -2.65120
S         -5.09910       -0.75000       -1.80220
C         -5.80440       -2.33390       -1.69370
C         -6.97120       -2.66360       -1.04570
C         -7.35110       -4.00830       -1.02660
C         -8.46000       -4.58640       -0.37400
C         -8.53320       -5.94870       -0.51600
S         -7.22420       -6.56790       -1.52980
C         -6.55170       -4.97570       -1.69980
C         -5.38950       -4.64140       -2.35870
C         -4.99320       -3.30390       -2.34650
C         -3.81270       -2.73290       -2.87760
C         -9.44210       -6.91280       -0.01490
C        -10.36940       -6.82670        0.98050
C        -10.60010       -5.71840        1.94170
O        -10.22650       -4.56610        1.87770
C        -11.38750       -6.30390        3.04190
C        -11.75250       -5.67120        4.22850
C        -12.45730       -6.47120        5.09430
C        -12.77930       -7.80420        4.80220
C        -12.43940       -8.43540        3.62980
C        -11.72030       -7.63780        2.73440
C        -11.18940       -7.95130        1.41280
C        -11.48410       -9.07000        0.68120
C        -11.06850       -9.31110       -0.64680
N        -10.79780       -9.57330       -1.73150
C        -12.30260      -10.12520        1.13760
N        -12.95220      -11.01980        1.44690
C        -13.46690       -8.01160        6.12800
C        -12.69850       -8.79310        7.22290
C        -11.22950       -8.59720        6.94120
C        -10.92910       -7.33500        7.21660
C        -12.18990       -6.65460        7.68940
C        -12.87840       -7.82760        8.40530
C        -13.11220       -6.52600        6.45150
H          5.12350        6.60990       -1.18460
H          8.29850        2.81340        2.68040
H          9.13750        7.79830        2.37840
H         10.66010        6.48840        5.15850
H         12.72760        6.93820        3.84670
H         12.30340        5.99810        1.44420
H         11.89500        3.38060        1.63510
H         12.06710        2.70730        4.15740
H         12.80640        4.87380        5.57310
H         13.91830        4.59990        4.20830
H         10.26080        3.94610        5.34390
H          3.59160        8.67760       -3.36110
H          5.58280        9.86800       -4.15560
H          8.77840        8.16810       -5.13300
H          8.39320        9.44990       -3.97980
H          7.75850        9.53070       -5.61830
H          7.68110        6.16690       -4.46540
H          5.68670        4.96670       -3.69630
H          2.73730        6.80600       -5.49070
H          0.53000        7.55710       -6.26650
H         -2.11910        8.63610       -4.22050
H         -1.74320        8.09430       -5.86180
H         -2.47690        6.98190       -4.70030
H         -1.02830        7.07100       -2.32560
H          1.18420        6.33690       -1.54070
H         -0.40490        1.76130       -0.11700
H         -2.46250        0.59270        0.51610
H         -3.70660       -1.40800        0.83520
H         -3.11040       -2.85560        0.00990
H         -2.73240       -2.59390        1.70840
H         -0.45640       -3.15120        0.15640
H          1.60090       -1.98910       -0.49920
H          2.53280       -0.26410        1.59110
H          4.76570       -0.96850        2.33030
H          7.66990       -0.09420        0.99720
H          7.57210       -1.64410        0.16680
H          7.04800       -1.50810        1.85320
H          6.30200       -0.23850       -1.58030
H          4.05830        0.44160       -2.33230
H          1.21930       -4.72150       -3.31680
H         -0.50230       -4.81210       -2.90190
H         -1.11260       -4.38430       -5.26540
H         -0.07430       -5.80910       -5.13840
H          0.58950       -4.27560       -5.71000
H          3.17910       -1.61400       -4.29950
H          2.57310       -3.24680       -4.63400
H          4.37810       -3.34440       -2.96640
H          3.54740       -2.17980       -1.93850
H          2.86820       -3.79400       -2.17170
H         -7.57110       -1.91990       -0.54630
H         -9.17270       -4.01760        0.19320
H         -4.79050       -5.38760       -2.85580
H         -3.05450       -3.29670       -3.38590
H         -9.31870       -7.88800       -0.47330
H        -11.48150       -4.64370        4.41430
H        -12.69270       -9.46110        3.41980
H        -14.51820       -8.28800        6.08220
H        -13.02810       -9.81950        7.35930
H        -10.59200       -9.35760        6.52950
H         -9.99060       -6.83020        7.08030
H        -12.05670       -5.73370        8.25100
H        -13.92110       -7.63350        8.65230
H        -12.34260       -8.14930        9.29700
H        -13.93260       -5.83010        6.61540
