188

C         -6.51330        1.74040        3.79560
C         -7.11830        0.84200        4.64390
C         -6.50380       -0.34800        5.23580
O         -5.42350       -0.84580        4.96610
C         -7.45310       -0.83670        6.25410
C         -7.28430       -1.92430        7.10750
C         -8.33620       -2.12790        7.96870
C         -9.47080       -1.30720        7.98270
C         -9.65090       -0.23240        7.14410
C         -8.59400       -0.01010        6.25730
C         -8.42920        1.01150        5.22310
C         -9.37870        1.93830        4.86350
C         -9.28430        2.82200        3.77180
N         -9.31070        3.54860        2.88070
C        -10.61420        2.11230        5.51680
N        -11.62900        2.32810        6.01070
C        -10.12200       -2.08830        9.09700
C        -11.25340       -3.05600        8.69130
C        -11.35770       -4.00280        9.86500
C        -10.28420       -4.78250        9.85090
C         -9.43640       -4.37580        8.66720
C        -10.53830       -3.96390        7.68240
C         -8.85750       -3.00600        9.08000
C         -5.24440        1.73220        3.21900
C         -4.73880        2.80690        2.44410
N         -5.32350        4.03620        2.30320
C         -5.13210        4.74400        1.10030
C         -4.83860        6.10400        1.11800
C         -4.66930        6.78830       -0.06840
C         -4.78320        6.14160       -1.29410
C         -4.57390        6.88890       -2.57460
C         -5.07680        4.78360       -1.30040
C         -5.25430        4.08810       -0.12120
C         -6.03020        4.66550        3.34550
C         -5.61250        4.53600        4.66830
C         -6.33330        5.13490        5.68120
C         -7.46760        5.89160        5.40640
C         -8.27410        6.50400        6.50930
C         -7.85040        6.04900        4.08010
C         -7.14900        5.44240        3.05690
C         -3.52060        2.45370        1.83560
S         -2.38280        3.30960        0.84820
C         -1.32470        1.91450        0.84590
C         -1.80500        0.86350        1.61380
N         -1.13160       -0.30850        1.89410
C         -1.87900       -1.47430        2.12650
C         -3.01570       -1.74680        1.36930
C         -3.76950       -2.87360        1.63180
C         -3.40710       -3.75960        2.63830
C         -4.25420       -4.95530        2.94650
C         -2.25570       -3.49350        3.36970
C         -1.49820       -2.36620        3.12440
C          0.26800       -0.36100        1.92430
C          1.01420        0.68400        2.46460
C          2.39380        0.66540        2.39430
C          3.06960       -0.39310        1.80190
C          4.56190       -0.39710        1.67640
C          2.32130       -1.46320        1.32360
C          0.94360       -1.45530        1.38620
C         -3.07340        1.18060        2.16420
S         -4.13420        0.35920        3.25340
C         -0.05900        1.94630        0.15300
C          0.84630        2.98260        0.29830
F          0.51060        4.06430        1.02380
C          2.14910        2.92830       -0.20410
F          2.94330        3.98470        0.05450
C          2.63070        1.82570       -0.89540
C          1.68040        0.79190       -1.14370
N          2.07350       -0.26960       -1.85180
C          1.22640       -1.22160       -2.15500
C          1.77750       -2.34140       -2.98210
C          1.89720       -1.90070       -4.44370
C         -0.13530       -1.10060       -1.75890
N         -0.52880       -0.09640       -1.01310
C          0.35320        0.85280       -0.65970
C         -1.18800       -2.08530       -2.17200
C         -1.21260       -3.31600       -1.26180
C          3.97220        1.66890       -1.36680
S          4.37270        0.33120       -2.40530
C          6.00910        0.88950       -2.50810
C          7.03880        0.38180       -3.32210
C          8.21920        1.13300       -3.43160
O          8.43920        2.27820       -2.76680
C          7.63530        2.57610       -1.60250
C          8.32790        1.88760       -0.40240
C          7.71290        2.20740        0.95210
C          7.61630        4.10980       -1.50800
C          9.00420        4.72920       -1.39450
C          6.23810        2.02400       -1.73910
C          5.07650        2.46330       -1.10770
C          9.08970        0.59530       -4.36480
C          8.59850       -0.55760       -4.98650
S          7.01610       -0.98220       -4.37060
C          9.32190       -1.22690       -5.98160
C          8.97360       -2.30270       -6.76050
C          7.68510       -2.99970       -6.72860
O          6.76380       -2.82250       -5.94820
C          7.70850       -3.96600       -7.84030
C          6.68030       -4.81870       -8.23330
C          6.98350       -5.59290       -9.32760
C          8.22180       -5.52810       -9.97890
C          9.24760       -4.69620       -9.59600
C          8.95790       -3.89500       -8.48860
C          9.77820       -2.89000       -7.81160
C         11.08120       -2.59280       -8.12260
C         11.81560       -3.20360       -9.16000
N         12.47860       -3.65260       -9.98350
C         11.89490       -1.65350       -7.45590
N         12.63360       -0.92150       -6.96710
C          7.82770       -6.56260      -11.00320
C          7.44680       -6.06490      -12.41950
C          6.93980       -4.65350      -12.25660
C          5.76680       -4.71320      -11.64050
C          5.45920       -6.16640      -11.37600
C          6.11580       -6.81040      -12.60750
C          6.44690       -6.63400      -10.27810
H         -7.10240        2.61260        3.54410
H         -6.38960       -2.52590        7.06740
H        -10.52820        0.39190        7.17110
H        -10.34590       -1.52710       10.00230
H        -12.17140       -2.57280        8.36830
H        -12.14700       -3.97120       10.59310
H         -9.99760       -5.53220       10.56500
H         -8.69990       -5.09700        8.32240
H        -11.15540       -4.80780        7.37830
H        -10.17210       -3.44320        6.79960
H         -8.23980       -3.05730        9.97500
H         -4.74210        6.61640        2.06350
H         -4.43940        7.84340       -0.04290
H         -3.51290        6.90220       -2.82640
H         -4.90900        7.91930       -2.48160
H         -5.10900        6.41480       -3.39380
H         -5.17770        4.26390       -2.24210
H         -5.50010        3.03640       -0.13910
H         -4.73010        3.95640        4.89720
H         -6.00440        5.01790        6.70390
H         -7.69040        6.58440        7.42320
H         -9.14800        5.88490        6.71610
H         -8.62810        7.49280        6.22610
H         -8.72480        6.63610        3.84370
H         -7.47410        5.55310        2.03450
H         -3.29690       -1.07150        0.57480
H         -4.65390       -3.06920        1.04270
H         -4.73240       -5.33710        2.04700
H         -3.66190       -5.74820        3.39730
H         -5.03770       -4.67480        3.65100
H         -1.95500       -4.17180        4.15510
H         -0.61410       -2.16260        3.71050
H          0.50750        1.51440        2.93380
H          2.95360        1.49230        2.80760
H          4.85040       -0.41480        0.62550
H          4.99250        0.48560        2.14230
H          4.98400       -1.28210        2.15050
H          2.82790       -2.30750        0.87870
H          0.37840       -2.28860        0.99780
H          1.15180       -3.22910       -2.91070
H          2.77600       -2.57580       -2.61120
H          2.33010       -2.70040       -5.03820
H          2.54280       -1.02960       -4.51260
H          0.92180       -1.64700       -4.85420
H         -2.15490       -1.58490       -2.11230
H         -1.01510       -2.39390       -3.20420
H         -1.93770       -4.03530       -1.63460
H         -0.23830       -3.79820       -1.22110
H         -1.50380       -3.03190       -0.25390
H          9.38010        2.17490       -0.41490
H          8.27980        0.80850       -0.57630
H          8.20520        1.61960        1.72340
H          6.65350        1.96380        0.96060
H          7.83120        3.25850        1.19990
H          7.00720        4.40690       -0.65580
H          7.13200        4.48090       -2.41400
H          9.46250        4.49710       -0.43690
H          8.92980        5.81040       -1.48210
H          9.64530        4.35940       -2.18940
H          5.03100        3.33180       -0.47950
H         10.04470        1.02360       -4.60850
H         10.29160       -0.78200       -6.16910
H          5.74180       -4.83650       -7.70160
H         10.19310       -4.65910      -10.11020
H          8.43690       -7.46380      -11.03030
H          8.21590       -6.21460      -13.17240
H          7.49560       -3.78070      -12.54530
H          5.14700       -3.89990      -11.31110
H          4.41790       -6.40860      -11.17980
H          5.61400       -6.54830      -13.53780
H          6.21040       -7.89290      -12.53280
H          6.15350       -7.58300       -9.83310
