252

C         -8.03980        3.05420        2.58490
C         -8.60010        3.89000        1.64400
C         -7.97180        4.36150        0.40450
O         -6.78730        4.36070        0.11610
C         -9.06060        4.87510       -0.44570
C         -8.95660        5.34210       -1.75320
C        -10.15400        5.73460       -2.30170
C        -11.36550        5.66340       -1.60220
C        -11.47930        5.21190       -0.30820
C        -10.27130        4.81530        0.27020
C         -9.98240        4.31750        1.61520
C        -10.85720        4.36720        2.67060
C        -10.51390        4.14160        4.01690
N        -10.31630        4.05820        5.14520
C        -12.20310        4.77300        2.57360
N        -13.31130        5.07600        2.56900
C        -12.15880        6.21530       -2.76040
C        -12.60630        7.69590       -2.68740
C        -11.61010        8.40110       -1.80090
C        -10.46160        8.47310       -2.46020
C        -10.66060        7.81800       -3.80460
C        -12.13130        8.17980       -4.06680
C        -10.80770        6.29930       -3.53820
C         -6.77480        2.45480        2.59890
C         -6.42260        1.36830        3.43890
N         -7.21880        0.79570        4.40450
C         -7.83380        1.56430        5.40750
C         -7.22340        2.72400        5.87720
C         -7.80510        3.44420        6.90030
C         -8.99490        3.02880        7.48480
C         -9.64040        3.83690        8.56410
C         -9.59780        1.87170        7.00600
C         -9.03440        1.14780        5.97580
C         -7.24620       -0.60770        4.48360
C         -7.30180       -1.35870        3.31100
C         -7.40020       -2.73340        3.37120
C         -7.46090       -3.39390        4.59230
C         -7.67080       -4.87510        4.64750
C         -7.36820       -2.64100        5.75630
C         -7.25100       -1.26660        5.70930
C         -5.14240        0.87960        3.13220
S         -4.15170       -0.40540        3.76150
C         -2.83890        0.08300        2.70120
C         -3.20180        1.12450        1.85810
N         -2.40390        1.55530        0.79990
C         -2.07630        2.90900        0.67830
C         -1.89640        3.68400        1.81960
C         -1.53330        5.01220        1.70970
C         -1.34380        5.60370        0.46940
C         -0.91920        7.03350        0.33670
C         -1.55800        4.83050       -0.66700
C         -1.92150        3.50420       -0.57210
C         -2.03290        0.61170       -0.16350
C         -2.89210       -0.43180       -0.50590
C         -2.52920       -1.34000       -1.48030
C         -1.30710       -1.24430       -2.13770
C         -0.94950       -2.20930       -3.22700
C         -0.44450       -0.21880       -1.76980
C         -0.79590        0.69550       -0.79650
C         -4.49930        1.59710        2.13150
S         -5.46420        2.86500        1.48240
C         -1.49310       -0.39310        2.79250
C         -0.94640       -1.65630        2.90990
N         -1.61760       -2.88240        2.86080
C         -0.98610       -3.79350        1.98460
C         -0.56290       -5.06250        2.37740
C          0.25420       -5.80330        1.54900
C          0.67290       -5.29270        0.32220
S          1.83530       -6.24090       -0.60990
C          2.57100       -5.00490       -1.72290
C          0.18440       -4.06590       -0.10680
C         -0.64080       -3.32980        0.71660
C         -2.47810       -3.29680        3.86960
C         -3.28770       -4.41630        3.67800
C         -4.08370       -4.88990        4.69920
C         -4.10220       -4.24240        5.92670
S         -5.05200       -4.83560        7.29930
C         -4.95050       -6.64010        7.07380
C         -3.34940       -3.08890        6.10410
C         -2.53770       -2.62440        5.09150
C          0.47060       -1.60090        2.87610
S          1.70640       -2.81020        2.87690
C          2.92170       -1.58870        2.54850
C          2.40350       -0.29640        2.59770
N          3.14560        0.86920        2.50760
C          4.35730        0.99440        3.19280
C          5.37360        1.81660        2.70340
C          6.57260        1.91970        3.37050
C          6.79480        1.20250        4.54410
S          8.37980        1.39800        5.29700
C          8.30480        0.33260        6.76480
C          5.78290        0.39460        5.04460
C          4.57830        0.29580        4.37710
C          2.75870        1.83630        1.55720
C          2.70420        3.18840        1.89190
C          2.37770        4.12370        0.93610
C          2.11580        3.73270       -0.37680
S          1.77180        5.01110       -1.53750
C          1.23110        4.11420       -3.02080
C          2.16280        2.38670       -0.71040
C          2.46760        1.44570        0.25510
C          0.99990       -0.32750        2.75080
S         -0.24580        0.86150        2.70850
C          4.13180       -1.98190        1.91410
C          4.84100       -1.22040        1.02540
C          5.68870       -1.97460        0.19020
C          6.32480       -1.49870       -0.96650
C          6.19430       -0.06800       -1.29730
C          5.40680        0.33330       -2.36990
C          5.17420        1.68050       -2.57070
F          4.35930        2.04310       -3.58410
C          5.70610        2.67720       -1.76130
C          5.45810        4.13720       -1.99860
C          6.62070        4.76470       -2.77030
C          6.51890        2.23130       -0.72430
F          7.07770        3.14870        0.09080
C          6.75620        0.89590       -0.46740
C          6.90860       -2.44690       -1.77910
C          6.97190       -3.82370       -1.43550
C          6.37210       -4.29250       -0.24880
C          6.46580       -5.70750        0.13380
C          5.34820       -6.43500        0.52950
C          5.49340       -7.75910        0.89400
C          6.71440       -8.42520        0.88800
C          6.85150       -9.85440        1.32090
C          7.12550       -9.93520        2.82460
C          7.80760       -7.66050        0.49690
C          7.70920       -6.33610        0.12240
F          9.02690       -8.23870        0.47590
F          4.39580       -8.44110        1.27060
C          5.68330       -3.35650        0.50610
S          4.62850       -3.66480        1.86700
C          7.55030       -4.59000       -2.47490
C          7.86060       -3.86390       -3.59050
S          7.58020       -2.14350       -3.35490
C          8.33770       -4.37020       -4.83420
C          8.07530       -3.88060       -6.06980
C          8.92440       -4.26150       -7.23480
O          9.71860       -5.17200       -7.28090
C          8.62040       -3.26320       -8.27680
C          9.24540       -3.11980       -9.51380
C          8.75470       -2.08540      -10.27370
C          7.71930       -1.24610       -9.83780
C          7.08800       -1.37870       -8.62430
C          7.56870       -2.42920       -7.83830
C          7.11300       -2.90020       -6.53500
C          5.87960       -2.65790       -5.99080
C          4.94040       -1.74760       -6.51810
N          4.13140       -1.01610       -6.87630
C          5.34020       -3.35470       -4.88900
N          4.80480       -3.91870       -4.04300
C          7.74730       -0.42320      -11.10080
C          8.43330        0.96430      -11.04590
C          9.46320        0.89080       -9.94600
C         10.44110        0.09580      -10.35940
C         10.09010       -0.38290      -11.74650
C          9.34460        0.85160      -12.27850
C          8.89820       -1.35910      -11.58760
H         -8.69170        2.73330        3.39170
H         -8.00260        5.37460       -2.25590
H        -12.41980        5.16000        0.21430
H        -12.93610        5.56600       -3.15870
H        -13.65470        7.83890       -2.43960
H        -11.82000        8.71200       -0.79420
H         -9.51940        8.85630       -2.11430
H         -9.93730        8.07330       -4.57490
H        -12.28280        9.24820       -4.21400
H        -12.57260        7.62800       -4.89580
H        -10.70470        5.70770       -4.44620
H         -6.29020        3.04950        5.44030
H         -7.32290        4.34390        7.25370
H         -8.89780        4.37170        9.15180
H        -10.23360        3.20780        9.22350
H        -10.30480        4.57000        8.10650
H        -10.53200        1.54120        7.43520
H         -9.51960        0.25710        5.60400
H         -7.28900       -0.85560        2.35450
H         -7.45440       -3.30160        2.45360
H         -7.36060       -5.26880        5.61120
H         -8.72940       -5.10300        4.51540
H         -7.12130       -5.37530        3.85290
H         -7.38310       -3.13630        6.71530
H         -7.17400       -0.69660        6.62280
H         -2.03020        3.23620        2.79380
H         -1.38740        5.59460        2.60810
H         -1.66590        7.60210       -0.21610
H         -0.78580        7.49300        1.31270
H          0.02040        7.09510       -0.21180
H         -1.44360        5.28370       -1.64120
H         -2.09850        2.92160       -1.46470
H         -3.85060       -0.51940       -0.01590
H         -3.21120       -2.13640       -1.74180
H         -1.44270       -1.92050       -4.15600
H          0.12340       -2.21680       -3.40760
H         -1.27910       -3.21610       -2.97670
H          0.51950       -0.13650       -2.25260
H         -0.11810        1.48480       -0.51090
H         -0.82950       -5.44250        3.35200
H          0.61690       -6.76890        1.86570
H          1.88080       -4.75270       -2.52220
H          3.45870       -5.46290       -2.14730
H          2.84910       -4.12260       -1.15380
H          0.45390       -3.66310       -1.06880
H         -0.99180       -2.36180        0.39240
H         -3.27930       -4.92160        2.72390
H         -4.68410       -5.77000        4.53290
H         -5.63360       -6.97180        6.29710
H         -3.92790       -6.91110        6.83140
H         -5.23840       -7.07800        8.02430
H         -3.38380       -2.57530        7.05230
H         -1.91990       -1.75430        5.25570
H          5.22010        2.37590        1.79390
H          7.35410        2.55330        2.98050
H          8.13690       -0.69870        6.46830
H          7.52900        0.68230        7.43970
H          9.27590        0.42520        7.24130
H          5.91380       -0.16260        5.95810
H          3.79930       -0.33060        4.78480
H          2.92260        3.49370        2.90370
H          2.32550        5.17060        1.19130
H          2.05410        3.54630       -3.44540
H          0.39220        3.47200       -2.76950
H          0.91560        4.87830       -3.72460
H          1.98100        2.05670       -1.72010
H          2.49290        0.39760       -0.00860
H          4.68800       -0.16970        0.87920
H          4.94980       -0.39170       -3.02550
H          4.53600        4.26550       -2.56530
H          5.34570        4.64370       -1.03800
H          6.42400        5.81940       -2.94220
H          7.54600        4.67150       -2.20660
H          6.74780        4.27250       -3.73220
H          7.36690        0.61460        0.37610
H          4.36230       -6.00080        0.53770
H          5.92970      -10.39100        1.09100
H          7.67530      -10.31990        0.77740
H          6.30780       -9.48540        3.38320
H          8.04620       -9.41090        3.07120
H          7.22540      -10.97350        3.12950
H          8.60240       -5.79640       -0.15060
H          7.64310       -5.66070       -2.44310
H          9.01620       -5.21610       -4.78780
H         10.03830       -3.78640       -9.81480
H          6.29630       -0.72600       -8.29420
H          6.82440       -0.40690      -11.67710
H          7.74660        1.80560      -11.00560
H          9.35120        1.36400       -8.98810
H         11.30940       -0.22760       -9.81580
H         10.91220       -0.76750      -12.34420
H          9.99550        1.71590      -12.40130
H          8.80180        0.66530      -13.20410
H          8.72680       -1.95420      -12.48240
