257

C          3.63660       -0.40480        7.68570
C          4.14280       -1.64820        8.00680
C          3.59270       -2.91300        7.49850
O          2.67190       -3.06290        6.71460
C          4.30110       -3.98270        8.23230
C          4.11250       -5.35490        8.10170
C          4.92530       -6.11100        8.91310
C          5.84910       -5.54370        9.79810
C          6.04220       -4.18880        9.93850
C          5.23160       -3.40410        9.11580
C          5.16370       -1.95060        8.96760
C          6.03350       -1.04300        9.52440
C          7.10340       -1.38260       10.37080
N          8.00510       -1.59600       11.05130
C          6.01280        0.33860        9.25240
N          6.07590        1.46970        9.05930
C          6.30760       -6.88820       10.30870
C          5.76720       -7.32580       11.68630
C          5.97850       -8.82260       11.69950
C          5.10550       -9.36080       10.85750
C          4.28970       -8.23660       10.26120
C          4.25120       -7.27540       11.45620
C          5.27920       -7.52140        9.31740
C          2.92550       -0.09750        6.52620
C          2.90390       -0.72210        5.26000
N          3.79420       -1.63670        4.78700
C          3.47460       -2.39640        3.63940
C          4.35930       -2.41910        2.56550
C          4.04200       -3.13520        1.42920
C          2.85040       -3.84870        1.33950
C          2.53000       -4.62100        0.09770
C          1.99110       -3.84170        2.43050
C          2.29290       -3.12520        3.57410
C          5.07330       -1.81640        5.33760
C          5.57780       -3.10530        5.48860
C          6.81480       -3.30340        6.07360
C          7.58130       -2.23110        6.50910
C          8.89550       -2.44110        7.19260
C          7.09150       -0.94290        6.30310
C          5.85720       -0.73140        5.72640
C          1.90480       -0.13930        4.44820
S          1.29990       -0.47920        2.87050
C          0.25730        0.94530        2.91880
C          0.33370        1.59610        4.14180
N         -0.33910        2.75900        4.50620
C         -1.73710        2.79720        4.50640
C         -2.40900        4.01180        4.38620
C         -3.78720        4.05140        4.41910
C         -4.53660        2.88800        4.54440
C         -6.03350        2.93100        4.55590
C         -3.86230        1.67880        4.64990
C         -2.48240        1.62700        4.64070
C          0.41740        3.72140        5.19630
C          1.72600        3.97660        4.78650
C          2.51160        4.87270        5.48090
C          2.01700        5.55760        6.58490
C          2.89230        6.50770        7.34220
C          0.70740        5.31110        6.97570
C         -0.08380        4.40020        6.30290
C          1.27540        0.96790        4.99490
S          1.85610        1.31570        6.58080
C         -0.49240        1.17920        1.72930
C         -0.05160        0.79150        0.46660
N          1.26460        0.48810        0.14710
C          1.51230       -0.36350       -0.93370
C          2.46050       -0.03580       -1.89860
C          2.64560       -0.83800       -3.00680
C          1.88360       -1.98730       -3.16810
S          2.01130       -3.07030       -4.55490
C          3.30960       -2.32050       -5.57620
C          0.95560       -2.33590       -2.18850
C          0.77260       -1.53730       -1.08160
C          2.29550        1.27990        0.67570
C          2.10370        2.63430        0.92840
C          3.10410        3.39360        1.50380
C          4.31510        2.80500        1.84370
S          5.63610        3.66420        2.64110
C          5.20580        5.41470        2.41370
C          4.51730        1.45200        1.57450
C          3.52420        0.69800        0.99120
C         -1.07890        0.89620       -0.49020
S         -1.20510        0.45170       -2.14310
C         -2.80870        1.18670       -2.24270
C         -3.23900        1.66260       -1.01290
N         -4.42740        2.33630       -0.77000
C         -4.41220        3.47940        0.03610
C         -5.51680        3.81960        0.81930
C         -5.50340        4.96380        1.58270
C         -4.38280        5.79070        1.60390
S         -4.48870        7.23700        2.61440
C         -2.80520        7.91350        2.58380
C         -3.27470        5.44880        0.84450
C         -3.29340        4.30770        0.06710
C         -5.65160        1.81730       -1.21310
C         -6.61880        2.66980       -1.74700
C         -7.85340        2.17880       -2.10340
C         -8.14810        0.82830       -1.93250
S         -9.78600        0.30380       -2.33450
C        -10.03190       -1.09060       -1.19290
C         -7.17280       -0.03360       -1.45280
C         -5.93320        0.45900       -1.09170
C         -2.24480        1.47180       -0.01690
S         -2.12790        1.83580        1.67490
C         -3.36170        1.18820       -3.56150
C         -2.59610        1.42210       -4.70080
N         -1.27870        1.86010       -4.71400
C         -0.40630        1.25220       -5.63260
C          0.51510        2.01170       -6.34770
C          1.32060        1.40930       -7.29170
C          1.22710        0.04630       -7.55400
C          2.06510       -0.57670       -8.62960
C          0.32390       -0.70800       -6.81670
C         -0.47980       -0.11840       -5.86100
C         -0.82670        2.85710       -3.84770
C         -1.66460        3.89870       -3.45810
C         -1.21530        4.85700       -2.57070
C          0.06380        4.79470       -2.02930
C          0.51640        5.80370       -1.01680
C          0.89800        3.75800       -2.43100
C          0.46890        2.80600       -3.33240
C         -3.31280        1.13320       -5.88040
S         -2.92940        1.25800       -7.55720
C         -4.51550        0.59750       -7.97260
C         -5.31950        0.37850       -6.81830
N         -6.59770       -0.11800       -6.81870
C         -7.53750        0.26640       -7.79270
C         -7.55570        1.57710       -8.26390
C         -8.46310        1.95130       -9.23490
C         -9.38110        1.04250       -9.74770
C        -10.36270        1.43770      -10.80710
C         -9.37210       -0.25610       -9.25100
C         -8.46350       -0.64890       -8.28940
C         -6.96510       -1.05130       -5.83250
C         -8.25710       -1.07630       -5.31890
C         -8.62570       -2.05760       -4.41920
C         -7.71500       -3.00790       -3.97750
C         -8.10660       -4.07950       -3.00480
C         -6.41520       -2.95360       -4.46950
C         -6.04420       -2.00220       -5.39550
C         -4.60590        0.68020       -5.64960
S         -4.99320        0.66350       -3.95570
C         -4.88770        0.19430       -9.24900
C         -4.23610        0.33510      -10.45950
C         -3.02930        1.12170      -10.70710
O         -2.31110        1.68080       -9.89570
C         -2.84860        1.13690      -12.17410
C         -1.87350        1.76530      -12.92250
C         -1.91800        1.64330      -14.30330
C         -2.93140        0.89980      -14.89040
Br        -2.97540        0.75160      -16.78560
C         -3.91850        0.25780      -14.15110
C         -3.87110        0.38220      -12.77360
C         -4.72560       -0.16730      -11.71750
C         -5.76260       -1.04680      -11.92060
C         -6.22230       -1.44790      -13.19020
N         -6.65650       -1.79960      -14.19380
C         -6.47910       -1.70710      -10.90520
N         -7.08460       -2.31950      -10.14310
H          3.74620        0.40170        8.40060
H          3.38790       -5.75270        7.40810
H          6.75290       -3.76460       10.62830
H          7.36460       -7.11230       10.17620
H          6.16510       -6.76790       12.52960
H          6.75270       -9.31450       12.25870
H          5.00500      -10.39190       10.57280
H          3.34090       -8.50840        9.80620
H          3.69330       -7.68520       12.29670
H          3.87200       -6.28410       11.21540
H          5.65180       -8.16640        8.52330
H          5.28520       -1.86560        2.62790
H          4.72580       -3.13930        0.59220
H          3.21740       -5.45950       -0.01220
H          1.51590       -5.00970        0.13110
H          2.63210       -3.98790       -0.78220
H          1.07210       -4.40780        2.38860
H          1.63920       -3.13890        4.43230
H          4.98750       -3.94730        5.15930
H          7.18050       -4.31140        6.20640
H          8.80160       -2.23470        8.25940
H          9.64950       -1.76590        6.79270
H          9.23760       -3.46590        7.07380
H          7.68460       -0.09310        6.60770
H          5.49640        0.27540        5.57840
H         -1.83890        4.92300        4.27940
H         -4.29230        5.00270        4.34950
H         -6.43440        2.24230        5.29710
H         -6.39010        3.93380        4.77630
H         -6.42060        2.63750        3.57990
H         -4.42470        0.76220        4.75550
H         -1.97420        0.68000        4.75050
H          2.12490        3.45110        3.93000
H          3.53400        5.03680        5.17200
H          3.43300        7.16340        6.66150
H          3.62850        5.95100        7.92210
H          2.30710        7.11650        8.02660
H          0.30260        5.82370        7.83630
H         -1.08760        4.19890        6.64580
H          3.04380        0.86640       -1.78790
H          3.37410       -0.54360       -3.74480
H          4.24500       -2.29030       -5.02500
H          3.41440       -2.97060       -6.43920
H          2.99860       -1.32990       -5.89500
H          0.37810       -3.23910       -2.31250
H          0.05810       -1.81240       -0.32080
H          1.16270        3.09800        0.67250
H          2.92440        4.44190        1.68290
H          5.04610        5.61680        1.35880
H          6.06420        5.97440        2.77200
H          4.32850        5.67200        3.00060
H          5.46170        1.00140        1.83870
H          3.67760       -0.35170        0.79200
H         -6.38770        3.18210        0.82430
H         -6.36300        5.22900        2.17860
H         -2.80970        8.74330        3.28370
H         -2.09910        7.15650        2.91200
H         -2.56400        8.27460        1.58810
H         -2.39230        6.06800        0.83370
H         -2.43280        4.06520       -0.53760
H         -6.39490        3.71970       -1.86180
H         -8.60920        2.83540       -2.50580
H         -9.72100       -0.79370       -0.19610
H         -9.47910       -1.96110       -1.53060
H        -11.09670       -1.30110       -1.20370
H         -7.37140       -1.08810       -1.35010
H         -5.17940       -0.20780       -0.69960
H          0.58100        3.07490       -6.17000
H          2.02180        2.01040       -7.85260
H          3.10320       -0.25610       -8.55320
H          1.69450       -0.26870       -9.60730
H          2.02470       -1.66190       -8.57760
H          0.24710       -1.77200       -6.98790
H         -1.17090       -0.71800       -5.28650
H         -2.66660        3.95670       -3.85760
H         -1.87150        5.67130       -2.29700
H          0.11160        6.78810       -1.24330
H          1.60180        5.86610       -0.99000
H          0.16930        5.51870       -0.02160
H          1.89720        3.68910       -2.02400
H          1.12270        1.99780       -3.62520
H         -6.85140        2.29570       -7.87050
H         -8.46100        2.97020       -9.59440
H        -10.22110        2.47330      -11.10560
H        -10.24780        0.80220      -11.68430
H        -11.38230        1.31680      -10.44290
H        -10.07550       -0.97830       -9.63700
H         -8.45560       -1.66700       -7.93490
H         -8.97600       -0.33460       -5.63150
H         -9.64440       -2.07930       -4.06220
H         -9.18040       -4.07960       -2.83160
H         -7.81890       -5.05860       -3.38450
H         -7.59680       -3.93680       -2.05110
H         -5.69110       -3.68540       -4.14180
H         -5.04350       -2.00560       -5.80190
H         -5.84530       -0.30880       -9.29250
H         -1.09840        2.33650      -12.43580
H         -1.17460        2.12060      -14.92280
H         -4.68620       -0.30880      -14.65240
