202

C          0.69660       -4.58770       -5.47680
C          1.92040       -4.52050       -6.10240
C          2.98900       -3.54020       -5.86230
O          2.89500       -2.42610       -5.37890
C          4.23230       -4.15900       -6.35660
C          5.52390       -3.65230       -6.24230
C          6.49010       -4.46200       -6.78980
C          6.19290       -5.68460       -7.40620
C          4.92050       -6.19110       -7.53330
C          3.92370       -5.38130       -6.98430
C          2.47250       -5.55520       -6.95040
C          1.76630       -6.46580       -7.69480
C          0.37370       -6.41760       -7.89290
N         -0.73650       -6.39300       -8.18720
C          2.35130       -7.48580       -8.47030
N          2.76320       -8.35150       -9.10310
C          7.63870       -5.96150       -7.73450
C          8.10160       -5.73400       -9.19470
C          7.18100       -4.69120       -9.77860
C          7.46170       -3.53240       -9.19750
C          8.57720       -3.77090       -8.21000
C          9.35310       -4.87860       -8.94040
C          7.96960       -4.59780       -7.04990
C          0.15720       -3.73980       -4.50040
C         -0.89870       -4.08970       -3.62160
N         -1.58260       -5.28560       -3.63180
C         -1.82450       -5.94520       -2.41740
C         -0.89510       -5.87200       -1.38260
C         -1.11650       -6.54340       -0.19610
C         -2.24340       -7.33320       -0.01820
C         -2.47570       -8.09540        1.24870
C         -3.15920       -7.41420       -1.06190
C         -2.97190       -6.71500       -2.23530
C         -2.12470       -5.79600       -4.82580
C         -2.11690       -7.16480       -5.08110
C         -2.70730       -7.65600       -6.22760
C         -3.30630       -6.80430       -7.14840
C         -3.90470       -7.33700       -8.40980
C         -3.29510       -5.43810       -6.89080
C         -2.71390       -4.93340       -5.74630
C         -1.09270       -3.09870       -2.64350
S         -2.15750       -2.91370       -1.27800
C         -1.38840       -1.38410       -0.86620
C         -0.42860       -1.01090       -1.80330
N          0.29550        0.17400       -1.79330
C          1.67510        0.09640       -2.03840
C          2.33430        1.08520       -2.76070
C          3.68620        0.97050       -3.01590
C          4.40980       -0.13290       -2.58340
C          5.87720       -0.25460       -2.85310
C          3.74260       -1.11690       -1.86550
C          2.39840       -1.00210       -1.58010
C         -0.33860        1.39520       -1.54560
C          0.31540        2.40520       -0.84070
C         -0.34640        3.57480       -0.52540
C         -1.66320        3.78480       -0.91500
C         -2.39960        5.03270       -0.53420
C         -2.29380        2.79160       -1.65770
C         -1.65120        1.60770       -1.96110
C         -0.26200       -1.99760       -2.79770
S          0.82890       -2.15330       -4.11580
C         -1.60290       -0.66200        0.34640
C         -2.73900       -0.33280        1.07040
N         -4.03970       -0.72030        0.78050
C         -5.04000        0.25740        0.91030
C         -4.79790        1.54870        0.43990
C         -5.75000        2.53160        0.58250
C         -6.96980        2.25180        1.19560
S         -8.10890        3.59350        1.32200
C         -9.47430        2.92010        2.30880
C         -7.21740        0.96660        1.65910
C         -6.25890       -0.01870        1.52210
C         -4.38720       -2.06920        0.66730
C         -5.46530       -2.43970       -0.13400
C         -5.88470       -3.75200       -0.18640
C         -5.22250       -4.72320        0.55330
S         -5.76700       -6.39930        0.64810
C         -6.79600       -6.59410       -0.83600
C         -4.11380       -4.36870        1.31500
C         -3.69960       -3.05560        1.37510
C         -2.42550        0.56680        2.12220
S         -3.37340        1.43840        3.27410
C         -1.93420        2.25000        3.87940
C         -0.78970        1.91580        3.15440
N          0.40540        2.59810        3.17320
C          0.45230        3.94730        3.56200
C          1.48790        4.40170        4.37310
C          1.44820        5.67100        4.91630
C          0.37450        6.51020        4.64650
S          0.15200        8.08170        5.41470
C          1.14820        7.93420        6.92550
C         -0.59190        6.10540        3.72660
C         -0.55150        4.84040        3.18510
C          1.57610        1.97910        2.71630
C          1.87160        0.66430        3.06450
C          2.99940        0.04100        2.56440
C          3.85140        0.72560        1.70850
S          5.30560        0.03470        0.99490
C          5.20210       -1.72550        1.42440
C          3.58010        2.05640        1.39210
C          2.45990        2.67870        1.89260
C         -1.08570        0.90570        2.20850
S         -0.14690        0.03520        1.05980
C         -2.06080        3.19580        4.94280
C         -3.15660        4.04040        5.05950
C         -3.17330        5.07610        5.98130
F         -4.24060        5.89020        5.96300
C         -2.16390        5.34080        6.90990
C         -1.08350        4.41990        6.88140
C         -1.04290        3.34950        5.92240
N          0.01970        2.56880        6.08800
S          0.90720        3.13780        7.29830
N         -0.01090        4.41290        7.67110
C         -2.22210        6.50060        7.73830
C         -1.59570        6.75640        8.91750
C         -1.43200        8.17220        9.35840
O         -1.99210        9.14090        8.90900
C         -0.39740        8.11730       10.41880
C          0.25470        9.13070       11.09770
F         -0.02120       10.41520       10.84970
C          1.22040        8.82290       12.04830
C          1.52920        7.49850       12.30680
C          0.88650        6.46170       11.64180
C         -0.07990        6.77450       10.70090
C         -0.92050        5.91180        9.87150
C         -1.17610        4.58670       10.10840
C         -0.51630        3.81310       11.08300
N          0.00790        3.12750       11.84060
C         -2.17370        3.85280        9.43560
N         -2.98810        3.21830        8.93350
H          0.10180       -5.47190       -5.68410
H          5.70570       -2.70390       -5.76090
H          4.70690       -7.13410       -8.00850
H          8.06240       -6.86550       -7.30120
H          8.22560       -6.64390       -9.77570
H          6.40500       -4.90840      -10.48890
H          6.96670       -2.58760       -9.32530
H          9.13540       -2.89310       -7.89470
H         10.09650       -5.37210       -8.31550
H          9.81920       -4.52990       -9.86070
H          8.61080       -4.61160       -6.17030
H          0.00980       -5.29670       -1.51550
H         -0.38580       -6.46630        0.59640
H         -2.37610       -9.16560        1.06790
H         -3.48430       -7.91490        1.61730
H         -1.75980       -7.80850        2.01490
H         -4.03550       -8.03330       -0.94550
H         -3.70660       -6.77160       -3.02480
H         -1.64620       -7.83530       -4.37640
H         -2.69020       -8.71920       -6.41750
H         -4.74830       -6.72990       -8.73010
H         -3.14930       -7.30970       -9.19480
H         -4.23050       -8.36710       -8.28610
H         -3.74860       -4.76020       -7.59840
H         -2.71680       -3.87060       -5.55050
H          1.77960        1.93480       -3.13060
H          4.18390        1.74590       -3.58020
H          6.14260       -1.28580       -3.07710
H          6.44050        0.05420       -1.97120
H          6.17350        0.37680       -3.68680
H          4.28720       -1.98690       -1.52750
H          1.89490       -1.76590       -1.00350
H          1.33460        2.25200       -0.51920
H          0.16870        4.33720        0.04200
H         -1.71460        5.79390       -0.16860
H         -3.12350        4.81620        0.25300
H         -2.94750        5.43230       -1.38560
H         -3.30330        2.95230       -2.00950
H         -2.16320        0.84160       -2.52530
H         -3.85310        1.77190       -0.03230
H         -5.56420        3.53040        0.21790
H        -10.16140        3.74730        2.45780
H         -9.10020        2.57380        3.26780
H         -9.97220        2.12240        1.76510
H         -8.14890        0.71830        2.14110
H         -6.45540       -1.00930        1.90390
H         -5.98680       -1.68500       -0.70350
H         -6.73630       -4.00350       -0.79800
H         -6.98100       -7.65950       -0.93220
H         -7.74060       -6.07170       -0.71430
H         -6.25010       -6.22970       -1.70090
H         -3.59330       -5.12910        1.87520
H         -2.85340       -2.78310        1.98790
H          2.30520        3.73690        4.61190
H          2.24650        5.98750        5.56830
H          2.20500        8.04280        6.69770
H          0.82740        8.75070        7.56530
H          0.94180        6.97930        7.40180
H         -1.38460        6.78840        3.46380
H         -1.31420        4.52400        2.48990
H          1.21830        0.13560        3.74200
H          3.20170       -0.97660        2.85600
H          4.25030       -2.12490        1.08820
H          5.33410       -1.86010        2.49420
H          6.01720       -2.20630        0.89240
H          4.25400        2.58680        0.73680
H          2.25030        3.70670        1.63790
H         -3.98920        3.94240        4.37940
H         -2.79040        7.33250        7.33150
H          1.71730        9.62510       12.57070
H          2.28530        7.26690       13.04110
H          1.14900        5.43860       11.85470
