
  xtb     02112219593D
 energy: -440.808225953774 gnorm: 0.000908866077 xtb: 6.4.1 (unknown)
274301  0     0  0            999 V2000
    7.6862    4.9439    1.3131 C   0  0  0  0  0  0  0  0  0  0  0  0
    6.7007    5.7695    1.7511 C   0  0  0  0  0  0  0  0  0  0  0  0
    5.2702    5.3609    1.8069 C   0  0  0  0  0  0  0  0  0  0  0  0
    4.8066    4.2458    1.7013 O   0  0  0  0  0  0  0  0  0  0  0  0
    4.5028    6.6135    1.8599 C   0  0  0  0  0  0  0  0  0  0  0  0
    3.1154    6.7291    1.8239 C   0  0  0  0  0  0  0  0  0  0  0  0
    2.6664    8.0260    1.8220 C   0  0  0  0  0  0  0  0  0  0  0  0
    3.5301    9.1291    1.8662 C   0  0  0  0  0  0  0  0  0  0  0  0
    4.9012    9.0280    1.8889 C   0  0  0  0  0  0  0  0  0  0  0  0
    5.3837    7.7142    1.8754 C   0  0  0  0  0  0  0  0  0  0  0  0
    6.7541    7.2177    1.8345 C   0  0  0  0  0  0  0  0  0  0  0  0
    7.8921    7.9790    1.8295 C   0  0  0  0  0  0  0  0  0  0  0  0
    9.2038    7.4602    1.8234 C   0  0  0  0  0  0  0  0  0  0  0  0
   10.3011    7.1215    1.8366 N   0  0  0  0  0  0  0  0  0  0  0  0
    7.9100    9.3878    1.8147 C   0  0  0  0  0  0  0  0  0  0  0  0
    7.9978   10.5327    1.7762 N   0  0  0  0  0  0  0  0  0  0  0  0
    2.3901   10.1191    1.8569 C   0  0  0  0  0  0  0  0  0  0  0  0
    2.0202   10.7574    3.2134 C   0  0  0  0  0  0  0  0  0  0  0  0
    0.6198   11.2836    2.9948 C   0  0  0  0  0  0  0  0  0  0  0  0
   -0.1977   10.2402    2.9301 C   0  0  0  0  0  0  0  0  0  0  0  0
    0.6358    8.9924    3.1049 C   0  0  0  0  0  0  0  0  0  0  0  0
    1.7061    9.5222    4.0679 C   0  0  0  0  0  0  0  0  0  0  0  0
    1.4314    8.8870    1.7885 C   0  0  0  0  0  0  0  0  0  0  0  0
    7.4808    3.5370    1.1254 C   0  0  0  0  0  0  0  0  0  0  0  0
    7.5046    2.9054   -0.1117 C   0  0  0  0  0  0  0  0  0  0  0  0
    7.8457    3.5533   -1.2875 N   0  0  0  0  0  0  0  0  0  0  0  0
    8.4571    2.8579   -2.3287 C   0  0  0  0  0  0  0  0  0  0  0  0
    8.2874    3.2616   -3.6519 C   0  0  0  0  0  0  0  0  0  0  0  0
    8.9069    2.5711   -4.6737 C   0  0  0  0  0  0  0  0  0  0  0  0
    9.7001    1.4595   -4.4167 C   0  0  0  0  0  0  0  0  0  0  0  0
   10.3831    0.7257   -5.5302 C   0  0  0  0  0  0  0  0  0  0  0  0
    9.8650    1.0633   -3.0952 C   0  0  0  0  0  0  0  0  0  0  0  0
    9.2623    1.7510   -2.0618 C   0  0  0  0  0  0  0  0  0  0  0  0
    7.3808    4.8780   -1.4609 C   0  0  0  0  0  0  0  0  0  0  0  0
    6.0371    5.1678   -1.2463 C   0  0  0  0  0  0  0  0  0  0  0  0
    5.5908    6.4739   -1.3093 C   0  0  0  0  0  0  0  0  0  0  0  0
    6.4655    7.5129   -1.5986 C   0  0  0  0  0  0  0  0  0  0  0  0
    5.9915    8.9339   -1.6284 C   0  0  0  0  0  0  0  0  0  0  0  0
    7.7966    7.2058   -1.8653 C   0  0  0  0  0  0  0  0  0  0  0  0
    8.2550    5.9046   -1.8040 C   0  0  0  0  0  0  0  0  0  0  0  0
    6.9300    1.6198   -0.0244 C   0  0  0  0  0  0  0  0  0  0  0  0
    6.3079    0.5153   -1.2039 S   0  0  0  0  0  0  0  0  0  0  0  0
    5.3723   -0.3116    0.0369 C   0  0  0  0  0  0  0  0  0  0  0  0
    5.6595    0.1516    1.3053 C   0  0  0  0  0  0  0  0  0  0  0  0
    5.0081   -0.2786    2.4751 N   0  0  0  0  0  0  0  0  0  0  0  0
    4.2476    0.7347    3.1043 C   0  0  0  0  0  0  0  0  0  0  0  0
    3.3235    1.4494    2.3497 C   0  0  0  0  0  0  0  0  0  0  0  0
    2.6179    2.4937    2.9143 C   0  0  0  0  0  0  0  0  0  0  0  0
    2.8185    2.8574    4.2382 C   0  0  0  0  0  0  0  0  0  0  0  0
    2.0902    4.0160    4.8497 C   0  0  0  0  0  0  0  0  0  0  0  0
    3.7289    2.1254    4.9917 C   0  0  0  0  0  0  0  0  0  0  0  0
    4.4385    1.0791    4.4395 C   0  0  0  0  0  0  0  0  0  0  0  0
    5.6166   -1.2708    3.2494 C   0  0  0  0  0  0  0  0  0  0  0  0
    4.8636   -1.9430    4.2121 C   0  0  0  0  0  0  0  0  0  0  0  0
    5.4527   -2.8926    5.0186 C   0  0  0  0  0  0  0  0  0  0  0  0
    6.8019   -3.2076    4.8917 C   0  0  0  0  0  0  0  0  0  0  0  0
    7.4286   -4.2278    5.7952 C   0  0  0  0  0  0  0  0  0  0  0  0
    7.5362   -2.5605    3.9087 C   0  0  0  0  0  0  0  0  0  0  0  0
    6.9575   -1.6076    3.0927 C   0  0  0  0  0  0  0  0  0  0  0  0
    6.5232    1.2714    1.2552 C   0  0  0  0  0  0  0  0  0  0  0  0
    6.8682    2.5098    2.4041 S   0  0  0  0  0  0  0  0  0  0  0  0
    4.1453   -0.9437   -0.3561 C   0  0  0  0  0  0  0  0  0  0  0  0
    3.3725   -1.9364    0.2323 C   0  0  0  0  0  0  0  0  0  0  0  0
    3.8152   -3.0278    0.9428 N   0  0  0  0  0  0  0  0  0  0  0  0
    2.8849   -4.1076    1.0790 C   0  0  0  0  0  0  0  0  0  0  0  0
    2.0935   -4.2719    2.2084 C   0  0  0  0  0  0  0  0  0  0  0  0
    1.2656   -5.3725    2.3084 C   0  0  0  0  0  0  0  0  0  0  0  0
    1.2192   -6.3187    1.2860 C   0  0  0  0  0  0  0  0  0  0  0  0
    0.1730   -7.7147    1.5355 S   0  0  0  0  0  0  0  0  0  0  0  0
    0.3252   -8.6670   -0.0056 C   0  0  0  0  0  0  0  0  0  0  0  0
    1.9974   -6.1428    0.1497 C   0  0  0  0  0  0  0  0  0  0  0  0
    2.8246   -5.0429    0.0541 C   0  0  0  0  0  0  0  0  0  0  0  0
    5.1514   -3.4759    0.9676 C   0  0  0  0  0  0  0  0  0  0  0  0
    6.1066   -3.1542    0.0056 C   0  0  0  0  0  0  0  0  0  0  0  0
    7.3899   -3.6469    0.1072 C   0  0  0  0  0  0  0  0  0  0  0  0
    7.7454   -4.5016    1.1456 C   0  0  0  0  0  0  0  0  0  0  0  0
    9.4237   -5.0459    1.1855 S   0  0  0  0  0  0  0  0  0  0  0  0
    9.5129   -6.0695    2.6821 C   0  0  0  0  0  0  0  0  0  0  0  0
    6.7797   -4.8822    2.0664 C   0  0  0  0  0  0  0  0  0  0  0  0
    5.5027   -4.3697    1.9773 C   0  0  0  0  0  0  0  0  0  0  0  0
    1.9944   -1.7162   -0.0593 C   0  0  0  0  0  0  0  0  0  0  0  0
    0.4857   -2.3180    0.5527 S   0  0  0  0  0  0  0  0  0  0  0  0
   -0.4324   -1.1278   -0.3759 C   0  0  0  0  0  0  0  0  0  0  0  0
    0.4020   -0.3478   -1.1547 C   0  0  0  0  0  0  0  0  0  0  0  0
    0.0275    0.5866   -2.1503 N   0  0  0  0  0  0  0  0  0  0  0  0
   -0.0139   -0.0203   -3.4290 C   0  0  0  0  0  0  0  0  0  0  0  0
   -0.8065   -1.1493   -3.6218 C   0  0  0  0  0  0  0  0  0  0  0  0
   -0.8762   -1.7742   -4.8536 C   0  0  0  0  0  0  0  0  0  0  0  0
   -0.1406   -1.2857   -5.9228 C   0  0  0  0  0  0  0  0  0  0  0  0
   -0.1616   -1.9784   -7.5470 S   0  0  0  0  0  0  0  0  0  0  0  0
   -1.4437   -3.2607   -7.4579 C   0  0  0  0  0  0  0  0  0  0  0  0
    0.6987   -0.1919   -5.7222 C   0  0  0  0  0  0  0  0  0  0  0  0
    0.7714    0.4243   -4.4931 C   0  0  0  0  0  0  0  0  0  0  0  0
    0.4451    1.9123   -1.9979 C   0  0  0  0  0  0  0  0  0  0  0  0
    1.1113    2.3416   -0.8481 C   0  0  0  0  0  0  0  0  0  0  0  0
    1.5384    3.6453   -0.7237 C   0  0  0  0  0  0  0  0  0  0  0  0
    1.2758    4.5716   -1.7242 C   0  0  0  0  0  0  0  0  0  0  0  0
    1.8324    6.2333   -1.4653 S   0  0  0  0  0  0  0  0  0  0  0  0
    2.0298    6.8543   -3.1648 C   0  0  0  0  0  0  0  0  0  0  0  0
    0.5426    4.1781   -2.8344 C   0  0  0  0  0  0  0  0  0  0  0  0
    0.1349    2.8662   -2.9690 C   0  0  0  0  0  0  0  0  0  0  0  0
    1.7567   -0.6708   -0.9361 C   0  0  0  0  0  0  0  0  0  0  0  0
    3.2105    0.0798   -1.4649 S   0  0  0  0  0  0  0  0  0  0  0  0
   -1.8544   -1.1749   -0.2759 C   0  0  0  0  0  0  0  0  0  0  0  0
   -2.8451   -0.3188   -0.7523 C   0  0  0  0  0  0  0  0  0  0  0  0
   -2.6973    0.9978   -1.1891 N   0  0  0  0  0  0  0  0  0  0  0  0
   -3.6231    1.4050   -2.1838 C   0  0  0  0  0  0  0  0  0  0  0  0
   -3.5898    0.8002   -3.4371 C   0  0  0  0  0  0  0  0  0  0  0  0
   -4.5096    1.1490   -4.4013 C   0  0  0  0  0  0  0  0  0  0  0  0
   -5.4847    2.1078   -4.1357 C   0  0  0  0  0  0  0  0  0  0  0  0
   -6.6117    2.4675   -5.4429 S   0  0  0  0  0  0  0  0  0  0  0  0
   -7.8537    3.5398   -4.6663 C   0  0  0  0  0  0  0  0  0  0  0  0
   -5.5178    2.7182   -2.8886 C   0  0  0  0  0  0  0  0  0  0  0  0
   -4.5980    2.3639   -1.9218 C   0  0  0  0  0  0  0  0  0  0  0  0
   -2.1193    1.9673   -0.3675 C   0  0  0  0  0  0  0  0  0  0  0  0
   -1.9981    3.2797   -0.8359 C   0  0  0  0  0  0  0  0  0  0  0  0
   -1.4803    4.2714   -0.0338 C   0  0  0  0  0  0  0  0  0  0  0  0
   -1.0483    3.9771    1.2524 C   0  0  0  0  0  0  0  0  0  0  0  0
   -0.3819    5.2854    2.2515 S   0  0  0  0  0  0  0  0  0  0  0  0
   -1.3562    5.0638    3.7766 C   0  0  0  0  0  0  0  0  0  0  0  0
   -1.1233    2.6736    1.7148 C   0  0  0  0  0  0  0  0  0  0  0  0
   -1.6654    1.6829    0.9203 C   0  0  0  0  0  0  0  0  0  0  0  0
   -4.1222   -0.9177   -0.6252 C   0  0  0  0  0  0  0  0  0  0  0  0
   -5.6946   -0.4502   -1.1608 S   0  0  0  0  0  0  0  0  0  0  0  0
   -6.3923   -1.9152   -0.4506 C   0  0  0  0  0  0  0  0  0  0  0  0
   -5.4447   -2.6184    0.3324 C   0  0  0  0  0  0  0  0  0  0  0  0
   -5.7574   -3.5034    1.3131 N   0  0  0  0  0  0  0  0  0  0  0  0
   -7.0608   -3.6091    1.8383 C   0  0  0  0  0  0  0  0  0  0  0  0
   -7.6078   -4.8739    2.0543 C   0  0  0  0  0  0  0  0  0  0  0  0
   -8.9054   -5.0007    2.4989 C   0  0  0  0  0  0  0  0  0  0  0  0
   -9.6798   -3.8696    2.7538 C   0  0  0  0  0  0  0  0  0  0  0  0
  -11.3510   -4.1493    3.2257 S   0  0  0  0  0  0  0  0  0  0  0  0
  -12.0685   -2.4869    3.3362 C   0  0  0  0  0  0  0  0  0  0  0  0
   -9.1068   -2.6085    2.6206 C   0  0  0  0  0  0  0  0  0  0  0  0
   -7.8107   -2.4830    2.1648 C   0  0  0  0  0  0  0  0  0  0  0  0
   -4.7750   -4.2652    1.9795 C   0  0  0  0  0  0  0  0  0  0  0  0
   -4.7397   -4.2195    3.3694 C   0  0  0  0  0  0  0  0  0  0  0  0
   -3.8164   -4.9639    4.0736 C   0  0  0  0  0  0  0  0  0  0  0  0
   -2.9160   -5.7719    3.3909 C   0  0  0  0  0  0  0  0  0  0  0  0
   -1.7041   -6.7665    4.1948 S   0  0  0  0  0  0  0  0  0  0  0  0
   -2.0632   -6.5598    5.9650 C   0  0  0  0  0  0  0  0  0  0  0  0
   -2.9579   -5.8257    1.9978 C   0  0  0  0  0  0  0  0  0  0  0  0
   -3.8806   -5.0816    1.2932 C   0  0  0  0  0  0  0  0  0  0  0  0
   -4.1464   -2.1031    0.0987 C   0  0  0  0  0  0  0  0  0  0  0  0
   -2.5388   -2.5864    0.5293 S   0  0  0  0  0  0  0  0  0  0  0  0
   -7.7234   -2.1896   -0.7468 C   0  0  0  0  0  0  0  0  0  0  0  0
   -8.3326   -3.4279   -0.6724 C   0  0  0  0  0  0  0  0  0  0  0  0
   -7.6192   -4.7090   -0.7557 C   0  0  0  0  0  0  0  0  0  0  0  0
   -6.4166   -4.8890   -0.8486 O   0  0  0  0  0  0  0  0  0  0  0  0
   -8.6690   -5.7493   -0.8109 C   0  0  0  0  0  0  0  0  0  0  0  0
   -8.4855   -7.1261   -0.8898 C   0  0  0  0  0  0  0  0  0  0  0  0
   -9.6565   -7.8476   -0.8988 C   0  0  0  0  0  0  0  0  0  0  0  0
  -10.9180   -7.2445   -0.8404 C   0  0  0  0  0  0  0  0  0  0  0  0
  -11.1133   -5.8849   -0.7644 C   0  0  0  0  0  0  0  0  0  0  0  0
   -9.9351   -5.1364   -0.7517 C   0  0  0  0  0  0  0  0  0  0  0  0
   -9.7407   -3.6920   -0.6430 C   0  0  0  0  0  0  0  0  0  0  0  0
  -10.7267   -2.7661   -0.3929 C   0  0  0  0  0  0  0  0  0  0  0  0
  -10.4805   -1.4110   -0.1049 C   0  0  0  0  0  0  0  0  0  0  0  0
  -10.3664   -0.3060    0.1933 N   0  0  0  0  0  0  0  0  0  0  0  0
  -12.1000   -3.0568   -0.3029 C   0  0  0  0  0  0  0  0  0  0  0  0
  -13.2355   -3.2060   -0.2047 N   0  0  0  0  0  0  0  0  0  0  0  0
  -11.6429   -8.5667   -0.8981 C   0  0  0  0  0  0  0  0  0  0  0  0
  -12.2670   -8.9541   -2.2552 C   0  0  0  0  0  0  0  0  0  0  0  0
  -12.4683  -10.4483   -2.1477 C   0  0  0  0  0  0  0  0  0  0  0  0
  -11.2727  -11.0214   -2.1999 C   0  0  0  0  0  0  0  0  0  0  0  0
  -10.2433   -9.9239   -2.3438 C   0  0  0  0  0  0  0  0  0  0  0  0
  -11.0443   -8.9186   -3.1813 C   0  0  0  0  0  0  0  0  0  0  0  0
  -10.2346   -9.2405   -0.9602 C   0  0  0  0  0  0  0  0  0  0  0  0
    8.6275    5.3566    0.9708 H   0  0  0  0  0  0  0  0  0  0  0  0
    2.4773    5.8618    1.7906 H   0  0  0  0  0  0  0  0  0  0  0  0
    5.5540    9.8850    1.9024 H   0  0  0  0  0  0  0  0  0  0  0  0
    2.3858   10.8346    1.0367 H   0  0  0  0  0  0  0  0  0  0  0  0
    2.7522   11.4614    3.6001 H   0  0  0  0  0  0  0  0  0  0  0  0
    0.3844   12.3228    2.8578 H   0  0  0  0  0  0  0  0  0  0  0  0
   -1.2526   10.2343    2.7272 H   0  0  0  0  0  0  0  0  0  0  0  0
    0.1111    8.0825    3.3810 H   0  0  0  0  0  0  0  0  0  0  0  0
    1.2925    9.7901    5.0392 H   0  0  0  0  0  0  0  0  0  0  0  0
    2.5505    8.8494    4.2039 H   0  0  0  0  0  0  0  0  0  0  0  0
    0.7984    8.7594    0.9136 H   0  0  0  0  0  0  0  0  0  0  0  0
    7.6621    4.1138   -3.8735 H   0  0  0  0  0  0  0  0  0  0  0  0
    8.7630    2.8981   -5.6937 H   0  0  0  0  0  0  0  0  0  0  0  0
   11.3796    1.1378   -5.6945 H   0  0  0  0  0  0  0  0  0  0  0  0
   10.4921   -0.3293   -5.2892 H   0  0  0  0  0  0  0  0  0  0  0  0
    9.8232    0.8204   -6.4578 H   0  0  0  0  0  0  0  0  0  0  0  0
   10.4835    0.2067   -2.8689 H   0  0  0  0  0  0  0  0  0  0  0  0
    9.4235    1.4387   -1.0407 H   0  0  0  0  0  0  0  0  0  0  0  0
    5.3505    4.3699   -1.0039 H   0  0  0  0  0  0  0  0  0  0  0  0
    4.5485    6.6855   -1.1189 H   0  0  0  0  0  0  0  0  0  0  0  0
    4.9900    9.0145   -1.2118 H   0  0  0  0  0  0  0  0  0  0  0  0
    5.9736    9.3067   -2.6526 H   0  0  0  0  0  0  0  0  0  0  0  0
    6.6611    9.5743   -1.0562 H   0  0  0  0  0  0  0  0  0  0  0  0
    8.4867    8.0017   -2.1057 H   0  0  0  0  0  0  0  0  0  0  0  0
    9.2934    5.6777   -1.9960 H   0  0  0  0  0  0  0  0  0  0  0  0
    3.1825    1.2006    1.3089 H   0  0  0  0  0  0  0  0  0  0  0  0
    1.9102    3.0419    2.3102 H   0  0  0  0  0  0  0  0  0  0  0  0
    1.3486    3.6656    5.5694 H   0  0  0  0  0  0  0  0  0  0  0  0
    2.7861    4.6627    5.3817 H   0  0  0  0  0  0  0  0  0  0  0  0
    1.5875    4.6032    4.0861 H   0  0  0  0  0  0  0  0  0  0  0  0
    3.9053    2.3971    6.0232 H   0  0  0  0  0  0  0  0  0  0  0  0
    5.1663    0.5457    5.0331 H   0  0  0  0  0  0  0  0  0  0  0  0
    3.8187   -1.6952    4.3285 H   0  0  0  0  0  0  0  0  0  0  0  0
    4.8586   -3.3985    5.7671 H   0  0  0  0  0  0  0  0  0  0  0  0
    7.0556   -5.2263    5.5630 H   0  0  0  0  0  0  0  0  0  0  0  0
    7.1833   -4.0196    6.8354 H   0  0  0  0  0  0  0  0  0  0  0  0
    8.5113   -4.2282    5.6906 H   0  0  0  0  0  0  0  0  0  0  0  0
    8.5864   -2.7850    3.7859 H   0  0  0  0  0  0  0  0  0  0  0  0
    7.5547   -1.1111    2.3424 H   0  0  0  0  0  0  0  0  0  0  0  0
    2.1389   -3.5439    3.0035 H   0  0  0  0  0  0  0  0  0  0  0  0
    0.6499   -5.5198    3.1817 H   0  0  0  0  0  0  0  0  0  0  0  0
    1.3467   -9.0116   -0.1357 H   0  0  0  0  0  0  0  0  0  0  0  0
   -0.3358   -9.5191    0.1189 H   0  0  0  0  0  0  0  0  0  0  0  0
   -0.0023   -8.0670   -0.8494 H   0  0  0  0  0  0  0  0  0  0  0  0
    1.9775   -6.8531   -0.6603 H   0  0  0  0  0  0  0  0  0  0  0  0
    3.4432   -4.9084   -0.8218 H   0  0  0  0  0  0  0  0  0  0  0  0
    5.8527   -2.5462   -0.8462 H   0  0  0  0  0  0  0  0  0  0  0  0
    8.1290   -3.3820   -0.6337 H   0  0  0  0  0  0  0  0  0  0  0  0
    9.2237   -5.4824    3.5483 H   0  0  0  0  0  0  0  0  0  0  0  0
   10.5519   -6.3720    2.7684 H   0  0  0  0  0  0  0  0  0  0  0  0
    8.8821   -6.9470    2.5724 H   0  0  0  0  0  0  0  0  0  0  0  0
    7.0058   -5.5742    2.8602 H   0  0  0  0  0  0  0  0  0  0  0  0
    4.7644   -4.6647    2.7064 H   0  0  0  0  0  0  0  0  0  0  0  0
   -1.3696   -1.5588   -2.7969 H   0  0  0  0  0  0  0  0  0  0  0  0
   -1.5093   -2.6407   -4.9581 H   0  0  0  0  0  0  0  0  0  0  0  0
   -2.3884   -2.8188   -7.1553 H   0  0  0  0  0  0  0  0  0  0  0  0
   -1.1388   -4.0491   -6.7757 H   0  0  0  0  0  0  0  0  0  0  0  0
   -1.5280   -3.6586   -8.4644 H   0  0  0  0  0  0  0  0  0  0  0  0
    1.3050    0.1611   -6.5423 H   0  0  0  0  0  0  0  0  0  0  0  0
    1.4551    1.2469   -4.3506 H   0  0  0  0  0  0  0  0  0  0  0  0
    1.2888    1.6587   -0.0337 H   0  0  0  0  0  0  0  0  0  0  0  0
    2.0936    3.9521    0.1490 H   0  0  0  0  0  0  0  0  0  0  0  0
    2.5509    6.1097   -3.7585 H   0  0  0  0  0  0  0  0  0  0  0  0
    2.6298    7.7558   -3.0893 H   0  0  0  0  0  0  0  0  0  0  0  0
    1.0627    7.0936   -3.5977 H   0  0  0  0  0  0  0  0  0  0  0  0
    0.2767    4.8880   -3.6023 H   0  0  0  0  0  0  0  0  0  0  0  0
   -0.4506    2.5819   -3.8307 H   0  0  0  0  0  0  0  0  0  0  0  0
   -2.8391    0.0558   -3.6499 H   0  0  0  0  0  0  0  0  0  0  0  0
   -4.4847    0.6803   -5.3731 H   0  0  0  0  0  0  0  0  0  0  0  0
   -8.2896    3.0354   -3.8091 H   0  0  0  0  0  0  0  0  0  0  0  0
   -7.4074    4.4891   -4.3844 H   0  0  0  0  0  0  0  0  0  0  0  0
   -8.6130    3.7029   -5.4249 H   0  0  0  0  0  0  0  0  0  0  0  0
   -6.2616    3.4606   -2.6501 H   0  0  0  0  0  0  0  0  0  0  0  0
   -4.6442    2.8277   -0.9475 H   0  0  0  0  0  0  0  0  0  0  0  0
   -2.3214    3.5230   -1.8353 H   0  0  0  0  0  0  0  0  0  0  0  0
   -1.4035    5.2832   -0.4003 H   0  0  0  0  0  0  0  0  0  0  0  0
   -1.1029    4.1227    4.2540 H   0  0  0  0  0  0  0  0  0  0  0  0
   -1.0974    5.8895    4.4316 H   0  0  0  0  0  0  0  0  0  0  0  0
   -2.4131    5.0978    3.5302 H   0  0  0  0  0  0  0  0  0  0  0  0
   -0.7660    2.4202    2.7018 H   0  0  0  0  0  0  0  0  0  0  0  0
   -1.7412    0.6842    1.3204 H   0  0  0  0  0  0  0  0  0  0  0  0
   -7.0138   -5.7512    1.8481 H   0  0  0  0  0  0  0  0  0  0  0  0
   -9.3435   -5.9775    2.6342 H   0  0  0  0  0  0  0  0  0  0  0  0
  -11.6087   -1.9344    4.1503 H   0  0  0  0  0  0  0  0  0  0  0  0
  -13.1227   -2.6423    3.5429 H   0  0  0  0  0  0  0  0  0  0  0  0
  -11.9568   -1.9658    2.3901 H   0  0  0  0  0  0  0  0  0  0  0  0
   -9.6618   -1.7157    2.8566 H   0  0  0  0  0  0  0  0  0  0  0  0
   -7.3839   -1.4977    2.0527 H   0  0  0  0  0  0  0  0  0  0  0  0
   -5.4407   -3.5919    3.9003 H   0  0  0  0  0  0  0  0  0  0  0  0
   -3.8096   -4.9015    5.1492 H   0  0  0  0  0  0  0  0  0  0  0  0
   -1.8922   -5.5309    6.2677 H   0  0  0  0  0  0  0  0  0  0  0  0
   -1.3635   -7.2135    6.4766 H   0  0  0  0  0  0  0  0  0  0  0  0
   -3.0810   -6.8724    6.1776 H   0  0  0  0  0  0  0  0  0  0  0  0
   -2.2628   -6.4679    1.4814 H   0  0  0  0  0  0  0  0  0  0  0  0
   -3.9479   -5.1499    0.2188 H   0  0  0  0  0  0  0  0  0  0  0  0
   -8.3020   -1.3528   -1.1201 H   0  0  0  0  0  0  0  0  0  0  0  0
   -7.4955   -7.5540   -0.9279 H   0  0  0  0  0  0  0  0  0  0  0  0
  -12.0897   -5.4319   -0.7184 H   0  0  0  0  0  0  0  0  0  0  0  0
  -12.2906   -8.7899   -0.0523 H   0  0  0  0  0  0  0  0  0  0  0  0
  -13.1319   -8.3631   -2.5439 H   0  0  0  0  0  0  0  0  0  0  0  0
  -13.4232  -10.9156   -1.9932 H   0  0  0  0  0  0  0  0  0  0  0  0
  -11.0294  -12.0629   -2.0975 H   0  0  0  0  0  0  0  0  0  0  0  0
   -9.2643  -10.2168   -2.7141 H   0  0  0  0  0  0  0  0  0  0  0  0
  -11.2701   -9.2988   -4.1763 H   0  0  0  0  0  0  0  0  0  0  0  0
  -10.5781   -7.9386   -3.2625 H   0  0  0  0  0  0  0  0  0  0  0  0
   -9.9443   -9.9130   -0.1547 H   0  0  0  0  0  0  0  0  0  0  0  0
  1  2  2  0  0  0  0
  2  3  1  0  0  0  0
  3  4  2  0  0  0  0
  3  5  1  0  0  0  0
  5  6  2  0  0  0  0
  6  7  1  0  0  0  0
  7  8  2  0  0  0  0
  8  9  1  0  0  0  0
  9 10  2  0  0  0  0
 10 11  1  0  0  0  0
 11 12  2  0  0  0  0
 12 13  1  0  0  0  0
 13 14  3  0  0  0  0
 12 15  1  0  0  0  0
 15 16  3  0  0  0  0
  8 17  1  0  0  0  0
 17 18  1  0  0  0  0
 18 19  1  0  0  0  0
 19 20  2  0  0  0  0
 20 21  1  0  0  0  0
 21 22  1  0  0  0  0
 21 23  1  0  0  0  0
  1 24  1  0  0  0  0
 24 25  2  0  0  0  0
 25 26  1  0  0  0  0
 26 27  1  0  0  0  0
 27 28  2  0  0  0  0
 28 29  1  0  0  0  0
 29 30  2  0  0  0  0
 30 31  1  0  0  0  0
 30 32  1  0  0  0  0
 32 33  2  0  0  0  0
 26 34  1  0  0  0  0
 34 35  2  0  0  0  0
 35 36  1  0  0  0  0
 36 37  2  0  0  0  0
 37 38  1  0  0  0  0
 37 39  1  0  0  0  0
 39 40  2  0  0  0  0
 25 41  1  0  0  0  0
 41 42  1  0  0  0  0
 42 43  1  0  0  0  0
 43 44  2  0  0  0  0
 44 45  1  0  0  0  0
 45 46  1  0  0  0  0
 46 47  2  0  0  0  0
 47 48  1  0  0  0  0
 48 49  2  0  0  0  0
 49 50  1  0  0  0  0
 49 51  1  0  0  0  0
 51 52  2  0  0  0  0
 45 53  1  0  0  0  0
 53 54  2  0  0  0  0
 54 55  1  0  0  0  0
 55 56  2  0  0  0  0
 56 57  1  0  0  0  0
 56 58  1  0  0  0  0
 58 59  2  0  0  0  0
 44 60  1  0  0  0  0
 60 61  1  0  0  0  0
 43 62  1  0  0  0  0
 62 63  2  0  0  0  0
 63 64  1  0  0  0  0
 64 65  1  0  0  0  0
 65 66  2  0  0  0  0
 66 67  1  0  0  0  0
 67 68  2  0  0  0  0
 68 69  1  0  0  0  0
 69 70  1  0  0  0  0
 68 71  1  0  0  0  0
 71 72  2  0  0  0  0
 64 73  1  0  0  0  0
 73 74  2  0  0  0  0
 74 75  1  0  0  0  0
 75 76  2  0  0  0  0
 76 77  1  0  0  0  0
 77 78  1  0  0  0  0
 76 79  1  0  0  0  0
 79 80  2  0  0  0  0
 63 81  1  0  0  0  0
 81 82  1  0  0  0  0
 82 83  1  0  0  0  0
 83 84  2  0  0  0  0
 84 85  1  0  0  0  0
 85 86  1  0  0  0  0
 86 87  2  0  0  0  0
 87 88  1  0  0  0  0
 88 89  2  0  0  0  0
 89 90  1  0  0  0  0
 90 91  1  0  0  0  0
 89 92  1  0  0  0  0
 92 93  2  0  0  0  0
 85 94  1  0  0  0  0
 94 95  2  0  0  0  0
 95 96  1  0  0  0  0
 96 97  2  0  0  0  0
 97 98  1  0  0  0  0
 98 99  1  0  0  0  0
 97100  1  0  0  0  0
100101  2  0  0  0  0
 84102  1  0  0  0  0
102103  1  0  0  0  0
 83104  1  0  0  0  0
104105  2  0  0  0  0
105106  1  0  0  0  0
106107  1  0  0  0  0
107108  2  0  0  0  0
108109  1  0  0  0  0
109110  2  0  0  0  0
110111  1  0  0  0  0
111112  1  0  0  0  0
110113  1  0  0  0  0
113114  2  0  0  0  0
106115  1  0  0  0  0
115116  2  0  0  0  0
116117  1  0  0  0  0
117118  2  0  0  0  0
118119  1  0  0  0  0
119120  1  0  0  0  0
118121  1  0  0  0  0
121122  2  0  0  0  0
105123  1  0  0  0  0
123124  1  0  0  0  0
124125  1  0  0  0  0
125126  2  0  0  0  0
126127  1  0  0  0  0
127128  1  0  0  0  0
128129  2  0  0  0  0
129130  1  0  0  0  0
130131  2  0  0  0  0
131132  1  0  0  0  0
132133  1  0  0  0  0
131134  1  0  0  0  0
134135  2  0  0  0  0
127136  1  0  0  0  0
136137  2  0  0  0  0
137138  1  0  0  0  0
138139  2  0  0  0  0
139140  1  0  0  0  0
140141  1  0  0  0  0
139142  1  0  0  0  0
142143  2  0  0  0  0
126144  1  0  0  0  0
144145  1  0  0  0  0
125146  1  0  0  0  0
146147  2  0  0  0  0
147148  1  0  0  0  0
148149  2  0  0  0  0
148150  1  0  0  0  0
150151  2  0  0  0  0
151152  1  0  0  0  0
152153  2  0  0  0  0
153154  1  0  0  0  0
154155  2  0  0  0  0
155156  1  0  0  0  0
156157  2  0  0  0  0
157158  1  0  0  0  0
158159  3  0  0  0  0
157160  1  0  0  0  0
160161  3  0  0  0  0
153162  1  0  0  0  0
162163  1  0  0  0  0
163164  1  0  0  0  0
164165  2  0  0  0  0
165166  1  0  0  0  0
166167  1  0  0  0  0
166168  1  0  0  0  0
 11  2  1  0  0  0  0
 23 17  1  0  0  0  0
 61 24  1  0  0  0  0
103 62  1  0  0  0  0
145104  1  0  0  0  0
156147  1  0  0  0  0
168162  1  0  0  0  0
 10  5  1  0  0  0  0
 22 18  1  0  0  0  0
 33 27  1  0  0  0  0
 40 34  1  0  0  0  0
 60 41  2  0  0  0  0
 72 65  1  0  0  0  0
 80 73  1  0  0  0  0
102 81  2  0  0  0  0
114107  1  0  0  0  0
122115  1  0  0  0  0
144123  2  0  0  0  0
155150  1  0  0  0  0
167163  1  0  0  0  0
 23  7  1  0  0  0  0
 52 46  1  0  0  0  0
 59 53  1  0  0  0  0
 93 86  1  0  0  0  0
101 94  1  0  0  0  0
135128  1  0  0  0  0
143136  1  0  0  0  0
168152  1  0  0  0  0
  1169  1  0  0  0  0
  6170  1  0  0  0  0
  9171  1  0  0  0  0
 17172  1  0  0  0  0
 18173  1  0  0  0  0
 19174  1  0  0  0  0
 20175  1  0  0  0  0
 21176  1  0  0  0  0
 22177  1  0  0  0  0
 22178  1  0  0  0  0
 23179  1  0  0  0  0
 28180  1  0  0  0  0
 29181  1  0  0  0  0
 31182  1  0  0  0  0
 31183  1  0  0  0  0
 31184  1  0  0  0  0
 32185  1  0  0  0  0
 33186  1  0  0  0  0
 35187  1  0  0  0  0
 36188  1  0  0  0  0
 38189  1  0  0  0  0
 38190  1  0  0  0  0
 38191  1  0  0  0  0
 39192  1  0  0  0  0
 40193  1  0  0  0  0
 47194  1  0  0  0  0
 48195  1  0  0  0  0
 50196  1  0  0  0  0
 50197  1  0  0  0  0
 50198  1  0  0  0  0
 51199  1  0  0  0  0
 52200  1  0  0  0  0
 54201  1  0  0  0  0
 55202  1  0  0  0  0
 57203  1  0  0  0  0
 57204  1  0  0  0  0
 57205  1  0  0  0  0
 58206  1  0  0  0  0
 59207  1  0  0  0  0
 66208  1  0  0  0  0
 67209  1  0  0  0  0
 70210  1  0  0  0  0
 70211  1  0  0  0  0
 70212  1  0  0  0  0
 71213  1  0  0  0  0
 72214  1  0  0  0  0
 74215  1  0  0  0  0
 75216  1  0  0  0  0
 78217  1  0  0  0  0
 78218  1  0  0  0  0
 78219  1  0  0  0  0
 79220  1  0  0  0  0
 80221  1  0  0  0  0
 87222  1  0  0  0  0
 88223  1  0  0  0  0
 91224  1  0  0  0  0
 91225  1  0  0  0  0
 91226  1  0  0  0  0
 92227  1  0  0  0  0
 93228  1  0  0  0  0
 95229  1  0  0  0  0
 96230  1  0  0  0  0
 99231  1  0  0  0  0
 99232  1  0  0  0  0
 99233  1  0  0  0  0
100234  1  0  0  0  0
101235  1  0  0  0  0
108236  1  0  0  0  0
109237  1  0  0  0  0
112238  1  0  0  0  0
112239  1  0  0  0  0
112240  1  0  0  0  0
113241  1  0  0  0  0
114242  1  0  0  0  0
116243  1  0  0  0  0
117244  1  0  0  0  0
120245  1  0  0  0  0
120246  1  0  0  0  0
120247  1  0  0  0  0
121248  1  0  0  0  0
122249  1  0  0  0  0
129250  1  0  0  0  0
130251  1  0  0  0  0
133252  1  0  0  0  0
133253  1  0  0  0  0
133254  1  0  0  0  0
134255  1  0  0  0  0
135256  1  0  0  0  0
137257  1  0  0  0  0
138258  1  0  0  0  0
141259  1  0  0  0  0
141260  1  0  0  0  0
141261  1  0  0  0  0
142262  1  0  0  0  0
143263  1  0  0  0  0
146264  1  0  0  0  0
151265  1  0  0  0  0
154266  1  0  0  0  0
162267  1  0  0  0  0
163268  1  0  0  0  0
164269  1  0  0  0  0
165270  1  0  0  0  0
166271  1  0  0  0  0
167272  1  0  0  0  0
167273  1  0  0  0  0
168274  1  0  0  0  0
M  END
