
  xtb     02142205313D
 energy: -302.316650429760 gnorm: 0.000839142049 xtb: 6.4.1 (unknown)
187207  0     0  0            999 V2000
    5.7094    0.2689   -5.2425 C   0  0  0  0  0  0  0  0  0  0  0  0
    5.8928    0.9932   -6.4003 C   0  0  0  0  0  0  0  0  0  0  0  0
    4.9646    1.9695   -6.9722 C   0  0  0  0  0  0  0  0  0  0  0  0
    3.9146    2.3745   -6.5006 O   0  0  0  0  0  0  0  0  0  0  0  0
    5.5380    2.3735   -8.2697 C   0  0  0  0  0  0  0  0  0  0  0  0
    5.0058    3.2898   -9.1731 C   0  0  0  0  0  0  0  0  0  0  0  0
    5.7718    3.4736  -10.2994 C   0  0  0  0  0  0  0  0  0  0  0  0
    6.9793    2.7965  -10.5093 C   0  0  0  0  0  0  0  0  0  0  0  0
    7.5154    1.8899   -9.6250 C   0  0  0  0  0  0  0  0  0  0  0  0
    6.7501    1.6859   -8.4736 C   0  0  0  0  0  0  0  0  0  0  0  0
    7.0012    0.8344   -7.3095 C   0  0  0  0  0  0  0  0  0  0  0  0
    8.1184    0.0529   -7.1285 C   0  0  0  0  0  0  0  0  0  0  0  0
    8.4465   -0.6548   -5.9568 C   0  0  0  0  0  0  0  0  0  0  0  0
    8.8183   -1.2351   -5.0356 N   0  0  0  0  0  0  0  0  0  0  0  0
    9.1293   -0.1301   -8.0921 C   0  0  0  0  0  0  0  0  0  0  0  0
    9.9795   -0.3491   -8.8337 N   0  0  0  0  0  0  0  0  0  0  0  0
    7.2144    3.4625  -11.8426 C   0  0  0  0  0  0  0  0  0  0  0  0
    6.9200    2.6162  -13.0988 C   0  0  0  0  0  0  0  0  0  0  0  0
    6.7712    3.6417  -14.1992 C   0  0  0  0  0  0  0  0  0  0  0  0
    5.6263    4.2825  -14.0013 C   0  0  0  0  0  0  0  0  0  0  0  0
    4.9821    3.7007  -12.7637 C   0  0  0  0  0  0  0  0  0  0  0  0
    5.4473    2.2439  -12.8839 C   0  0  0  0  0  0  0  0  0  0  0  0
    5.8665    4.2173  -11.6091 C   0  0  0  0  0  0  0  0  0  0  0  0
    4.7101    0.3460   -4.2767 C   0  0  0  0  0  0  0  0  0  0  0  0
    4.6736   -0.4901   -3.1286 C   0  0  0  0  0  0  0  0  0  0  0  0
    5.4096   -1.6272   -2.9491 N   0  0  0  0  0  0  0  0  0  0  0  0
    5.6620   -2.0700   -1.6339 C   0  0  0  0  0  0  0  0  0  0  0  0
    6.1823   -1.1910   -0.6880 C   0  0  0  0  0  0  0  0  0  0  0  0
    6.4062   -1.6213    0.6034 C   0  0  0  0  0  0  0  0  0  0  0  0
    6.1237   -2.9294    0.9825 C   0  0  0  0  0  0  0  0  0  0  0  0
    6.3608   -3.3736    2.3933 C   0  0  0  0  0  0  0  0  0  0  0  0
    5.6231   -3.8030    0.0256 C   0  0  0  0  0  0  0  0  0  0  0  0
    5.3928   -3.3846   -1.2705 C   0  0  0  0  0  0  0  0  0  0  0  0
    5.7748   -2.4813   -4.0081 C   0  0  0  0  0  0  0  0  0  0  0  0
    4.9261   -2.6887   -5.0925 C   0  0  0  0  0  0  0  0  0  0  0  0
    5.3144   -3.5216   -6.1227 C   0  0  0  0  0  0  0  0  0  0  0  0
    6.5379   -4.1810   -6.0921 C   0  0  0  0  0  0  0  0  0  0  0  0
    6.9755   -5.0593   -7.2232 C   0  0  0  0  0  0  0  0  0  0  0  0
    7.3603   -3.9960   -4.9872 C   0  0  0  0  0  0  0  0  0  0  0  0
    6.9923   -3.1550   -3.9562 C   0  0  0  0  0  0  0  0  0  0  0  0
    3.7500   -0.0075   -2.1851 C   0  0  0  0  0  0  0  0  0  0  0  0
    3.2244   -0.5619   -0.6206 S   0  0  0  0  0  0  0  0  0  0  0  0
    2.0963    0.7734   -0.5327 C   0  0  0  0  0  0  0  0  0  0  0  0
    2.0096    1.4974   -1.7248 C   0  0  0  0  0  0  0  0  0  0  0  0
    1.0133    2.3905   -2.0449 N   0  0  0  0  0  0  0  0  0  0  0  0
   -0.2834    2.2485   -1.5273 C   0  0  0  0  0  0  0  0  0  0  0  0
   -1.0303    3.3773   -1.1947 C   0  0  0  0  0  0  0  0  0  0  0  0
   -2.2578    3.2424   -0.5785 C   0  0  0  0  0  0  0  0  0  0  0  0
   -2.7793    1.9889   -0.2770 C   0  0  0  0  0  0  0  0  0  0  0  0
   -4.0679    1.8589    0.4747 C   0  0  0  0  0  0  0  0  0  0  0  0
   -2.0577    0.8675   -0.6685 C   0  0  0  0  0  0  0  0  0  0  0  0
   -0.8335    0.9890   -1.2949 C   0  0  0  0  0  0  0  0  0  0  0  0
    1.2851    3.3967   -2.9890 C   0  0  0  0  0  0  0  0  0  0  0  0
    0.3808    3.6703   -4.0094 C   0  0  0  0  0  0  0  0  0  0  0  0
    0.6878    4.6177   -4.9656 C   0  0  0  0  0  0  0  0  0  0  0  0
    1.8922    5.3090   -4.9301 C   0  0  0  0  0  0  0  0  0  0  0  0
    2.2547    6.2872   -6.0038 C   0  0  0  0  0  0  0  0  0  0  0  0
    2.7740    5.0511   -3.8874 C   0  0  0  0  0  0  0  0  0  0  0  0
    2.4785    4.1102   -2.9227 C   0  0  0  0  0  0  0  0  0  0  0  0
    3.0126    1.0809   -2.6349 C   0  0  0  0  0  0  0  0  0  0  0  0
    3.4561    1.5887   -4.2263 S   0  0  0  0  0  0  0  0  0  0  0  0
    1.3257    0.9475    0.6523 C   0  0  0  0  0  0  0  0  0  0  0  0
    0.7897    2.1595    1.0773 C   0  0  0  0  0  0  0  0  0  0  0  0
    1.2320    3.3103    0.5338 F   0  0  0  0  0  0  0  0  0  0  0  0
   -0.1769    2.2401    2.0752 C   0  0  0  0  0  0  0  0  0  0  0  0
   -0.6530    3.4679    2.3585 F   0  0  0  0  0  0  0  0  0  0  0  0
   -0.6581    1.1182    2.7469 C   0  0  0  0  0  0  0  0  0  0  0  0
    0.0311   -0.1003    2.4719 C   0  0  0  0  0  0  0  0  0  0  0  0
   -0.2838   -1.2026    3.1593 N   0  0  0  0  0  0  0  0  0  0  0  0
    0.3650   -2.3254    2.9528 C   0  0  0  0  0  0  0  0  0  0  0  0
   -0.0562   -3.4928    3.7907 C   0  0  0  0  0  0  0  0  0  0  0  0
    0.7121   -3.4984    5.1148 C   0  0  0  0  0  0  0  0  0  0  0  0
    1.4315   -2.3692    2.0154 C   0  0  0  0  0  0  0  0  0  0  0  0
    1.7095   -1.3102    1.2913 N   0  0  0  0  0  0  0  0  0  0  0  0
    1.0312   -0.1750    1.4754 C   0  0  0  0  0  0  0  0  0  0  0  0
    2.2748   -3.5783    1.7508 C   0  0  0  0  0  0  0  0  0  0  0  0
    1.7371   -4.3416    0.5384 C   0  0  0  0  0  0  0  0  0  0  0  0
   -1.7587    1.1219    3.6583 C   0  0  0  0  0  0  0  0  0  0  0  0
   -2.2048   -0.3439    4.4871 S   0  0  0  0  0  0  0  0  0  0  0  0
   -3.5275    0.4728    5.2399 C   0  0  0  0  0  0  0  0  0  0  0  0
   -4.4917   -0.0139    6.1485 C   0  0  0  0  0  0  0  0  0  0  0  0
   -5.4793    0.8743    6.5930 C   0  0  0  0  0  0  0  0  0  0  0  0
   -5.1823    2.6318    5.7455 Ge  0  0  0  0  0  4  0  0  0  0  0  0
   -6.6147    3.1071    4.4248 C   0  0  0  0  0  0  0  0  0  0  0  0
   -6.9825    1.9302    3.5346 C   0  0  0  0  0  0  0  0  0  0  0  0
   -4.7047    4.0789    7.0502 C   0  0  0  0  0  0  0  0  0  0  0  0
   -4.1852    5.3352    6.3687 C   0  0  0  0  0  0  0  0  0  0  0  0
   -3.6216    1.8106    4.8624 C   0  0  0  0  0  0  0  0  0  0  0  0
   -2.6170    2.1658    3.9721 C   0  0  0  0  0  0  0  0  0  0  0  0
   -6.3604    0.2863    7.4791 C   0  0  0  0  0  0  0  0  0  0  0  0
   -6.0790   -1.0529    7.7415 C   0  0  0  0  0  0  0  0  0  0  0  0
   -4.6580   -1.5736    6.8356 S   0  0  0  0  0  0  0  0  0  0  0  0
   -6.6628   -2.0128    8.5818 C   0  0  0  0  0  0  0  0  0  0  0  0
   -7.7802   -1.9767    9.3788 C   0  0  0  0  0  0  0  0  0  0  0  0
   -8.8050   -0.9184    9.4884 C   0  0  0  0  0  0  0  0  0  0  0  0
   -8.8272    0.1837    8.9743 O   0  0  0  0  0  0  0  0  0  0  0  0
   -9.8620   -1.4652   10.3611 C   0  0  0  0  0  0  0  0  0  0  0  0
  -11.0501   -0.8323   10.7208 C   0  0  0  0  0  0  0  0  0  0  0  0
  -11.8563   -1.5823   11.5422 C   0  0  0  0  0  0  0  0  0  0  0  0
  -11.5052   -2.8674   11.9758 C   0  0  0  0  0  0  0  0  0  0  0  0
  -10.3347   -3.5003   11.6317 C   0  0  0  0  0  0  0  0  0  0  0  0
   -9.4996   -2.7541   10.7935 C   0  0  0  0  0  0  0  0  0  0  0  0
   -8.1918   -3.0802   10.2277 C   0  0  0  0  0  0  0  0  0  0  0  0
   -7.4806   -4.2192   10.5143 C   0  0  0  0  0  0  0  0  0  0  0  0
   -7.9350   -5.2543   11.3577 C   0  0  0  0  0  0  0  0  0  0  0  0
   -8.2286   -6.1447   12.0214 N   0  0  0  0  0  0  0  0  0  0  0  0
   -6.1864   -4.5421   10.0549 C   0  0  0  0  0  0  0  0  0  0  0  0
   -5.1339   -4.8942    9.7547 N   0  0  0  0  0  0  0  0  0  0  0  0
  -12.7798   -3.0367   12.7652 C   0  0  0  0  0  0  0  0  0  0  0  0
  -13.8722   -3.9231   12.1309 C   0  0  0  0  0  0  0  0  0  0  0  0
  -15.1336   -3.5204   12.8600 C   0  0  0  0  0  0  0  0  0  0  0  0
  -15.4667   -2.3037   12.4484 C   0  0  0  0  0  0  0  0  0  0  0  0
  -14.4357   -1.8636   11.4342 C   0  0  0  0  0  0  0  0  0  0  0  0
  -14.1056   -3.2160   10.7895 C   0  0  0  0  0  0  0  0  0  0  0  0
  -13.1717   -1.6038   12.2811 C   0  0  0  0  0  0  0  0  0  0  0  0
    6.4675   -0.4739   -5.0310 H   0  0  0  0  0  0  0  0  0  0  0  0
    4.0734    3.7925   -8.9674 H   0  0  0  0  0  0  0  0  0  0  0  0
    8.4485    1.3817   -9.8013 H   0  0  0  0  0  0  0  0  0  0  0  0
    8.1296    4.0457  -11.9270 H   0  0  0  0  0  0  0  0  0  0  0  0
    7.6216    1.8056  -13.2760 H   0  0  0  0  0  0  0  0  0  0  0  0
    7.5161    3.8281  -14.9505 H   0  0  0  0  0  0  0  0  0  0  0  0
    5.2239    5.1111  -14.5543 H   0  0  0  0  0  0  0  0  0  0  0  0
    3.9173    3.8779  -12.6371 H   0  0  0  0  0  0  0  0  0  0  0  0
    5.0179    1.7446  -13.7511 H   0  0  0  0  0  0  0  0  0  0  0  0
    5.2669    1.6459  -11.9925 H   0  0  0  0  0  0  0  0  0  0  0  0
    5.8839    5.3036  -11.5396 H   0  0  0  0  0  0  0  0  0  0  0  0
    6.4096   -0.1751   -0.9751 H   0  0  0  0  0  0  0  0  0  0  0  0
    6.8086   -0.9329    1.3319 H   0  0  0  0  0  0  0  0  0  0  0  0
    7.4178   -3.2913    2.6435 H   0  0  0  0  0  0  0  0  0  0  0  0
    6.0515   -4.4059    2.5356 H   0  0  0  0  0  0  0  0  0  0  0  0
    5.8068   -2.7430    3.0876 H   0  0  0  0  0  0  0  0  0  0  0  0
    5.4031   -4.8252    0.2981 H   0  0  0  0  0  0  0  0  0  0  0  0
    4.9948   -4.0698   -2.0042 H   0  0  0  0  0  0  0  0  0  0  0  0
    3.9689   -2.1897   -5.1287 H   0  0  0  0  0  0  0  0  0  0  0  0
    4.6499   -3.6664   -6.9626 H   0  0  0  0  0  0  0  0  0  0  0  0
    7.3569   -6.0073   -6.8485 H   0  0  0  0  0  0  0  0  0  0  0  0
    7.7789   -4.5757   -7.7794 H   0  0  0  0  0  0  0  0  0  0  0  0
    6.1540   -5.2554   -7.9077 H   0  0  0  0  0  0  0  0  0  0  0  0
    8.3132   -4.5010   -4.9422 H   0  0  0  0  0  0  0  0  0  0  0  0
    7.6502   -3.0037   -3.1151 H   0  0  0  0  0  0  0  0  0  0  0  0
   -0.6202    4.3571   -1.3867 H   0  0  0  0  0  0  0  0  0  0  0  0
   -2.8096    4.1285   -0.3009 H   0  0  0  0  0  0  0  0  0  0  0  0
   -4.8063    2.5678    0.1054 H   0  0  0  0  0  0  0  0  0  0  0  0
   -3.9005    2.0703    1.5327 H   0  0  0  0  0  0  0  0  0  0  0  0
   -4.4695    0.8519    0.3890 H   0  0  0  0  0  0  0  0  0  0  0  0
   -2.4564   -0.1183   -0.4759 H   0  0  0  0  0  0  0  0  0  0  0  0
   -0.2905    0.1031   -1.5901 H   0  0  0  0  0  0  0  0  0  0  0  0
   -0.5505    3.1248   -4.0573 H   0  0  0  0  0  0  0  0  0  0  0  0
   -0.0146    4.8097   -5.7637 H   0  0  0  0  0  0  0  0  0  0  0  0
    2.7458    7.1626   -5.5836 H   0  0  0  0  0  0  0  0  0  0  0  0
    2.9483    5.8165   -6.7010 H   0  0  0  0  0  0  0  0  0  0  0  0
    1.3753    6.6056   -6.5583 H   0  0  0  0  0  0  0  0  0  0  0  0
    3.7077    5.5918   -3.8342 H   0  0  0  0  0  0  0  0  0  0  0  0
    3.1655    3.9201   -2.1114 H   0  0  0  0  0  0  0  0  0  0  0  0
   -1.1203   -3.3878    4.0047 H   0  0  0  0  0  0  0  0  0  0  0  0
    0.1095   -4.4281    3.2564 H   0  0  0  0  0  0  0  0  0  0  0  0
    1.7840   -3.5770    4.9448 H   0  0  0  0  0  0  0  0  0  0  0  0
    0.3935   -4.3382    5.7263 H   0  0  0  0  0  0  0  0  0  0  0  0
    0.5147   -2.5781    5.6583 H   0  0  0  0  0  0  0  0  0  0  0  0
    2.3029   -4.2301    2.6231 H   0  0  0  0  0  0  0  0  0  0  0  0
    3.2858   -3.2368    1.5227 H   0  0  0  0  0  0  0  0  0  0  0  0
    2.3577   -5.2112    0.3393 H   0  0  0  0  0  0  0  0  0  0  0  0
    1.7528   -3.6956   -0.3354 H   0  0  0  0  0  0  0  0  0  0  0  0
    0.7152   -4.6746    0.7087 H   0  0  0  0  0  0  0  0  0  0  0  0
   -6.2606    3.9415    3.8194 H   0  0  0  0  0  0  0  0  0  0  0  0
   -7.4894    3.4511    4.9758 H   0  0  0  0  0  0  0  0  0  0  0  0
   -6.1105    1.5727    2.9899 H   0  0  0  0  0  0  0  0  0  0  0  0
   -7.7434    2.2194    2.8118 H   0  0  0  0  0  0  0  0  0  0  0  0
   -7.3710    1.1075    4.1316 H   0  0  0  0  0  0  0  0  0  0  0  0
   -5.5887    4.3085    7.6445 H   0  0  0  0  0  0  0  0  0  0  0  0
   -3.9503    3.6795    7.7278 H   0  0  0  0  0  0  0  0  0  0  0  0
   -4.9422    5.7585    5.7116 H   0  0  0  0  0  0  0  0  0  0  0  0
   -3.9170    6.0871    7.1087 H   0  0  0  0  0  0  0  0  0  0  0  0
   -3.3027    5.1108    5.7734 H   0  0  0  0  0  0  0  0  0  0  0  0
   -2.5155    3.1554    3.5652 H   0  0  0  0  0  0  0  0  0  0  0  0
   -7.1929    0.7917    7.9341 H   0  0  0  0  0  0  0  0  0  0  0  0
   -6.1192   -2.9503    8.5841 H   0  0  0  0  0  0  0  0  0  0  0  0
  -11.2769    0.1608   10.3655 H   0  0  0  0  0  0  0  0  0  0  0  0
  -10.0818   -4.4884   11.9769 H   0  0  0  0  0  0  0  0  0  0  0  0
  -12.6571   -3.2106   13.8326 H   0  0  0  0  0  0  0  0  0  0  0  0
  -13.6392   -4.9841   12.1048 H   0  0  0  0  0  0  0  0  0  0  0  0
  -15.6065   -4.1188   13.6165 H   0  0  0  0  0  0  0  0  0  0  0  0
  -16.2732   -1.6828   12.7924 H   0  0  0  0  0  0  0  0  0  0  0  0
  -14.7169   -1.0484   10.7727 H   0  0  0  0  0  0  0  0  0  0  0  0
  -13.2322   -3.1966   10.1404 H   0  0  0  0  0  0  0  0  0  0  0  0
  -14.9535   -3.6314   10.2472 H   0  0  0  0  0  0  0  0  0  0  0  0
  -13.3118   -0.8228   13.0264 H   0  0  0  0  0  0  0  0  0  0  0  0
  1  2  2  0  0  0  0
  2  3  1  0  0  0  0
  3  4  2  0  0  0  0
  3  5  1  0  0  0  0
  5  6  2  0  0  0  0
  6  7  1  0  0  0  0
  7  8  2  0  0  0  0
  8  9  1  0  0  0  0
  9 10  2  0  0  0  0
 10 11  1  0  0  0  0
 11 12  2  0  0  0  0
 12 13  1  0  0  0  0
 13 14  3  0  0  0  0
 12 15  1  0  0  0  0
 15 16  3  0  0  0  0
  8 17  1  0  0  0  0
 17 18  1  0  0  0  0
 18 19  1  0  0  0  0
 19 20  2  0  0  0  0
 20 21  1  0  0  0  0
 21 22  1  0  0  0  0
 21 23  1  0  0  0  0
  1 24  1  0  0  0  0
 24 25  2  0  0  0  0
 25 26  1  0  0  0  0
 26 27  1  0  0  0  0
 27 28  2  0  0  0  0
 28 29  1  0  0  0  0
 29 30  2  0  0  0  0
 30 31  1  0  0  0  0
 30 32  1  0  0  0  0
 32 33  2  0  0  0  0
 26 34  1  0  0  0  0
 34 35  2  0  0  0  0
 35 36  1  0  0  0  0
 36 37  2  0  0  0  0
 37 38  1  0  0  0  0
 37 39  1  0  0  0  0
 39 40  2  0  0  0  0
 25 41  1  0  0  0  0
 41 42  1  0  0  0  0
 42 43  1  0  0  0  0
 43 44  2  0  0  0  0
 44 45  1  0  0  0  0
 45 46  1  0  0  0  0
 46 47  2  0  0  0  0
 47 48  1  0  0  0  0
 48 49  2  0  0  0  0
 49 50  1  0  0  0  0
 49 51  1  0  0  0  0
 51 52  2  0  0  0  0
 45 53  1  0  0  0  0
 53 54  2  0  0  0  0
 54 55  1  0  0  0  0
 55 56  2  0  0  0  0
 56 57  1  0  0  0  0
 56 58  1  0  0  0  0
 58 59  2  0  0  0  0
 44 60  1  0  0  0  0
 60 61  1  0  0  0  0
 43 62  1  0  0  0  0
 62 63  2  0  0  0  0
 63 64  1  0  0  0  0
 63 65  1  0  0  0  0
 65 66  1  0  0  0  0
 65 67  2  0  0  0  0
 67 68  1  0  0  0  0
 68 69  2  0  0  0  0
 69 70  1  0  0  0  0
 70 71  1  0  0  0  0
 71 72  1  0  0  0  0
 70 73  2  0  0  0  0
 73 74  1  0  0  0  0
 74 75  2  0  0  0  0
 73 76  1  0  0  0  0
 76 77  1  0  0  0  0
 67 78  1  0  0  0  0
 78 79  1  0  0  0  0
 79 80  1  0  0  0  0
 80 81  1  0  0  0  0
 81 82  2  0  0  0  0
 82 83  1  0  0  0  0
 83 84  1  0  0  0  0
 84 85  1  0  0  0  0
 83 86  1  0  0  0  0
 86 87  1  0  0  0  0
 83 88  1  0  0  0  0
 88 89  1  0  0  0  0
 82 90  1  0  0  0  0
 90 91  2  0  0  0  0
 91 92  1  0  0  0  0
 91 93  1  0  0  0  0
 93 94  2  0  0  0  0
 94 95  1  0  0  0  0
 95 96  2  0  0  0  0
 95 97  1  0  0  0  0
 97 98  2  0  0  0  0
 98 99  1  0  0  0  0
 99100  2  0  0  0  0
100101  1  0  0  0  0
101102  2  0  0  0  0
102103  1  0  0  0  0
103104  2  0  0  0  0
104105  1  0  0  0  0
105106  3  0  0  0  0
104107  1  0  0  0  0
107108  3  0  0  0  0
100109  1  0  0  0  0
109110  1  0  0  0  0
110111  1  0  0  0  0
111112  2  0  0  0  0
112113  1  0  0  0  0
113114  1  0  0  0  0
113115  1  0  0  0  0
 11  2  1  0  0  0  0
 23 17  1  0  0  0  0
 61 24  1  0  0  0  0
 75 62  1  0  0  0  0
 89 78  2  0  0  0  0
103 94  1  0  0  0  0
115109  1  0  0  0  0
 10  5  1  0  0  0  0
 22 18  1  0  0  0  0
 33 27  1  0  0  0  0
 40 34  1  0  0  0  0
 60 41  2  0  0  0  0
 75 68  1  0  0  0  0
 88 80  2  0  0  0  0
102 97  1  0  0  0  0
114110  1  0  0  0  0
 23  7  1  0  0  0  0
 52 46  1  0  0  0  0
 59 53  1  0  0  0  0
 92 81  1  0  0  0  0
115 99  1  0  0  0  0
  1116  1  0  0  0  0
  6117  1  0  0  0  0
  9118  1  0  0  0  0
 17119  1  0  0  0  0
 18120  1  0  0  0  0
 19121  1  0  0  0  0
 20122  1  0  0  0  0
 21123  1  0  0  0  0
 22124  1  0  0  0  0
 22125  1  0  0  0  0
 23126  1  0  0  0  0
 28127  1  0  0  0  0
 29128  1  0  0  0  0
 31129  1  0  0  0  0
 31130  1  0  0  0  0
 31131  1  0  0  0  0
 32132  1  0  0  0  0
 33133  1  0  0  0  0
 35134  1  0  0  0  0
 36135  1  0  0  0  0
 38136  1  0  0  0  0
 38137  1  0  0  0  0
 38138  1  0  0  0  0
 39139  1  0  0  0  0
 40140  1  0  0  0  0
 47141  1  0  0  0  0
 48142  1  0  0  0  0
 50143  1  0  0  0  0
 50144  1  0  0  0  0
 50145  1  0  0  0  0
 51146  1  0  0  0  0
 52147  1  0  0  0  0
 54148  1  0  0  0  0
 55149  1  0  0  0  0
 57150  1  0  0  0  0
 57151  1  0  0  0  0
 57152  1  0  0  0  0
 58153  1  0  0  0  0
 59154  1  0  0  0  0
 71155  1  0  0  0  0
 71156  1  0  0  0  0
 72157  1  0  0  0  0
 72158  1  0  0  0  0
 72159  1  0  0  0  0
 76160  1  0  0  0  0
 76161  1  0  0  0  0
 77162  1  0  0  0  0
 77163  1  0  0  0  0
 77164  1  0  0  0  0
 84165  1  0  0  0  0
 84166  1  0  0  0  0
 85167  1  0  0  0  0
 85168  1  0  0  0  0
 85169  1  0  0  0  0
 86170  1  0  0  0  0
 86171  1  0  0  0  0
 87172  1  0  0  0  0
 87173  1  0  0  0  0
 87174  1  0  0  0  0
 89175  1  0  0  0  0
 90176  1  0  0  0  0
 93177  1  0  0  0  0
 98178  1  0  0  0  0
101179  1  0  0  0  0
109180  1  0  0  0  0
110181  1  0  0  0  0
111182  1  0  0  0  0
112183  1  0  0  0  0
113184  1  0  0  0  0
114185  1  0  0  0  0
114186  1  0  0  0  0
115187  1  0  0  0  0
M  END
