
  xtb     02172220203D
 energy: -374.524910135771 gnorm: 0.000436149006 xtb: 6.4.1 (unknown)
230253  0     0  0            999 V2000
    2.3035   -3.4926   -6.6717 C   0  0  0  0  0  0  0  0  0  0  0  0
    2.0482   -3.3688   -8.0162 C   0  0  0  0  0  0  0  0  0  0  0  0
    0.8311   -2.8216   -8.6204 C   0  0  0  0  0  0  0  0  0  0  0  0
   -0.2380   -2.6061   -8.0757 O   0  0  0  0  0  0  0  0  0  0  0  0
    1.1560   -2.5739  -10.0382 C   0  0  0  0  0  0  0  0  0  0  0  0
    0.3332   -1.9956  -11.0015 C   0  0  0  0  0  0  0  0  0  0  0  0
    0.9260   -1.8590  -12.2343 C   0  0  0  0  0  0  0  0  0  0  0  0
    2.2399   -2.2696  -12.4915 C   0  0  0  0  0  0  0  0  0  0  0  0
    3.0609   -2.8469  -11.5513 C   0  0  0  0  0  0  0  0  0  0  0  0
    2.4783   -2.9928  -10.2894 C   0  0  0  0  0  0  0  0  0  0  0  0
    3.0320   -3.5504   -9.0559 C   0  0  0  0  0  0  0  0  0  0  0  0
    4.2715   -4.1306   -8.9261 C   0  0  0  0  0  0  0  0  0  0  0  0
    4.7363   -4.8024   -7.7795 C   0  0  0  0  0  0  0  0  0  0  0  0
    5.1777   -5.4025   -6.9033 N   0  0  0  0  0  0  0  0  0  0  0  0
    5.2515   -4.1596   -9.9362 C   0  0  0  0  0  0  0  0  0  0  0  0
    6.1131   -4.1934  -10.6960 N   0  0  0  0  0  0  0  0  0  0  0  0
    2.1835   -1.8230  -13.9316 C   0  0  0  0  0  0  0  0  0  0  0  0
    1.9968   -2.9275  -14.9929 C   0  0  0  0  0  0  0  0  0  0  0  0
    1.5029   -2.1793  -16.2100 C   0  0  0  0  0  0  0  0  0  0  0  0
    0.2576   -1.7910  -15.9671 C   0  0  0  0  0  0  0  0  0  0  0  0
   -0.1113   -2.2705  -14.5817 C   0  0  0  0  0  0  0  0  0  0  0  0
    0.6864   -3.5801  -14.5342 C   0  0  0  0  0  0  0  0  0  0  0  0
    0.7171   -1.3660  -13.6452 C   0  0  0  0  0  0  0  0  0  0  0  0
    1.5279   -3.1463   -5.5652 C   0  0  0  0  0  0  0  0  0  0  0  0
    2.0591   -3.0736   -4.2541 C   0  0  0  0  0  0  0  0  0  0  0  0
    3.3808   -3.1962   -3.9128 N   0  0  0  0  0  0  0  0  0  0  0  0
    4.4291   -2.7203   -4.7212 C   0  0  0  0  0  0  0  0  0  0  0  0
    4.2759   -1.5671   -5.4884 C   0  0  0  0  0  0  0  0  0  0  0  0
    5.2949   -1.1514   -6.3205 C   0  0  0  0  0  0  0  0  0  0  0  0
    6.4957   -1.8498   -6.3922 C   0  0  0  0  0  0  0  0  0  0  0  0
    7.5779   -1.4303   -7.3379 C   0  0  0  0  0  0  0  0  0  0  0  0
    6.6589   -2.9647   -5.5794 C   0  0  0  0  0  0  0  0  0  0  0  0
    5.6411   -3.4041   -4.7558 C   0  0  0  0  0  0  0  0  0  0  0  0
    3.7015   -3.7135   -2.6399 C   0  0  0  0  0  0  0  0  0  0  0  0
    3.1690   -4.9320   -2.2336 C   0  0  0  0  0  0  0  0  0  0  0  0
    3.5187   -5.4616   -1.0065 C   0  0  0  0  0  0  0  0  0  0  0  0
    4.3781   -4.7832   -0.1505 C   0  0  0  0  0  0  0  0  0  0  0  0
    4.7684   -5.3746    1.1679 C   0  0  0  0  0  0  0  0  0  0  0  0
    4.8925   -3.5591   -0.5619 C   0  0  0  0  0  0  0  0  0  0  0  0
    4.5710   -3.0303   -1.7957 C   0  0  0  0  0  0  0  0  0  0  0  0
    1.0516   -2.7706   -3.3246 C   0  0  0  0  0  0  0  0  0  0  0  0
    1.0545   -2.4205   -1.6312 S   0  0  0  0  0  0  0  0  0  0  0  0
   -0.6531   -1.9520   -1.6992 C   0  0  0  0  0  0  0  0  0  0  0  0
   -1.1678   -2.0660   -2.9820 C   0  0  0  0  0  0  0  0  0  0  0  0
   -2.4746   -1.8149   -3.3758 N   0  0  0  0  0  0  0  0  0  0  0  0
   -3.0567   -0.5562   -3.1877 C   0  0  0  0  0  0  0  0  0  0  0  0
   -4.4270   -0.4498   -2.9622 C   0  0  0  0  0  0  0  0  0  0  0  0
   -5.0066    0.7918   -2.8012 C   0  0  0  0  0  0  0  0  0  0  0  0
   -4.2464    1.9547   -2.8594 C   0  0  0  0  0  0  0  0  0  0  0  0
   -4.8799    3.3009   -2.6915 C   0  0  0  0  0  0  0  0  0  0  0  0
   -2.8785    1.8410   -3.0743 C   0  0  0  0  0  0  0  0  0  0  0  0
   -2.2856    0.6046   -3.2408 C   0  0  0  0  0  0  0  0  0  0  0  0
   -3.0638   -2.7512   -4.2415 C   0  0  0  0  0  0  0  0  0  0  0  0
   -2.8448   -4.1096   -4.0263 C   0  0  0  0  0  0  0  0  0  0  0  0
   -3.3995   -5.0479   -4.8724 C   0  0  0  0  0  0  0  0  0  0  0  0
   -4.1864   -4.6623   -5.9499 C   0  0  0  0  0  0  0  0  0  0  0  0
   -4.7658   -5.6811   -6.8829 C   0  0  0  0  0  0  0  0  0  0  0  0
   -4.4016   -3.3047   -6.1563 C   0  0  0  0  0  0  0  0  0  0  0  0
   -3.8496   -2.3557   -5.3200 C   0  0  0  0  0  0  0  0  0  0  0  0
   -0.1958   -2.5567   -3.8910 C   0  0  0  0  0  0  0  0  0  0  0  0
   -0.1937   -2.7508   -5.6083 S   0  0  0  0  0  0  0  0  0  0  0  0
   -1.1921   -1.4528   -0.4763 C   0  0  0  0  0  0  0  0  0  0  0  0
   -0.8072   -1.9136    0.7830 C   0  0  0  0  0  0  0  0  0  0  0  0
   -0.1985   -3.1469    0.9754 N   0  0  0  0  0  0  0  0  0  0  0  0
   -0.6838   -4.2434    0.2495 C   0  0  0  0  0  0  0  0  0  0  0  0
    0.1915   -5.1987   -0.2584 C   0  0  0  0  0  0  0  0  0  0  0  0
   -0.2743   -6.2467   -1.0271 C   0  0  0  0  0  0  0  0  0  0  0  0
   -1.6298   -6.3573   -1.3044 C   0  0  0  0  0  0  0  0  0  0  0  0
   -2.3257   -7.6446   -2.2963 S   0  0  0  0  0  0  0  0  0  0  0  0
   -0.9016   -8.2464   -3.2515 C   0  0  0  0  0  0  0  0  0  0  0  0
   -2.5142   -5.4192   -0.7757 C   0  0  0  0  0  0  0  0  0  0  0  0
   -2.0488   -4.3743   -0.0089 C   0  0  0  0  0  0  0  0  0  0  0  0
    0.8738   -3.2716    1.8583 C   0  0  0  0  0  0  0  0  0  0  0  0
    1.7618   -2.2115    2.0434 C   0  0  0  0  0  0  0  0  0  0  0  0
    2.8218   -2.3365    2.9118 C   0  0  0  0  0  0  0  0  0  0  0  0
    3.0285   -3.5239    3.6097 C   0  0  0  0  0  0  0  0  0  0  0  0
    4.4350   -3.5717    4.6795 S   0  0  0  0  0  0  0  0  0  0  0  0
    4.4228   -5.2605    5.3472 C   0  0  0  0  0  0  0  0  0  0  0  0
    2.1462   -4.5804    3.4327 C   0  0  0  0  0  0  0  0  0  0  0  0
    1.0757   -4.4507    2.5706 C   0  0  0  0  0  0  0  0  0  0  0  0
   -1.1771   -1.0173    1.8048 C   0  0  0  0  0  0  0  0  0  0  0  0
   -0.9514   -0.9201    3.5217 S   0  0  0  0  0  0  0  0  0  0  0  0
   -1.7296    0.6562    3.5559 C   0  0  0  0  0  0  0  0  0  0  0  0
   -2.2461    1.0095    2.3158 C   0  0  0  0  0  0  0  0  0  0  0  0
   -3.1022    2.0934    2.0442 N   0  0  0  0  0  0  0  0  0  0  0  0
   -4.4664    1.7982    2.2836 C   0  0  0  0  0  0  0  0  0  0  0  0
   -5.3560    1.6738    1.2201 C   0  0  0  0  0  0  0  0  0  0  0  0
   -6.6848    1.3692    1.4418 C   0  0  0  0  0  0  0  0  0  0  0  0
   -7.1432    1.1653    2.7365 C   0  0  0  0  0  0  0  0  0  0  0  0
   -8.8156    0.7760    3.1502 S   0  0  0  0  0  0  0  0  0  0  0  0
   -9.6799    0.8001    1.5536 C   0  0  0  0  0  0  0  0  0  0  0  0
   -6.2485    1.2555    3.8000 C   0  0  0  0  0  0  0  0  0  0  0  0
   -4.9240    1.5662    3.5775 C   0  0  0  0  0  0  0  0  0  0  0  0
   -2.7406    3.0470    1.1000 C   0  0  0  0  0  0  0  0  0  0  0  0
   -3.6077    4.0992    0.8050 C   0  0  0  0  0  0  0  0  0  0  0  0
   -3.2669    5.0672   -0.1186 C   0  0  0  0  0  0  0  0  0  0  0  0
   -2.0411    5.0121   -0.7660 C   0  0  0  0  0  0  0  0  0  0  0  0
   -1.5405    6.1409   -2.0344 S   0  0  0  0  0  0  0  0  0  0  0  0
   -2.7159    7.5153   -1.8695 C   0  0  0  0  0  0  0  0  0  0  0  0
   -1.1432    4.0057   -0.4271 C   0  0  0  0  0  0  0  0  0  0  0  0
   -1.4788    3.0461    0.5014 C   0  0  0  0  0  0  0  0  0  0  0  0
   -1.9069    0.0645    1.3320 C   0  0  0  0  0  0  0  0  0  0  0  0
   -2.1820   -0.0072   -0.3751 S   0  0  0  0  0  0  0  0  0  0  0  0
   -1.6587    1.4096    4.7732 C   0  0  0  0  0  0  0  0  0  0  0  0
   -1.7560    2.7929    4.8759 C   0  0  0  0  0  0  0  0  0  0  0  0
   -1.9671    3.5682    3.8018 F   0  0  0  0  0  0  0  0  0  0  0  0
   -1.5705    3.4673    6.0851 C   0  0  0  0  0  0  0  0  0  0  0  0
   -1.6804    4.8094    6.0538 F   0  0  0  0  0  0  0  0  0  0  0  0
   -1.2989    2.8253    7.2817 C   0  0  0  0  0  0  0  0  0  0  0  0
   -1.2363    1.4053    7.2271 C   0  0  0  0  0  0  0  0  0  0  0  0
   -1.0144    0.7099    8.3518 N   0  0  0  0  0  0  0  0  0  0  0  0
   -0.8428   -0.5888    8.2909 C   0  0  0  0  0  0  0  0  0  0  0  0
   -0.6227   -1.2733    9.6056 C   0  0  0  0  0  0  0  0  0  0  0  0
    0.8679   -1.4973    9.8686 C   0  0  0  0  0  0  0  0  0  0  0  0
   -0.8638   -1.2623    7.0372 C   0  0  0  0  0  0  0  0  0  0  0  0
   -1.1538   -0.5933    5.9472 N   0  0  0  0  0  0  0  0  0  0  0  0
   -1.3544    0.7267    5.9916 C   0  0  0  0  0  0  0  0  0  0  0  0
   -0.5607   -2.7157    6.8480 C   0  0  0  0  0  0  0  0  0  0  0  0
    0.8254   -2.8845    6.2214 C   0  0  0  0  0  0  0  0  0  0  0  0
   -1.0783    3.5019    8.5318 C   0  0  0  0  0  0  0  0  0  0  0  0
   -0.4507    4.6791    8.7440 C   0  0  0  0  0  0  0  0  0  0  0  0
   -0.6142    5.3980   10.0438 C   0  0  0  0  0  0  0  0  0  0  0  0
   -1.0650    4.9402   11.0677 O   0  0  0  0  0  0  0  0  0  0  0  0
   -0.1622    6.7768    9.7836 C   0  0  0  0  0  0  0  0  0  0  0  0
   -0.2401    7.8686   10.6468 C   0  0  0  0  0  0  0  0  0  0  0  0
    0.2411    9.0403   10.1145 C   0  0  0  0  0  0  0  0  0  0  0  0
    0.7445    9.1313    8.8088 C   0  0  0  0  0  0  0  0  0  0  0  0
    0.8309    8.0654    7.9465 C   0  0  0  0  0  0  0  0  0  0  0  0
    0.3691    6.8587    8.4781 C   0  0  0  0  0  0  0  0  0  0  0  0
    0.3523    5.5283    7.8816 C   0  0  0  0  0  0  0  0  0  0  0  0
    1.1454    5.1143    6.8464 C   0  0  0  0  0  0  0  0  0  0  0  0
    2.0023    5.9678    6.1193 C   0  0  0  0  0  0  0  0  0  0  0  0
    2.7209    6.6118    5.4980 N   0  0  0  0  0  0  0  0  0  0  0  0
    1.2838    3.7718    6.4395 C   0  0  0  0  0  0  0  0  0  0  0  0
    1.4715    2.6942    6.0898 N   0  0  0  0  0  0  0  0  0  0  0  0
    1.0385   10.6042    8.9390 C   0  0  0  0  0  0  0  0  0  0  0  0
    2.5134   11.0241    9.1543 C   0  0  0  0  0  0  0  0  0  0  0  0
    3.1977    9.8550    9.8186 C   0  0  0  0  0  0  0  0  0  0  0  0
    2.7329    9.7653   11.0575 C   0  0  0  0  0  0  0  0  0  0  0  0
    1.7256   10.8715   11.2533 C   0  0  0  0  0  0  0  0  0  0  0  0
    2.3432   11.9603   10.3612 C   0  0  0  0  0  0  0  0  0  0  0  0
    0.4888   10.5011   10.3967 C   0  0  0  0  0  0  0  0  0  0  0  0
    3.2928   -3.8477   -6.4143 H   0  0  0  0  0  0  0  0  0  0  0  0
   -0.6718   -1.6874  -10.7587 H   0  0  0  0  0  0  0  0  0  0  0  0
    4.0720   -3.1527  -11.7627 H   0  0  0  0  0  0  0  0  0  0  0  0
    2.9152   -1.0719  -14.2236 H   0  0  0  0  0  0  0  0  0  0  0  0
    2.8580   -3.5753  -15.1322 H   0  0  0  0  0  0  0  0  0  0  0  0
    2.1094   -1.9671  -17.0709 H   0  0  0  0  0  0  0  0  0  0  0  0
   -0.3838   -1.1898  -16.5846 H   0  0  0  0  0  0  0  0  0  0  0  0
   -1.1714   -2.3204  -14.3474 H   0  0  0  0  0  0  0  0  0  0  0  0
    0.3184   -4.3127  -15.2507 H   0  0  0  0  0  0  0  0  0  0  0  0
    0.7386   -4.0315  -13.5452 H   0  0  0  0  0  0  0  0  0  0  0  0
    0.4722   -0.3102  -13.7472 H   0  0  0  0  0  0  0  0  0  0  0  0
    3.3511   -1.0108   -5.4419 H   0  0  0  0  0  0  0  0  0  0  0  0
    5.1561   -0.2649   -6.9227 H   0  0  0  0  0  0  0  0  0  0  0  0
    7.4520   -0.3939   -7.6415 H   0  0  0  0  0  0  0  0  0  0  0  0
    7.5490   -2.0535   -8.2329 H   0  0  0  0  0  0  0  0  0  0  0  0
    8.5581   -1.5502   -6.8819 H   0  0  0  0  0  0  0  0  0  0  0  0
    7.5867   -3.5153   -5.6107 H   0  0  0  0  0  0  0  0  0  0  0  0
    5.7719   -4.2900   -4.1543 H   0  0  0  0  0  0  0  0  0  0  0  0
    2.4973   -5.4631   -2.8925 H   0  0  0  0  0  0  0  0  0  0  0  0
    3.1312   -6.4271   -0.7130 H   0  0  0  0  0  0  0  0  0  0  0  0
    5.0215   -4.5930    1.8795 H   0  0  0  0  0  0  0  0  0  0  0  0
    5.6418   -6.0162    1.0434 H   0  0  0  0  0  0  0  0  0  0  0  0
    3.9594   -5.9780    1.5746 H   0  0  0  0  0  0  0  0  0  0  0  0
    5.5558   -3.0149    0.0940 H   0  0  0  0  0  0  0  0  0  0  0  0
    4.9851   -2.0849   -2.1131 H   0  0  0  0  0  0  0  0  0  0  0  0
   -5.0272   -1.3466   -2.9182 H   0  0  0  0  0  0  0  0  0  0  0  0
   -6.0718    0.8592   -2.6293 H   0  0  0  0  0  0  0  0  0  0  0  0
   -4.6741    3.6886   -1.6935 H   0  0  0  0  0  0  0  0  0  0  0  0
   -5.9579    3.2455   -2.8262 H   0  0  0  0  0  0  0  0  0  0  0  0
   -4.4690    4.0070   -3.4104 H   0  0  0  0  0  0  0  0  0  0  0  0
   -2.2719    2.7336   -3.1181 H   0  0  0  0  0  0  0  0  0  0  0  0
   -1.2236    0.5300   -3.4241 H   0  0  0  0  0  0  0  0  0  0  0  0
   -2.2423   -4.4224   -3.1861 H   0  0  0  0  0  0  0  0  0  0  0  0
   -3.2266   -6.0973   -4.6834 H   0  0  0  0  0  0  0  0  0  0  0  0
   -5.7450   -5.3691   -7.2398 H   0  0  0  0  0  0  0  0  0  0  0  0
   -4.1156   -5.8012   -7.7503 H   0  0  0  0  0  0  0  0  0  0  0  0
   -4.8591   -6.6474   -6.3928 H   0  0  0  0  0  0  0  0  0  0  0  0
   -5.0029   -2.9835   -6.9947 H   0  0  0  0  0  0  0  0  0  0  0  0
   -4.0135   -1.3049   -5.5062 H   0  0  0  0  0  0  0  0  0  0  0  0
    1.2478   -5.0989   -0.0643 H   0  0  0  0  0  0  0  0  0  0  0  0
    0.4312   -6.9655   -1.4125 H   0  0  0  0  0  0  0  0  0  0  0  0
   -0.3921   -7.4048   -3.7116 H   0  0  0  0  0  0  0  0  0  0  0  0
   -1.3134   -8.8949   -4.0186 H   0  0  0  0  0  0  0  0  0  0  0  0
   -0.2298   -8.8163   -2.6160 H   0  0  0  0  0  0  0  0  0  0  0  0
   -3.5691   -5.5176   -0.9813 H   0  0  0  0  0  0  0  0  0  0  0  0
   -2.7424   -3.6478    0.3870 H   0  0  0  0  0  0  0  0  0  0  0  0
    1.6234   -1.2961    1.4892 H   0  0  0  0  0  0  0  0  0  0  0  0
    3.5090   -1.5169    3.0541 H   0  0  0  0  0  0  0  0  0  0  0  0
    3.5269   -5.4220    5.9395 H   0  0  0  0  0  0  0  0  0  0  0  0
    4.4988   -5.9815    4.5385 H   0  0  0  0  0  0  0  0  0  0  0  0
    5.2998   -5.3281    5.9833 H   0  0  0  0  0  0  0  0  0  0  0  0
    2.2733   -5.5090    3.9660 H   0  0  0  0  0  0  0  0  0  0  0  0
    0.3854   -5.2724    2.4499 H   0  0  0  0  0  0  0  0  0  0  0  0
   -4.9990    1.8073    0.2091 H   0  0  0  0  0  0  0  0  0  0  0  0
   -7.3452    1.2813    0.5943 H   0  0  0  0  0  0  0  0  0  0  0  0
  -10.7210    0.5956    1.7833 H   0  0  0  0  0  0  0  0  0  0  0  0
   -9.2868    0.0230    0.9045 H   0  0  0  0  0  0  0  0  0  0  0  0
   -9.5890    1.7817    1.0977 H   0  0  0  0  0  0  0  0  0  0  0  0
   -6.6071    1.0837    4.8034 H   0  0  0  0  0  0  0  0  0  0  0  0
   -4.2422    1.6308    4.4111 H   0  0  0  0  0  0  0  0  0  0  0  0
   -4.5599    4.1649    1.3095 H   0  0  0  0  0  0  0  0  0  0  0  0
   -3.9696    5.8603   -0.3215 H   0  0  0  0  0  0  0  0  0  0  0  0
   -2.3457    8.2996   -2.5224 H   0  0  0  0  0  0  0  0  0  0  0  0
   -3.7064    7.2069   -2.1922 H   0  0  0  0  0  0  0  0  0  0  0  0
   -2.7269    7.8628   -0.8407 H   0  0  0  0  0  0  0  0  0  0  0  0
   -0.1731    3.9849   -0.8996 H   0  0  0  0  0  0  0  0  0  0  0  0
   -0.7481    2.3002    0.7703 H   0  0  0  0  0  0  0  0  0  0  0  0
   -1.1550   -2.2255    9.6339 H   0  0  0  0  0  0  0  0  0  0  0  0
   -1.0248   -0.6234   10.3837 H   0  0  0  0  0  0  0  0  0  0  0  0
    1.2983   -2.1746    9.1361 H   0  0  0  0  0  0  0  0  0  0  0  0
    1.0091   -1.9234   10.8588 H   0  0  0  0  0  0  0  0  0  0  0  0
    1.3992   -0.5502    9.8189 H   0  0  0  0  0  0  0  0  0  0  0  0
   -0.6129   -3.2524    7.7942 H   0  0  0  0  0  0  0  0  0  0  0  0
   -1.3005   -3.1306    6.1613 H   0  0  0  0  0  0  0  0  0  0  0  0
    1.0378   -3.9402    6.0741 H   0  0  0  0  0  0  0  0  0  0  0  0
    0.8583   -2.3858    5.2569 H   0  0  0  0  0  0  0  0  0  0  0  0
    1.5980   -2.4562    6.8558 H   0  0  0  0  0  0  0  0  0  0  0  0
   -1.4836    3.0041    9.4058 H   0  0  0  0  0  0  0  0  0  0  0  0
   -0.6471    7.7619   11.6401 H   0  0  0  0  0  0  0  0  0  0  0  0
    1.2078    8.1464    6.9403 H   0  0  0  0  0  0  0  0  0  0  0  0
    0.5170   11.2579    8.2426 H   0  0  0  0  0  0  0  0  0  0  0  0
    3.0016   11.4271    8.2711 H   0  0  0  0  0  0  0  0  0  0  0  0
    3.8842    9.1993    9.3158 H   0  0  0  0  0  0  0  0  0  0  0  0
    2.9541    9.0191   11.7981 H   0  0  0  0  0  0  0  0  0  0  0  0
    1.4981   11.1371   12.2823 H   0  0  0  0  0  0  0  0  0  0  0  0
    1.6728   12.7972   10.1703 H   0  0  0  0  0  0  0  0  0  0  0  0
    3.2931   12.3299   10.7445 H   0  0  0  0  0  0  0  0  0  0  0  0
   -0.3868   11.0933   10.6559 H   0  0  0  0  0  0  0  0  0  0  0  0
  1  2  2  0  0  0  0
  2  3  1  0  0  0  0
  3  4  2  0  0  0  0
  3  5  1  0  0  0  0
  5  6  2  0  0  0  0
  6  7  1  0  0  0  0
  7  8  2  0  0  0  0
  8  9  1  0  0  0  0
  9 10  2  0  0  0  0
 10 11  1  0  0  0  0
 11 12  2  0  0  0  0
 12 13  1  0  0  0  0
 13 14  3  0  0  0  0
 12 15  1  0  0  0  0
 15 16  3  0  0  0  0
  8 17  1  0  0  0  0
 17 18  1  0  0  0  0
 18 19  1  0  0  0  0
 19 20  2  0  0  0  0
 20 21  1  0  0  0  0
 21 22  1  0  0  0  0
 21 23  1  0  0  0  0
  1 24  1  0  0  0  0
 24 25  2  0  0  0  0
 25 26  1  0  0  0  0
 26 27  1  0  0  0  0
 27 28  2  0  0  0  0
 28 29  1  0  0  0  0
 29 30  2  0  0  0  0
 30 31  1  0  0  0  0
 30 32  1  0  0  0  0
 32 33  2  0  0  0  0
 26 34  1  0  0  0  0
 34 35  2  0  0  0  0
 35 36  1  0  0  0  0
 36 37  2  0  0  0  0
 37 38  1  0  0  0  0
 37 39  1  0  0  0  0
 39 40  2  0  0  0  0
 25 41  1  0  0  0  0
 41 42  1  0  0  0  0
 42 43  1  0  0  0  0
 43 44  2  0  0  0  0
 44 45  1  0  0  0  0
 45 46  1  0  0  0  0
 46 47  2  0  0  0  0
 47 48  1  0  0  0  0
 48 49  2  0  0  0  0
 49 50  1  0  0  0  0
 49 51  1  0  0  0  0
 51 52  2  0  0  0  0
 45 53  1  0  0  0  0
 53 54  2  0  0  0  0
 54 55  1  0  0  0  0
 55 56  2  0  0  0  0
 56 57  1  0  0  0  0
 56 58  1  0  0  0  0
 58 59  2  0  0  0  0
 44 60  1  0  0  0  0
 60 61  1  0  0  0  0
 43 62  1  0  0  0  0
 62 63  2  0  0  0  0
 63 64  1  0  0  0  0
 64 65  1  0  0  0  0
 65 66  2  0  0  0  0
 66 67  1  0  0  0  0
 67 68  2  0  0  0  0
 68 69  1  0  0  0  0
 69 70  1  0  0  0  0
 68 71  1  0  0  0  0
 71 72  2  0  0  0  0
 64 73  1  0  0  0  0
 73 74  2  0  0  0  0
 74 75  1  0  0  0  0
 75 76  2  0  0  0  0
 76 77  1  0  0  0  0
 77 78  1  0  0  0  0
 76 79  1  0  0  0  0
 79 80  2  0  0  0  0
 63 81  1  0  0  0  0
 81 82  1  0  0  0  0
 82 83  1  0  0  0  0
 83 84  2  0  0  0  0
 84 85  1  0  0  0  0
 85 86  1  0  0  0  0
 86 87  2  0  0  0  0
 87 88  1  0  0  0  0
 88 89  2  0  0  0  0
 89 90  1  0  0  0  0
 90 91  1  0  0  0  0
 89 92  1  0  0  0  0
 92 93  2  0  0  0  0
 85 94  1  0  0  0  0
 94 95  2  0  0  0  0
 95 96  1  0  0  0  0
 96 97  2  0  0  0  0
 97 98  1  0  0  0  0
 98 99  1  0  0  0  0
 97100  1  0  0  0  0
100101  2  0  0  0  0
 84102  1  0  0  0  0
102103  1  0  0  0  0
 83104  1  0  0  0  0
104105  2  0  0  0  0
105106  1  0  0  0  0
105107  1  0  0  0  0
107108  1  0  0  0  0
107109  2  0  0  0  0
109110  1  0  0  0  0
110111  2  0  0  0  0
111112  1  0  0  0  0
112113  1  0  0  0  0
113114  1  0  0  0  0
112115  2  0  0  0  0
115116  1  0  0  0  0
116117  2  0  0  0  0
115118  1  0  0  0  0
118119  1  0  0  0  0
109120  1  0  0  0  0
120121  2  0  0  0  0
121122  1  0  0  0  0
122123  2  0  0  0  0
122124  1  0  0  0  0
124125  2  0  0  0  0
125126  1  0  0  0  0
126127  2  0  0  0  0
127128  1  0  0  0  0
128129  2  0  0  0  0
129130  1  0  0  0  0
130131  2  0  0  0  0
131132  1  0  0  0  0
132133  3  0  0  0  0
131134  1  0  0  0  0
134135  3  0  0  0  0
127136  1  0  0  0  0
136137  1  0  0  0  0
137138  1  0  0  0  0
138139  2  0  0  0  0
139140  1  0  0  0  0
140141  1  0  0  0  0
140142  1  0  0  0  0
 11  2  1  0  0  0  0
 23 17  1  0  0  0  0
 61 24  1  0  0  0  0
103 62  1  0  0  0  0
117104  1  0  0  0  0
130121  1  0  0  0  0
142136  1  0  0  0  0
 10  5  1  0  0  0  0
 22 18  1  0  0  0  0
 33 27  1  0  0  0  0
 40 34  1  0  0  0  0
 60 41  2  0  0  0  0
 72 65  1  0  0  0  0
 80 73  1  0  0  0  0
102 81  2  0  0  0  0
117110  1  0  0  0  0
129124  1  0  0  0  0
141137  1  0  0  0  0
 23  7  1  0  0  0  0
 52 46  1  0  0  0  0
 59 53  1  0  0  0  0
 93 86  1  0  0  0  0
101 94  1  0  0  0  0
142126  1  0  0  0  0
  1143  1  0  0  0  0
  6144  1  0  0  0  0
  9145  1  0  0  0  0
 17146  1  0  0  0  0
 18147  1  0  0  0  0
 19148  1  0  0  0  0
 20149  1  0  0  0  0
 21150  1  0  0  0  0
 22151  1  0  0  0  0
 22152  1  0  0  0  0
 23153  1  0  0  0  0
 28154  1  0  0  0  0
 29155  1  0  0  0  0
 31156  1  0  0  0  0
 31157  1  0  0  0  0
 31158  1  0  0  0  0
 32159  1  0  0  0  0
 33160  1  0  0  0  0
 35161  1  0  0  0  0
 36162  1  0  0  0  0
 38163  1  0  0  0  0
 38164  1  0  0  0  0
 38165  1  0  0  0  0
 39166  1  0  0  0  0
 40167  1  0  0  0  0
 47168  1  0  0  0  0
 48169  1  0  0  0  0
 50170  1  0  0  0  0
 50171  1  0  0  0  0
 50172  1  0  0  0  0
 51173  1  0  0  0  0
 52174  1  0  0  0  0
 54175  1  0  0  0  0
 55176  1  0  0  0  0
 57177  1  0  0  0  0
 57178  1  0  0  0  0
 57179  1  0  0  0  0
 58180  1  0  0  0  0
 59181  1  0  0  0  0
 66182  1  0  0  0  0
 67183  1  0  0  0  0
 70184  1  0  0  0  0
 70185  1  0  0  0  0
 70186  1  0  0  0  0
 71187  1  0  0  0  0
 72188  1  0  0  0  0
 74189  1  0  0  0  0
 75190  1  0  0  0  0
 78191  1  0  0  0  0
 78192  1  0  0  0  0
 78193  1  0  0  0  0
 79194  1  0  0  0  0
 80195  1  0  0  0  0
 87196  1  0  0  0  0
 88197  1  0  0  0  0
 91198  1  0  0  0  0
 91199  1  0  0  0  0
 91200  1  0  0  0  0
 92201  1  0  0  0  0
 93202  1  0  0  0  0
 95203  1  0  0  0  0
 96204  1  0  0  0  0
 99205  1  0  0  0  0
 99206  1  0  0  0  0
 99207  1  0  0  0  0
100208  1  0  0  0  0
101209  1  0  0  0  0
113210  1  0  0  0  0
113211  1  0  0  0  0
114212  1  0  0  0  0
114213  1  0  0  0  0
114214  1  0  0  0  0
118215  1  0  0  0  0
118216  1  0  0  0  0
119217  1  0  0  0  0
119218  1  0  0  0  0
119219  1  0  0  0  0
120220  1  0  0  0  0
125221  1  0  0  0  0
128222  1  0  0  0  0
136223  1  0  0  0  0
137224  1  0  0  0  0
138225  1  0  0  0  0
139226  1  0  0  0  0
140227  1  0  0  0  0
141228  1  0  0  0  0
141229  1  0  0  0  0
142230  1  0  0  0  0
M  END
