224

C         -3.57810       11.91070       -3.43440
C         -3.15910       12.83880       -4.34180
C         -1.83770       12.88860       -4.99650
O         -0.93740       12.07650       -4.91500
C         -1.81290       14.13970       -5.77250
C         -0.75100       14.63080       -6.52980
C         -1.00790       15.83620       -7.13650
C         -2.23310       16.50420       -7.00250
C         -3.29020       16.02810       -6.26470
C         -3.04980       14.80170       -5.63550
C         -3.91970       13.99740       -4.78120
C         -5.22660       14.28650       -4.48550
C         -6.09430       13.49290       -3.70570
N         -6.87380       12.90880       -3.09610
C         -5.91630       15.43040       -4.94130
N         -6.54340       16.33470       -5.26880
C         -1.78880       17.65960       -7.86410
C         -1.39200       18.95560       -7.12550
C         -0.56610       19.71200       -8.14080
C          0.59350       19.07980       -8.26920
C          0.57100       17.88570       -7.34240
C         -0.27660       18.45630       -6.19800
C         -0.42350       16.91480       -8.01420
C         -2.93210       10.76480       -2.91920
S         -1.35890       10.14520       -3.38410
C         -1.52370        8.82510       -2.26590
C         -0.61030        7.81110       -2.06590
C         -0.92950        6.80690       -1.15720
C         -0.21180        5.62070       -0.86940
C         -0.85900        4.78290       -0.01000
S         -2.36190        5.47340        0.58620
C         -2.15820        6.86800       -0.44030
C         -3.06170        7.88640       -0.61190
C         -2.75310        8.87880       -1.55180
C         -3.52680        9.98080       -1.94800
C         -0.53050        3.42300        0.28190
C         -0.09890        2.47240       -0.63320
N          0.03310        2.65750       -2.00050
C         -0.85720        3.50740       -2.67930
C         -0.38840        4.34180       -3.69410
C         -1.22260        5.27850       -4.26160
C         -2.54240        5.40380       -3.83100
S         -3.48180        6.71760       -4.53880
C         -4.98320        6.76890       -3.52110
C         -3.03650        4.51630       -2.88420
C         -2.20010        3.57370       -2.31860
C          0.89870        1.82180       -2.71680
C          0.52410        1.29440       -3.94960
C          1.33350        0.38900       -4.60670
C          2.53860       -0.00680       -4.04140
S          3.61740       -1.20670       -4.75620
C          2.64100       -1.92770       -6.10400
C          2.94980        0.56890       -2.84200
C          2.14510        1.47650       -2.18990
C          0.06580        1.21720       -0.00280
S          0.50960       -0.34010       -0.58430
C          0.12730       -1.05660        0.97330
C         -0.29640       -0.10990        1.89850
N         -0.71820       -0.38800        3.19560
C         -1.60900       -1.44370        3.41120
C         -2.54880       -1.76630        2.43320
C         -3.33700       -2.89100        2.56910
C         -3.20210       -3.69780        3.68760
S         -4.11480       -5.22940        3.79910
C         -2.89030       -6.29880        2.97540
C         -2.33400       -3.33490        4.70420
C         -1.53860       -2.21580        4.57040
C         -0.24540        0.41630        4.23510
C          1.02860        0.97420        4.15570
C          1.50900        1.78740        5.16320
C          0.72360        2.04960        6.27650
S          1.26130        3.03630        7.64260
C          2.62970        4.00760        6.94520
C         -0.54780        1.48850        6.36500
C         -1.03250        0.68960        5.35450
C         -0.31160        1.18480        1.32970
S         -0.82180        2.74300        1.87950
C          0.36950       -2.44590        1.15250
C          0.39800       -3.43620        0.17430
N          0.09950       -3.28440       -1.17660
C          1.02670       -3.78460       -2.10560
C          2.39200       -3.66340       -1.86900
C          3.31210       -4.12300       -2.79040
C          2.87700       -4.70300       -3.97310
S          3.95720       -5.28050       -5.24440
C          5.58370       -4.64900       -4.74430
C          1.50970       -4.84600       -4.20470
C          0.59330       -4.39810       -3.28040
C         -1.01560       -2.56600       -1.60710
C         -0.97590       -1.82160       -2.78630
C         -2.03530       -1.01640       -3.15000
C         -3.15780       -0.93270       -2.33830
S         -4.52630        0.14120       -2.64870
C         -4.07050        1.01000       -4.17540
C         -3.22820       -1.72020       -1.19070
C         -2.17550       -2.53320       -0.83370
C          0.80990       -4.67070        0.72050
S          1.01690       -6.24500        0.05100
C          1.44530       -6.88710        1.64950
C          1.55910       -5.86120        2.61550
N          2.12250       -5.95880        3.84730
C          2.97030       -6.99900        4.25080
C          2.85880       -7.52130        5.54080
C          3.64200       -8.58500        5.92880
C          4.56930       -9.14240        5.04920
S          5.44990      -10.55140        5.62560
C          6.52870      -11.00600        4.24010
C          4.73740       -8.57350        3.79100
C          3.94270       -7.51640        3.39790
C          1.91700       -4.91020        4.79050
C          0.73950       -4.84270        5.52670
C          0.57000       -3.83250        6.44700
C          1.55060       -2.85450        6.61720
S          1.16260       -1.55930        7.74740
C          2.61790       -0.48120        7.70690
C          2.73510       -2.93960        5.89750
C          2.92100       -3.97510        5.00040
C          1.12020       -4.63140        2.07290
S          0.86410       -3.04940        2.72700
C          1.59570       -8.26750        1.75960
C          1.46290       -8.99570        2.92590
C          0.63720       -8.58140        4.06620
O         -0.00210       -7.54770        4.18500
C          0.63060       -9.72720        4.99750
C         -0.00870       -9.80620        6.23080
C          0.19580      -10.99450        6.89220
C          0.97180      -12.03240        6.36330
C          1.60340      -11.97000        5.14300
C          1.40990      -10.76920        4.45820
C          1.94860      -10.32170        3.17630
C          2.89220      -10.97900        2.42300
C          3.40360      -12.25670        2.71230
N          3.87680      -13.29020        2.88360
C          3.54170      -10.40760        1.31210
N          4.16120       -9.98810        0.43930
C          0.74120      -12.92340        7.55880
C         -0.28660      -14.06120        7.38550
C         -0.65180      -14.43820        8.80310
C         -1.38560      -13.45370        9.30610
C         -1.52890      -12.39500        8.23670
C         -1.54750      -13.28360        6.98630
C         -0.12310      -11.76400        8.15060
H         -4.56250       12.05740       -3.00570
H          0.17380       14.08070       -6.60670
H         -4.22530       16.55470       -6.17540
H         -2.38420       17.84330       -8.75620
H         -2.22040       19.49170       -6.67070
H         -0.92010       20.56860       -8.68360
H          1.40160       19.30280       -8.94090
H          1.53170       17.44790       -7.08500
H         -0.60140       17.71270       -5.47240
H          0.22550       19.27290       -5.68200
H         -0.10750       16.60090       -9.00720
H          0.31430        7.77650       -2.61940
H          0.74400        5.39100       -1.30440
H         -3.98740        7.92070       -0.05830
H         -4.49800       10.20310       -1.54010
H          0.64230        4.26830       -4.00810
H         -0.85510        5.94890       -5.02290
H         -5.50940        7.66960       -3.82210
H         -5.60310        5.89890       -3.71750
H         -4.70780        6.83320       -2.47250
H         -4.06670        4.55060       -2.56910
H         -2.58930        2.89850       -1.57030
H         -0.41730        1.58850       -4.38990
H          1.00560       -0.01030       -5.55330
H          3.23100       -2.75410       -6.48850
H          1.70130       -2.30500       -5.71090
H          2.48230       -1.19270       -6.88780
H          3.90470        0.28840       -2.42520
H          2.47120        1.91740       -1.25960
H         -2.64580       -1.13770        1.56070
H         -4.05770       -3.15040        1.80800
H         -1.98850       -6.37500        3.57620
H         -3.35330       -7.27520        2.87720
H         -2.66300       -5.89360        1.99320
H         -2.26960       -3.94930        5.58790
H         -0.83450       -1.95290        5.34330
H          1.65380        0.75850        3.30140
H          2.50130        2.20120        5.07190
H          2.31240        4.45880        6.01010
H          2.84510        4.78030        7.67650
H          3.50800        3.38360        6.80450
H         -1.15390        1.69600        7.23290
H         -2.02890        0.28120        5.42180
H          2.73520       -3.18830       -0.96150
H          4.36220       -4.00670       -2.57990
H          5.92380       -5.16120       -3.84910
H          5.52530       -3.57480       -4.59230
H          6.25130       -4.87330       -5.57050
H          1.17890       -5.31590       -5.11860
H         -0.46470       -4.51280       -3.46270
H         -0.08680       -1.83750       -3.39780
H         -1.95910       -0.44140       -4.05790
H         -4.90460        1.66950       -4.39450
H         -3.17180        1.60020       -4.01570
H         -3.94380        0.29860       -4.98620
H         -4.11910       -1.67980       -0.58230
H         -2.23130       -3.13700        0.05890
H          2.13630       -7.10410        6.22500
H          3.53210       -9.01230        6.91350
H          5.93440      -11.25930        3.36730
H          7.07210      -11.88400        4.57500
H          7.22380      -10.19870        4.02880
H          5.47300       -8.95210        3.10010
H          4.07550       -7.09680        2.41210
H         -0.01870       -5.59340        5.36760
H         -0.32490       -3.77830        7.04760
H          3.48680       -1.01300        8.08360
H          2.37790        0.35150        8.36150
H          2.77470       -0.11900        6.69500
H          3.51850       -2.21070        6.02490
H          3.84410       -4.04880        4.44420
H          1.78350       -8.79900        0.83400
H         -0.59540       -8.98320        6.60880
H          2.19800      -12.77570        4.74550
H          1.63490      -13.23410        8.09670
H          0.03310      -14.86780        6.73150
H         -0.30340      -15.32660        9.29640
H         -1.77250      -13.35540       10.30360
H         -2.34150      -11.68370        8.35800
H         -2.42950      -13.92080        6.94710
H         -1.45270      -12.73470        6.05120
H          0.19480      -11.30290        9.08410
