
  xtb     02132201013D
 energy: -258.431364484998 gnorm: 0.000404564521 xtb: 6.4.1 (unknown)
153167  0     0  0            999 V2000
   -0.5685   -4.1480   -4.7325 C   0  0  0  0  0  0  0  0  0  0  0  0
   -0.0005   -4.7178   -5.8396 C   0  0  0  0  0  0  0  0  0  0  0  0
    1.0302   -4.1702   -6.7509 C   0  0  0  0  0  0  0  0  0  0  0  0
    1.7553   -3.2072   -6.5966 O   0  0  0  0  0  0  0  0  0  0  0  0
    0.9924   -5.0229   -7.9544 C   0  0  0  0  0  0  0  0  0  0  0  0
    1.7153   -4.8344   -9.1308 C   0  0  0  0  0  0  0  0  0  0  0  0
    1.4504   -5.7661  -10.1054 C   0  0  0  0  0  0  0  0  0  0  0  0
    0.5275   -6.8061   -9.9285 C   0  0  0  0  0  0  0  0  0  0  0  0
   -0.1873   -7.0077   -8.7719 C   0  0  0  0  0  0  0  0  0  0  0  0
    0.0755   -6.0749   -7.7642 C   0  0  0  0  0  0  0  0  0  0  0  0
   -0.4734   -5.9629   -6.4180 C   0  0  0  0  0  0  0  0  0  0  0  0
   -1.2116   -6.9248   -5.7772 C   0  0  0  0  0  0  0  0  0  0  0  0
   -1.5937   -6.8818   -4.4220 C   0  0  0  0  0  0  0  0  0  0  0  0
   -1.9054   -6.9446   -3.3170 N   0  0  0  0  0  0  0  0  0  0  0  0
   -1.6230   -8.1371   -6.3687 C   0  0  0  0  0  0  0  0  0  0  0  0
   -1.9970   -9.1386   -6.7876 N   0  0  0  0  0  0  0  0  0  0  0  0
    0.7523   -7.3496  -11.3175 C   0  0  0  0  0  0  0  0  0  0  0  0
    1.6277   -8.6154  -11.4298 C   0  0  0  0  0  0  0  0  0  0  0  0
    2.0628   -8.6266  -12.8774 C   0  0  0  0  0  0  0  0  0  0  0  0
    2.9412   -7.6458  -13.0423 C   0  0  0  0  0  0  0  0  0  0  0  0
    3.1143   -6.9548  -11.7088 C   0  0  0  0  0  0  0  0  0  0  0  0
    2.9305   -8.1510  -10.7660 C   0  0  0  0  0  0  0  0  0  0  0  0
    1.7856   -6.1939  -11.5127 C   0  0  0  0  0  0  0  0  0  0  0  0
   -0.2057   -3.0111   -3.9882 C   0  0  0  0  0  0  0  0  0  0  0  0
    0.8943   -2.1750   -4.0513 C   0  0  0  0  0  0  0  0  0  0  0  0
    0.9338   -1.2324   -3.0236 C   0  0  0  0  0  0  0  0  0  0  0  0
    1.8441   -0.2528   -2.8281 O   0  0  0  0  0  0  0  0  0  0  0  0
    2.6805    0.1021   -3.9221 C   0  0  0  0  0  0  0  0  0  0  0  0
    3.9792   -0.6919   -3.9756 C   0  0  0  0  0  0  0  0  0  0  0  0
   -0.1477   -1.3373   -2.1445 C   0  0  0  0  0  0  0  0  0  0  0  0
   -1.2329   -2.5837   -2.6368 S   0  0  0  0  0  0  0  0  0  0  0  0
   -0.2932   -0.5968   -0.9328 C   0  0  0  0  0  0  0  0  0  0  0  0
    0.7071   -0.4053    0.0104 C   0  0  0  0  0  0  0  0  0  0  0  0
    1.9238   -1.0604    0.0051 N   0  0  0  0  0  0  0  0  0  0  0  0
    2.0099   -2.3622   -0.5126 C   0  0  0  0  0  0  0  0  0  0  0  0
    3.1006   -2.7495   -1.2891 C   0  0  0  0  0  0  0  0  0  0  0  0
    3.1143   -3.9819   -1.9047 C   0  0  0  0  0  0  0  0  0  0  0  0
    2.0461   -4.8624   -1.7514 C   0  0  0  0  0  0  0  0  0  0  0  0
    2.0955   -6.3655   -2.6774 S   0  0  0  0  0  0  0  0  0  0  0  0
    0.9479   -7.4493   -1.7789 C   0  0  0  0  0  0  0  0  0  0  0  0
    0.9919   -4.5126   -0.9185 C   0  0  0  0  0  0  0  0  0  0  0  0
    0.9818   -3.2784   -0.2997 C   0  0  0  0  0  0  0  0  0  0  0  0
    3.0617   -0.3893    0.4629 C   0  0  0  0  0  0  0  0  0  0  0  0
    4.0527   -1.0713    1.1702 C   0  0  0  0  0  0  0  0  0  0  0  0
    5.1498   -0.3934    1.6501 C   0  0  0  0  0  0  0  0  0  0  0  0
    5.2829    0.9790    1.4422 C   0  0  0  0  0  0  0  0  0  0  0  0
    6.7229    1.7396    2.1261 S   0  0  0  0  0  0  0  0  0  0  0  0
    6.4513    3.5137    1.8506 C   0  0  0  0  0  0  0  0  0  0  0  0
    4.3105    1.6569    0.7208 C   0  0  0  0  0  0  0  0  0  0  0  0
    3.2121    0.9754    0.2333 C   0  0  0  0  0  0  0  0  0  0  0  0
    0.2587    0.4528    1.0439 C   0  0  0  0  0  0  0  0  0  0  0  0
    1.0004    1.1526    2.4384 S   0  0  0  0  0  0  0  0  0  0  0  0
   -0.5090    1.9633    2.8648 C   0  0  0  0  0  0  0  0  0  0  0  0
   -1.5150    1.7305    1.9289 C   0  0  0  0  0  0  0  0  0  0  0  0
   -2.7659    2.3134    1.9148 N   0  0  0  0  0  0  0  0  0  0  0  0
   -3.8430    1.5511    1.4401 C   0  0  0  0  0  0  0  0  0  0  0  0
   -4.8136    2.1125    0.6104 C   0  0  0  0  0  0  0  0  0  0  0  0
   -5.8392    1.3350    0.1236 C   0  0  0  0  0  0  0  0  0  0  0  0
   -5.9179   -0.0197    0.4441 C   0  0  0  0  0  0  0  0  0  0  0  0
   -7.2616   -0.9205   -0.2587 S   0  0  0  0  0  0  0  0  0  0  0  0
   -6.8339   -2.6547    0.0678 C   0  0  0  0  0  0  0  0  0  0  0  0
   -4.9665   -0.5769    1.2875 C   0  0  0  0  0  0  0  0  0  0  0  0
   -3.9419    0.2051    1.7826 C   0  0  0  0  0  0  0  0  0  0  0  0
   -2.9299    3.6759    2.2026 C   0  0  0  0  0  0  0  0  0  0  0  0
   -1.9301    4.5955    1.8845 C   0  0  0  0  0  0  0  0  0  0  0  0
   -2.0805    5.9232    2.2116 C   0  0  0  0  0  0  0  0  0  0  0  0
   -3.2333    6.3706    2.8574 C   0  0  0  0  0  0  0  0  0  0  0  0
   -3.3010    8.0886    3.2338 S   0  0  0  0  0  0  0  0  0  0  0  0
   -4.9246    8.3081    4.0119 C   0  0  0  0  0  0  0  0  0  0  0  0
   -4.2407    5.4620    3.1572 C   0  0  0  0  0  0  0  0  0  0  0  0
   -4.0874    4.1290    2.8323 C   0  0  0  0  0  0  0  0  0  0  0  0
   -1.0622    0.8503    0.9142 C   0  0  0  0  0  0  0  0  0  0  0  0
   -1.8066    0.1733   -0.4929 S   0  0  0  0  0  0  0  0  0  0  0  0
   -0.5428    2.7158    4.0650 C   0  0  0  0  0  0  0  0  0  0  0  0
    0.5528    3.2147    4.7451 C   0  0  0  0  0  0  0  0  0  0  0  0
    0.2285    3.9162    5.9131 C   0  0  0  0  0  0  0  0  0  0  0  0
    1.0450    4.6580    6.6654 O   0  0  0  0  0  0  0  0  0  0  0  0
    2.4467    4.5385    6.4891 C   0  0  0  0  0  0  0  0  0  0  0  0
    2.9815    3.2074    7.0025 C   0  0  0  0  0  0  0  0  0  0  0  0
   -1.1542    3.9203    6.1711 C   0  0  0  0  0  0  0  0  0  0  0  0
   -2.0125    3.0777    4.9044 S   0  0  0  0  0  0  0  0  0  0  0  0
   -1.9202    4.5778    7.1431 C   0  0  0  0  0  0  0  0  0  0  0  0
   -1.5452    4.9997    8.3917 C   0  0  0  0  0  0  0  0  0  0  0  0
   -0.3797    4.5059    9.1668 C   0  0  0  0  0  0  0  0  0  0  0  0
    0.3819    3.6065    8.8801 O   0  0  0  0  0  0  0  0  0  0  0  0
   -0.4572    5.2481   10.4257 C   0  0  0  0  0  0  0  0  0  0  0  0
    0.4534    5.3358   11.8698 S   0  0  0  0  0  0  0  0  0  0  0  0
   -0.6871    6.4744   12.5409 C   0  0  0  0  0  0  0  0  0  0  0  0
   -0.4691    7.0223   13.9034 C   0  0  0  0  0  0  0  0  0  0  0  0
   -1.7141    6.7514   11.6843 C   0  0  0  0  0  0  0  0  0  0  0  0
   -1.5881    6.0477   10.4707 C   0  0  0  0  0  0  0  0  0  0  0  0
   -2.3080    5.9089    9.2196 C   0  0  0  0  0  0  0  0  0  0  0  0
   -3.4665    6.5793    8.9088 C   0  0  0  0  0  0  0  0  0  0  0  0
   -4.0909    7.4443    9.8297 C   0  0  0  0  0  0  0  0  0  0  0  0
   -4.6211    8.1509   10.5633 N   0  0  0  0  0  0  0  0  0  0  0  0
   -4.1605    6.5118    7.6894 C   0  0  0  0  0  0  0  0  0  0  0  0
   -4.7851    6.5222    6.7236 N   0  0  0  0  0  0  0  0  0  0  0  0
   -1.4500   -4.6439   -4.3421 H   0  0  0  0  0  0  0  0  0  0  0  0
    2.4077   -4.0131   -9.2301 H   0  0  0  0  0  0  0  0  0  0  0  0
   -0.9016   -7.8054   -8.6530 H   0  0  0  0  0  0  0  0  0  0  0  0
   -0.1240   -7.3787  -11.9623 H   0  0  0  0  0  0  0  0  0  0  0  0
    1.1663   -9.5225  -11.0493 H   0  0  0  0  0  0  0  0  0  0  0  0
    1.6585   -9.2887  -13.6203 H   0  0  0  0  0  0  0  0  0  0  0  0
    3.4170   -7.3251  -13.9505 H   0  0  0  0  0  0  0  0  0  0  0  0
    4.0087   -6.3503  -11.5836 H   0  0  0  0  0  0  0  0  0  0  0  0
    2.8219   -7.8780   -9.7180 H   0  0  0  0  0  0  0  0  0  0  0  0
    3.7291   -8.8835  -10.8705 H   0  0  0  0  0  0  0  0  0  0  0  0
    1.6006   -5.4547  -12.2901 H   0  0  0  0  0  0  0  0  0  0  0  0
    1.6317   -2.2783   -4.8248 H   0  0  0  0  0  0  0  0  0  0  0  0
    2.1286   -0.0055   -4.8622 H   0  0  0  0  0  0  0  0  0  0  0  0
    2.9020    1.1621   -3.7635 H   0  0  0  0  0  0  0  0  0  0  0  0
    3.7811   -1.7562   -4.0694 H   0  0  0  0  0  0  0  0  0  0  0  0
    4.5619   -0.5188   -3.0742 H   0  0  0  0  0  0  0  0  0  0  0  0
    4.5593   -0.3672   -4.8350 H   0  0  0  0  0  0  0  0  0  0  0  0
    3.9255   -2.0679   -1.4209 H   0  0  0  0  0  0  0  0  0  0  0  0
    3.9461   -4.2702   -2.5289 H   0  0  0  0  0  0  0  0  0  0  0  0
   -0.0824   -7.1690   -1.9840 H   0  0  0  0  0  0  0  0  0  0  0  0
    1.1335   -8.4499   -2.1575 H   0  0  0  0  0  0  0  0  0  0  0  0
    1.1719   -7.4066   -0.7177 H   0  0  0  0  0  0  0  0  0  0  0  0
    0.1626   -5.1837   -0.7634 H   0  0  0  0  0  0  0  0  0  0  0  0
    0.1498   -3.0115    0.3356 H   0  0  0  0  0  0  0  0  0  0  0  0
    3.9485   -2.1311    1.3478 H   0  0  0  0  0  0  0  0  0  0  0  0
    5.9141   -0.9155    2.2049 H   0  0  0  0  0  0  0  0  0  0  0  0
    6.4706    3.7368    0.7878 H   0  0  0  0  0  0  0  0  0  0  0  0
    5.5109    3.8167    2.3015 H   0  0  0  0  0  0  0  0  0  0  0  0
    7.2771    4.0155    2.3453 H   0  0  0  0  0  0  0  0  0  0  0  0
    4.3969    2.7130    0.5225 H   0  0  0  0  0  0  0  0  0  0  0  0
    2.4680    1.5001   -0.3469 H   0  0  0  0  0  0  0  0  0  0  0  0
   -4.7472    3.1553    0.3396 H   0  0  0  0  0  0  0  0  0  0  0  0
   -6.5866    1.7633   -0.5264 H   0  0  0  0  0  0  0  0  0  0  0  0
   -5.8342   -2.8599   -0.3031 H   0  0  0  0  0  0  0  0  0  0  0  0
   -6.9161   -2.8704    1.1292 H   0  0  0  0  0  0  0  0  0  0  0  0
   -7.5612   -3.2438   -0.4822 H   0  0  0  0  0  0  0  0  0  0  0  0
   -5.0139   -1.6151    1.5732 H   0  0  0  0  0  0  0  0  0  0  0  0
   -3.2097   -0.2301    2.4471 H   0  0  0  0  0  0  0  0  0  0  0  0
   -1.0348    4.2628    1.3801 H   0  0  0  0  0  0  0  0  0  0  0  0
   -1.3074    6.6358    1.9676 H   0  0  0  0  0  0  0  0  0  0  0  0
   -4.9911    9.3655    4.2496 H   0  0  0  0  0  0  0  0  0  0  0  0
   -4.9794    7.7191    4.9236 H   0  0  0  0  0  0  0  0  0  0  0  0
   -5.7076    8.0383    3.3093 H   0  0  0  0  0  0  0  0  0  0  0  0
   -5.1377    5.7744    3.6648 H   0  0  0  0  0  0  0  0  0  0  0  0
   -4.8633    3.4231    3.0866 H   0  0  0  0  0  0  0  0  0  0  0  0
    1.5484    3.0933    4.3577 H   0  0  0  0  0  0  0  0  0  0  0  0
    2.8559    5.3605    7.0820 H   0  0  0  0  0  0  0  0  0  0  0  0
    2.7132    4.6984    5.4361 H   0  0  0  0  0  0  0  0  0  0  0  0
    2.6614    2.3842    6.3687 H   0  0  0  0  0  0  0  0  0  0  0  0
    4.0672    3.2319    7.0291 H   0  0  0  0  0  0  0  0  0  0  0  0
    2.5958    3.0380    8.0043 H   0  0  0  0  0  0  0  0  0  0  0  0
   -2.9471    4.7603    6.8467 H   0  0  0  0  0  0  0  0  0  0  0  0
    0.4863    7.5433   13.9590 H   0  0  0  0  0  0  0  0  0  0  0  0
   -1.2650    7.7182   14.1561 H   0  0  0  0  0  0  0  0  0  0  0  0
   -0.4532    6.2212   14.6418 H   0  0  0  0  0  0  0  0  0  0  0  0
   -2.5157    7.4257   11.9236 H   0  0  0  0  0  0  0  0  0  0  0  0
  1  2  2  0  0  0  0
  2  3  1  0  0  0  0
  3  4  2  0  0  0  0
  3  5  1  0  0  0  0
  5  6  2  0  0  0  0
  6  7  1  0  0  0  0
  7  8  2  0  0  0  0
  8  9  1  0  0  0  0
  9 10  2  0  0  0  0
 10 11  1  0  0  0  0
 11 12  2  0  0  0  0
 12 13  1  0  0  0  0
 13 14  3  0  0  0  0
 12 15  1  0  0  0  0
 15 16  3  0  0  0  0
  8 17  1  0  0  0  0
 17 18  1  0  0  0  0
 18 19  1  0  0  0  0
 19 20  2  0  0  0  0
 20 21  1  0  0  0  0
 21 22  1  0  0  0  0
 21 23  1  0  0  0  0
  1 24  1  0  0  0  0
 24 25  2  0  0  0  0
 25 26  1  0  0  0  0
 26 27  1  0  0  0  0
 27 28  1  0  0  0  0
 28 29  1  0  0  0  0
 26 30  2  0  0  0  0
 30 31  1  0  0  0  0
 30 32  1  0  0  0  0
 32 33  2  0  0  0  0
 33 34  1  0  0  0  0
 34 35  1  0  0  0  0
 35 36  2  0  0  0  0
 36 37  1  0  0  0  0
 37 38  2  0  0  0  0
 38 39  1  0  0  0  0
 39 40  1  0  0  0  0
 38 41  1  0  0  0  0
 41 42  2  0  0  0  0
 34 43  1  0  0  0  0
 43 44  2  0  0  0  0
 44 45  1  0  0  0  0
 45 46  2  0  0  0  0
 46 47  1  0  0  0  0
 47 48  1  0  0  0  0
 46 49  1  0  0  0  0
 49 50  2  0  0  0  0
 33 51  1  0  0  0  0
 51 52  1  0  0  0  0
 52 53  1  0  0  0  0
 53 54  2  0  0  0  0
 54 55  1  0  0  0  0
 55 56  1  0  0  0  0
 56 57  2  0  0  0  0
 57 58  1  0  0  0  0
 58 59  2  0  0  0  0
 59 60  1  0  0  0  0
 60 61  1  0  0  0  0
 59 62  1  0  0  0  0
 62 63  2  0  0  0  0
 55 64  1  0  0  0  0
 64 65  2  0  0  0  0
 65 66  1  0  0  0  0
 66 67  2  0  0  0  0
 67 68  1  0  0  0  0
 68 69  1  0  0  0  0
 67 70  1  0  0  0  0
 70 71  2  0  0  0  0
 54 72  1  0  0  0  0
 72 73  1  0  0  0  0
 53 74  1  0  0  0  0
 74 75  2  0  0  0  0
 75 76  1  0  0  0  0
 76 77  1  0  0  0  0
 77 78  1  0  0  0  0
 78 79  1  0  0  0  0
 76 80  2  0  0  0  0
 80 81  1  0  0  0  0
 80 82  1  0  0  0  0
 82 83  2  0  0  0  0
 83 84  1  0  0  0  0
 84 85  2  0  0  0  0
 84 86  1  0  0  0  0
 86 87  1  0  0  0  0
 87 88  1  0  0  0  0
 88 89  1  0  0  0  0
 88 90  2  0  0  0  0
 90 91  1  0  0  0  0
 91 92  1  0  0  0  0
 92 93  2  0  0  0  0
 93 94  1  0  0  0  0
 94 95  3  0  0  0  0
 93 96  1  0  0  0  0
 96 97  3  0  0  0  0
 11  2  1  0  0  0  0
 23 17  1  0  0  0  0
 31 24  1  0  0  0  0
 73 32  1  0  0  0  0
 81 74  1  0  0  0  0
 92 83  1  0  0  0  0
 10  5  1  0  0  0  0
 22 18  1  0  0  0  0
 42 35  1  0  0  0  0
 50 43  1  0  0  0  0
 72 51  2  0  0  0  0
 91 86  2  0  0  0  0
 23  7  1  0  0  0  0
 63 56  1  0  0  0  0
 71 64  1  0  0  0  0
  1 98  1  0  0  0  0
  6 99  1  0  0  0  0
  9100  1  0  0  0  0
 17101  1  0  0  0  0
 18102  1  0  0  0  0
 19103  1  0  0  0  0
 20104  1  0  0  0  0
 21105  1  0  0  0  0
 22106  1  0  0  0  0
 22107  1  0  0  0  0
 23108  1  0  0  0  0
 25109  1  0  0  0  0
 28110  1  0  0  0  0
 28111  1  0  0  0  0
 29112  1  0  0  0  0
 29113  1  0  0  0  0
 29114  1  0  0  0  0
 36115  1  0  0  0  0
 37116  1  0  0  0  0
 40117  1  0  0  0  0
 40118  1  0  0  0  0
 40119  1  0  0  0  0
 41120  1  0  0  0  0
 42121  1  0  0  0  0
 44122  1  0  0  0  0
 45123  1  0  0  0  0
 48124  1  0  0  0  0
 48125  1  0  0  0  0
 48126  1  0  0  0  0
 49127  1  0  0  0  0
 50128  1  0  0  0  0
 57129  1  0  0  0  0
 58130  1  0  0  0  0
 61131  1  0  0  0  0
 61132  1  0  0  0  0
 61133  1  0  0  0  0
 62134  1  0  0  0  0
 63135  1  0  0  0  0
 65136  1  0  0  0  0
 66137  1  0  0  0  0
 69138  1  0  0  0  0
 69139  1  0  0  0  0
 69140  1  0  0  0  0
 70141  1  0  0  0  0
 71142  1  0  0  0  0
 75143  1  0  0  0  0
 78144  1  0  0  0  0
 78145  1  0  0  0  0
 79146  1  0  0  0  0
 79147  1  0  0  0  0
 79148  1  0  0  0  0
 82149  1  0  0  0  0
 89150  1  0  0  0  0
 89151  1  0  0  0  0
 89152  1  0  0  0  0
 90153  1  0  0  0  0
M  END
