
  xtb     02152205543D
 energy: -366.351722592505 gnorm: 0.000722834401 xtb: 6.4.1 (unknown)
222245  0     0  0            999 V2000
    2.8474    8.2680   -2.0029 C   0  0  0  0  0  0  0  0  0  0  0  0
    3.9474    8.5557   -2.7799 C   0  0  0  0  0  0  0  0  0  0  0  0
    5.0117    7.5867   -3.0863 C   0  0  0  0  0  0  0  0  0  0  0  0
    5.0706    6.4198   -2.7443 O   0  0  0  0  0  0  0  0  0  0  0  0
    6.0644    8.3554   -3.7842 C   0  0  0  0  0  0  0  0  0  0  0  0
    7.2697    7.8686   -4.2785 C   0  0  0  0  0  0  0  0  0  0  0  0
    8.0369    8.8155   -4.9155 C   0  0  0  0  0  0  0  0  0  0  0  0
    7.6446   10.1541   -5.0296 C   0  0  0  0  0  0  0  0  0  0  0  0
    6.4630   10.6507   -4.5313 C   0  0  0  0  0  0  0  0  0  0  0  0
    5.6597    9.6989   -3.9011 C   0  0  0  0  0  0  0  0  0  0  0  0
    4.3330    9.8355   -3.3032 C   0  0  0  0  0  0  0  0  0  0  0  0
    3.5234   10.9433   -3.3830 C   0  0  0  0  0  0  0  0  0  0  0  0
    3.8846   12.1492   -4.0099 C   0  0  0  0  0  0  0  0  0  0  0  0
    4.1161   13.1537   -4.5184 N   0  0  0  0  0  0  0  0  0  0  0  0
    2.1948   10.9837   -2.9171 C   0  0  0  0  0  0  0  0  0  0  0  0
    1.0969   11.0782   -2.5919 N   0  0  0  0  0  0  0  0  0  0  0  0
    8.8855   10.5367   -5.7971 C   0  0  0  0  0  0  0  0  0  0  0  0
    8.7504   10.7302   -7.3276 C   0  0  0  0  0  0  0  0  0  0  0  0
    7.5892    9.8739   -7.7676 C   0  0  0  0  0  0  0  0  0  0  0  0
    7.9608    8.6048   -7.6649 C   0  0  0  0  0  0  0  0  0  0  0  0
    9.3788    8.5805   -7.1513 C   0  0  0  0  0  0  0  0  0  0  0  0
    9.9246    9.8604   -7.8042 C   0  0  0  0  0  0  0  0  0  0  0  0
    9.3215    9.0426   -5.6738 C   0  0  0  0  0  0  0  0  0  0  0  0
    2.2887    7.0012   -1.8078 C   0  0  0  0  0  0  0  0  0  0  0  0
    2.3123    5.8362   -2.6023 C   0  0  0  0  0  0  0  0  0  0  0  0
    2.7655    5.7373   -3.8868 N   0  0  0  0  0  0  0  0  0  0  0  0
    2.8503    6.8429   -4.7469 C   0  0  0  0  0  0  0  0  0  0  0  0
    1.8517    7.8139   -4.7773 C   0  0  0  0  0  0  0  0  0  0  0  0
    1.9791    8.9153   -5.5987 C   0  0  0  0  0  0  0  0  0  0  0  0
    3.0971    9.0838   -6.4101 C   0  0  0  0  0  0  0  0  0  0  0  0
    3.2653   10.3130   -7.2467 C   0  0  0  0  0  0  0  0  0  0  0  0
    4.0667    8.0886   -6.4088 C   0  0  0  0  0  0  0  0  0  0  0  0
    3.9488    6.9789   -5.5946 C   0  0  0  0  0  0  0  0  0  0  0  0
    3.1611    4.4823   -4.3947 C   0  0  0  0  0  0  0  0  0  0  0  0
    2.7524    4.0917   -5.6651 C   0  0  0  0  0  0  0  0  0  0  0  0
    3.1376    2.8627   -6.1662 C   0  0  0  0  0  0  0  0  0  0  0  0
    3.9237    1.9981   -5.4152 C   0  0  0  0  0  0  0  0  0  0  0  0
    4.3307    0.6583   -5.9469 C   0  0  0  0  0  0  0  0  0  0  0  0
    4.3418    2.4081   -4.1533 C   0  0  0  0  0  0  0  0  0  0  0  0
    3.9741    3.6372   -3.6448 C   0  0  0  0  0  0  0  0  0  0  0  0
    1.6634    4.7720   -1.9283 C   0  0  0  0  0  0  0  0  0  0  0  0
    1.4072    3.1002   -2.2858 S   0  0  0  0  0  0  0  0  0  0  0  0
    0.5189    2.8900   -0.7940 C   0  0  0  0  0  0  0  0  0  0  0  0
    0.4545    4.0482   -0.0332 C   0  0  0  0  0  0  0  0  0  0  0  0
   -0.0746    4.1763    1.2369 N   0  0  0  0  0  0  0  0  0  0  0  0
   -0.0623    3.1231    2.1584 C   0  0  0  0  0  0  0  0  0  0  0  0
   -1.1389    2.9342    3.0244 C   0  0  0  0  0  0  0  0  0  0  0  0
   -1.1745    1.8443    3.8704 C   0  0  0  0  0  0  0  0  0  0  0  0
   -0.1378    0.9190    3.8918 C   0  0  0  0  0  0  0  0  0  0  0  0
   -0.1839   -0.2654    4.8069 C   0  0  0  0  0  0  0  0  0  0  0  0
    0.9556    1.1399    3.0631 C   0  0  0  0  0  0  0  0  0  0  0  0
    1.0026    2.2263    2.2118 C   0  0  0  0  0  0  0  0  0  0  0  0
   -0.7043    5.3886    1.5697 C   0  0  0  0  0  0  0  0  0  0  0  0
   -1.5276    6.0288    0.6470 C   0  0  0  0  0  0  0  0  0  0  0  0
   -2.1179    7.2349    0.9659 C   0  0  0  0  0  0  0  0  0  0  0  0
   -1.9161    7.8263    2.2078 C   0  0  0  0  0  0  0  0  0  0  0  0
   -2.5401    9.1494    2.5287 C   0  0  0  0  0  0  0  0  0  0  0  0
   -1.1093    7.1693    3.1290 C   0  0  0  0  0  0  0  0  0  0  0  0
   -0.5048    5.9670    2.8192 C   0  0  0  0  0  0  0  0  0  0  0  0
    1.0996    5.1158   -0.7074 C   0  0  0  0  0  0  0  0  0  0  0  0
    1.3398    6.7791   -0.3300 S   0  0  0  0  0  0  0  0  0  0  0  0
   -0.0081    1.5989   -0.4292 C   0  0  0  0  0  0  0  0  0  0  0  0
   -1.2740    1.4661    0.1792 C   0  0  0  0  0  0  0  0  0  0  0  0
   -2.2422    2.3675    0.3930 N   0  0  0  0  0  0  0  0  0  0  0  0
   -3.1762    1.6966    1.0021 N   0  0  0  0  0  0  0  0  0  0  0  0
   -4.3945    2.3232    1.4266 C   0  0  0  0  0  0  0  0  0  0  0  0
   -5.5818    1.7405    0.6686 C   0  0  0  0  0  0  0  0  0  0  0  0
   -2.9505    0.4315    1.2159 N   0  0  0  0  0  0  0  0  0  0  0  0
   -1.7317    0.2253    0.7003 C   0  0  0  0  0  0  0  0  0  0  0  0
   -0.9731   -0.9582    0.5944 C   0  0  0  0  0  0  0  0  0  0  0  0
    0.2495   -0.8077   -0.0346 C   0  0  0  0  0  0  0  0  0  0  0  0
    0.7012    0.4159   -0.5487 C   0  0  0  0  0  0  0  0  0  0  0  0
    1.9230    0.4276   -1.1187 F   0  0  0  0  0  0  0  0  0  0  0  0
    1.0905   -1.8595   -0.1036 F   0  0  0  0  0  0  0  0  0  0  0  0
   -1.4685   -2.2006    1.1298 C   0  0  0  0  0  0  0  0  0  0  0  0
   -1.4646   -3.4687    0.5648 C   0  0  0  0  0  0  0  0  0  0  0  0
   -1.0823   -3.7410   -0.7325 N   0  0  0  0  0  0  0  0  0  0  0  0
   -0.6180   -5.0159   -1.0771 C   0  0  0  0  0  0  0  0  0  0  0  0
    0.1877   -5.7373   -0.2003 C   0  0  0  0  0  0  0  0  0  0  0  0
    0.5683   -7.0284   -0.5043 C   0  0  0  0  0  0  0  0  0  0  0  0
    0.1534   -7.6101   -1.6934 C   0  0  0  0  0  0  0  0  0  0  0  0
    0.5444   -9.2843   -2.1030 S   0  0  0  0  0  0  0  0  0  0  0  0
    0.4832  -10.0649   -0.4604 C   0  0  0  0  0  0  0  0  0  0  0  0
   -0.5899   -6.8678   -2.6052 C   0  0  0  0  0  0  0  0  0  0  0  0
   -0.9765   -5.5818   -2.3000 C   0  0  0  0  0  0  0  0  0  0  0  0
   -1.1632   -2.7343   -1.7101 C   0  0  0  0  0  0  0  0  0  0  0  0
   -0.1135   -2.5382   -2.6017 C   0  0  0  0  0  0  0  0  0  0  0  0
   -0.1101   -1.4547   -3.4587 C   0  0  0  0  0  0  0  0  0  0  0  0
   -1.1628   -0.5498   -3.4393 C   0  0  0  0  0  0  0  0  0  0  0  0
   -1.2100    0.9297   -4.3986 S   0  0  0  0  0  0  0  0  0  0  0  0
    0.4555    1.0327   -5.1077 C   0  0  0  0  0  0  0  0  0  0  0  0
   -2.2582   -0.7945   -2.6125 C   0  0  0  0  0  0  0  0  0  0  0  0
   -2.2633   -1.8768   -1.7623 C   0  0  0  0  0  0  0  0  0  0  0  0
   -2.0320   -4.4162    1.4605 C   0  0  0  0  0  0  0  0  0  0  0  0
   -2.1891   -6.1393    1.4732 S   0  0  0  0  0  0  0  0  0  0  0  0
   -2.9903   -6.0726    3.0450 C   0  0  0  0  0  0  0  0  0  0  0  0
   -3.0489   -4.7559    3.5544 C   0  0  0  0  0  0  0  0  0  0  0  0
   -3.5175   -4.3778    4.7889 N   0  0  0  0  0  0  0  0  0  0  0  0
   -3.4143   -5.1719    5.9419 C   0  0  0  0  0  0  0  0  0  0  0  0
   -2.3349   -6.0330    6.1336 C   0  0  0  0  0  0  0  0  0  0  0  0
   -2.2985   -6.8781    7.2233 C   0  0  0  0  0  0  0  0  0  0  0  0
   -3.3278   -6.8561    8.1583 C   0  0  0  0  0  0  0  0  0  0  0  0
   -3.3985   -7.9314    9.5546 S   0  0  0  0  0  0  0  0  0  0  0  0
   -2.3195   -9.3108    9.0730 C   0  0  0  0  0  0  0  0  0  0  0  0
   -4.3626   -5.9360    8.0133 C   0  0  0  0  0  0  0  0  0  0  0  0
   -4.4119   -5.1072    6.9142 C   0  0  0  0  0  0  0  0  0  0  0  0
   -3.9992   -3.0585    4.9128 C   0  0  0  0  0  0  0  0  0  0  0  0
   -3.5038   -2.2063    5.8965 C   0  0  0  0  0  0  0  0  0  0  0  0
   -3.9169   -0.8916    5.9387 C   0  0  0  0  0  0  0  0  0  0  0  0
   -4.8352   -0.4126    5.0086 C   0  0  0  0  0  0  0  0  0  0  0  0
   -5.2436    1.3074    5.0724 S   0  0  0  0  0  0  0  0  0  0  0  0
   -6.9511    1.3325    4.4441 C   0  0  0  0  0  0  0  0  0  0  0  0
   -5.3638   -1.2710    4.0545 C   0  0  0  0  0  0  0  0  0  0  0  0
   -4.9499   -2.5862    4.0115 C   0  0  0  0  0  0  0  0  0  0  0  0
   -2.5055   -3.8415    2.6359 C   0  0  0  0  0  0  0  0  0  0  0  0
   -2.2677   -2.1280    2.6780 S   0  0  0  0  0  0  0  0  0  0  0  0
   -3.5391   -7.1678    3.7136 C   0  0  0  0  0  0  0  0  0  0  0  0
   -3.3244   -8.5154    3.5613 C   0  0  0  0  0  0  0  0  0  0  0  0
   -2.3939   -9.1523    2.6255 C   0  0  0  0  0  0  0  0  0  0  0  0
   -1.8263   -8.6431    1.6728 O   0  0  0  0  0  0  0  0  0  0  0  0
   -2.2579  -10.5516    3.0761 C   0  0  0  0  0  0  0  0  0  0  0  0
   -1.4371  -11.5381    2.5342 C   0  0  0  0  0  0  0  0  0  0  0  0
   -1.5096  -12.7484    3.1818 C   0  0  0  0  0  0  0  0  0  0  0  0
   -2.3389  -12.9656    4.2887 C   0  0  0  0  0  0  0  0  0  0  0  0
   -3.1556  -12.0028    4.8332 C   0  0  0  0  0  0  0  0  0  0  0  0
   -3.0946  -10.7627    4.1912 C   0  0  0  0  0  0  0  0  0  0  0  0
   -3.8045   -9.5183    4.4833 C   0  0  0  0  0  0  0  0  0  0  0  0
   -4.7361   -9.3453    5.4791 C   0  0  0  0  0  0  0  0  0  0  0  0
   -5.0524  -10.3167    6.4489 C   0  0  0  0  0  0  0  0  0  0  0  0
   -5.3273  -11.0482    7.2912 N   0  0  0  0  0  0  0  0  0  0  0  0
   -5.5158   -8.1890    5.6769 C   0  0  0  0  0  0  0  0  0  0  0  0
   -6.2112   -7.2988    5.8921 N   0  0  0  0  0  0  0  0  0  0  0  0
   -1.9088  -14.4044    4.4309 C   0  0  0  0  0  0  0  0  0  0  0  0
   -2.8949  -15.4741    3.9171 C   0  0  0  0  0  0  0  0  0  0  0  0
   -2.0339  -16.7040    3.7400 C   0  0  0  0  0  0  0  0  0  0  0  0
   -1.2488  -16.4990    2.6901 C   0  0  0  0  0  0  0  0  0  0  0  0
   -1.5663  -15.1273    2.1396 C   0  0  0  0  0  0  0  0  0  0  0  0
   -3.0670  -15.0590    2.4502 C   0  0  0  0  0  0  0  0  0  0  0  0
   -0.9843  -14.1627    3.1945 C   0  0  0  0  0  0  0  0  0  0  0  0
    2.3813    9.0729   -1.4471 H   0  0  0  0  0  0  0  0  0  0  0  0
    7.5385    6.8298   -4.1635 H   0  0  0  0  0  0  0  0  0  0  0  0
    6.1795   11.6870   -4.6146 H   0  0  0  0  0  0  0  0  0  0  0  0
    9.5202   11.2921   -5.3379 H   0  0  0  0  0  0  0  0  0  0  0  0
    8.7306   11.7672   -7.6518 H   0  0  0  0  0  0  0  0  0  0  0  0
    6.6288   10.2683   -8.0444 H   0  0  0  0  0  0  0  0  0  0  0  0
    7.3759    7.7204   -7.8413 H   0  0  0  0  0  0  0  0  0  0  0  0
    9.9325    7.6596   -7.3156 H   0  0  0  0  0  0  0  0  0  0  0  0
   10.8874   10.1747   -7.4037 H   0  0  0  0  0  0  0  0  0  0  0  0
    9.9836    9.7886   -8.8894 H   0  0  0  0  0  0  0  0  0  0  0  0
   10.2416    8.8229   -5.1354 H   0  0  0  0  0  0  0  0  0  0  0  0
    0.9784    7.7081   -4.1514 H   0  0  0  0  0  0  0  0  0  0  0  0
    1.1991    9.6627   -5.6015 H   0  0  0  0  0  0  0  0  0  0  0  0
    3.9150   11.0250   -6.7352 H   0  0  0  0  0  0  0  0  0  0  0  0
    2.3092   10.7996   -7.4220 H   0  0  0  0  0  0  0  0  0  0  0  0
    3.7218   10.0703   -8.2039 H   0  0  0  0  0  0  0  0  0  0  0  0
    4.9378    8.1941   -7.0388 H   0  0  0  0  0  0  0  0  0  0  0  0
    4.7133    6.2165   -5.5978 H   0  0  0  0  0  0  0  0  0  0  0  0
    2.1322    4.7524   -6.2538 H   0  0  0  0  0  0  0  0  0  0  0  0
    2.8149    2.5695   -7.1550 H   0  0  0  0  0  0  0  0  0  0  0  0
    4.1040   -0.1226   -5.2232 H   0  0  0  0  0  0  0  0  0  0  0  0
    3.8177    0.4351   -6.8788 H   0  0  0  0  0  0  0  0  0  0  0  0
    5.4044    0.6354   -6.1311 H   0  0  0  0  0  0  0  0  0  0  0  0
    4.9681    1.7553   -3.5637 H   0  0  0  0  0  0  0  0  0  0  0  0
    4.3323    3.9693   -2.6834 H   0  0  0  0  0  0  0  0  0  0  0  0
   -1.9599    3.6357    3.0087 H   0  0  0  0  0  0  0  0  0  0  0  0
   -2.0319    1.7002    4.5128 H   0  0  0  0  0  0  0  0  0  0  0  0
   -1.2127   -0.5469    5.0192 H   0  0  0  0  0  0  0  0  0  0  0  0
    0.3087   -0.0284    5.7509 H   0  0  0  0  0  0  0  0  0  0  0  0
    0.3301   -1.1154    4.3639 H   0  0  0  0  0  0  0  0  0  0  0  0
    1.7854    0.4480    3.0812 H   0  0  0  0  0  0  0  0  0  0  0  0
    1.8650    2.3806    1.5802 H   0  0  0  0  0  0  0  0  0  0  0  0
   -1.7044    5.5670   -0.3133 H   0  0  0  0  0  0  0  0  0  0  0  0
   -2.7493    7.7266    0.2400 H   0  0  0  0  0  0  0  0  0  0  0  0
   -2.5342    9.3345    3.5999 H   0  0  0  0  0  0  0  0  0  0  0  0
   -1.9833    9.9495    2.0407 H   0  0  0  0  0  0  0  0  0  0  0  0
   -3.5660    9.1910    2.1683 H   0  0  0  0  0  0  0  0  0  0  0  0
   -0.9412    7.6104    4.1008 H   0  0  0  0  0  0  0  0  0  0  0  0
    0.1287    5.4710    3.5398 H   0  0  0  0  0  0  0  0  0  0  0  0
   -4.2834    3.3908    1.2311 H   0  0  0  0  0  0  0  0  0  0  0  0
   -4.5053    2.1533    2.5019 H   0  0  0  0  0  0  0  0  0  0  0  0
   -6.5039    2.2063    1.0057 H   0  0  0  0  0  0  0  0  0  0  0  0
   -5.4752    1.9190   -0.3986 H   0  0  0  0  0  0  0  0  0  0  0  0
   -5.6355    0.6678    0.8378 H   0  0  0  0  0  0  0  0  0  0  0  0
    0.5252   -5.2767    0.7158 H   0  0  0  0  0  0  0  0  0  0  0  0
    1.1860   -7.5745    0.1902 H   0  0  0  0  0  0  0  0  0  0  0  0
   -0.3048   -9.5881    0.1165 H   0  0  0  0  0  0  0  0  0  0  0  0
    0.2574  -11.1129   -0.6353 H   0  0  0  0  0  0  0  0  0  0  0  0
    1.4450   -9.9753    0.0382 H   0  0  0  0  0  0  0  0  0  0  0  0
   -0.8825   -7.3200   -3.5402 H   0  0  0  0  0  0  0  0  0  0  0  0
   -1.5801   -5.0150   -2.9934 H   0  0  0  0  0  0  0  0  0  0  0  0
    0.7258   -3.2171   -2.5896 H   0  0  0  0  0  0  0  0  0  0  0  0
    0.7328   -1.3141   -4.1151 H   0  0  0  0  0  0  0  0  0  0  0  0
    1.1979    0.9858   -4.3166 H   0  0  0  0  0  0  0  0  0  0  0  0
    0.5083    2.0013   -5.5939 H   0  0  0  0  0  0  0  0  0  0  0  0
    0.6009    0.2433   -5.8395 H   0  0  0  0  0  0  0  0  0  0  0  0
   -3.0959   -0.1144   -2.6374 H   0  0  0  0  0  0  0  0  0  0  0  0
   -3.1077   -2.0477   -1.1112 H   0  0  0  0  0  0  0  0  0  0  0  0
   -1.5313   -6.0557    5.4125 H   0  0  0  0  0  0  0  0  0  0  0  0
   -1.4591   -7.5452    7.3396 H   0  0  0  0  0  0  0  0  0  0  0  0
   -1.2750   -9.0173    9.1274 H   0  0  0  0  0  0  0  0  0  0  0  0
   -2.5173  -10.1004    9.7907 H   0  0  0  0  0  0  0  0  0  0  0  0
   -2.5845   -9.6483    8.0754 H   0  0  0  0  0  0  0  0  0  0  0  0
   -5.1467   -5.9060    8.7528 H   0  0  0  0  0  0  0  0  0  0  0  0
   -5.2406   -4.4289    6.7851 H   0  0  0  0  0  0  0  0  0  0  0  0
   -2.7832   -2.5764    6.6103 H   0  0  0  0  0  0  0  0  0  0  0  0
   -3.5219   -0.2194    6.6851 H   0  0  0  0  0  0  0  0  0  0  0  0
   -6.9670    1.1971    3.3672 H   0  0  0  0  0  0  0  0  0  0  0  0
   -7.3464    2.3113    4.6970 H   0  0  0  0  0  0  0  0  0  0  0  0
   -7.5250    0.5587    4.9441 H   0  0  0  0  0  0  0  0  0  0  0  0
   -6.0861   -0.9217    3.3347 H   0  0  0  0  0  0  0  0  0  0  0  0
   -5.3492   -3.2546    3.2632 H   0  0  0  0  0  0  0  0  0  0  0  0
   -4.1870   -6.8899    4.5346 H   0  0  0  0  0  0  0  0  0  0  0  0
   -0.8069  -11.3342    1.6834 H   0  0  0  0  0  0  0  0  0  0  0  0
   -3.7871  -12.1852    5.6866 H   0  0  0  0  0  0  0  0  0  0  0  0
   -1.4492  -14.6702    5.3811 H   0  0  0  0  0  0  0  0  0  0  0  0
   -3.7948  -15.5880    4.5152 H   0  0  0  0  0  0  0  0  0  0  0  0
   -2.0449  -17.5452    4.4079 H   0  0  0  0  0  0  0  0  0  0  0  0
   -0.4729  -17.1349    2.3058 H   0  0  0  0  0  0  0  0  0  0  0  0
   -1.2562  -14.9267    1.1175 H   0  0  0  0  0  0  0  0  0  0  0  0
   -3.5033  -14.0708    2.3169 H   0  0  0  0  0  0  0  0  0  0  0  0
   -3.6387  -15.7893    1.8801 H   0  0  0  0  0  0  0  0  0  0  0  0
    0.0918  -14.2689    3.3204 H   0  0  0  0  0  0  0  0  0  0  0  0
  1  2  2  0  0  0  0
  2  3  1  0  0  0  0
  3  4  2  0  0  0  0
  3  5  1  0  0  0  0
  5  6  2  0  0  0  0
  6  7  1  0  0  0  0
  7  8  2  0  0  0  0
  8  9  1  0  0  0  0
  9 10  2  0  0  0  0
 10 11  1  0  0  0  0
 11 12  2  0  0  0  0
 12 13  1  0  0  0  0
 13 14  3  0  0  0  0
 12 15  1  0  0  0  0
 15 16  3  0  0  0  0
  8 17  1  0  0  0  0
 17 18  1  0  0  0  0
 18 19  1  0  0  0  0
 19 20  2  0  0  0  0
 20 21  1  0  0  0  0
 21 22  1  0  0  0  0
 21 23  1  0  0  0  0
  1 24  1  0  0  0  0
 24 25  2  0  0  0  0
 25 26  1  0  0  0  0
 26 27  1  0  0  0  0
 27 28  2  0  0  0  0
 28 29  1  0  0  0  0
 29 30  2  0  0  0  0
 30 31  1  0  0  0  0
 30 32  1  0  0  0  0
 32 33  2  0  0  0  0
 26 34  1  0  0  0  0
 34 35  2  0  0  0  0
 35 36  1  0  0  0  0
 36 37  2  0  0  0  0
 37 38  1  0  0  0  0
 37 39  1  0  0  0  0
 39 40  2  0  0  0  0
 25 41  1  0  0  0  0
 41 42  1  0  0  0  0
 42 43  1  0  0  0  0
 43 44  2  0  0  0  0
 44 45  1  0  0  0  0
 45 46  1  0  0  0  0
 46 47  2  0  0  0  0
 47 48  1  0  0  0  0
 48 49  2  0  0  0  0
 49 50  1  0  0  0  0
 49 51  1  0  0  0  0
 51 52  2  0  0  0  0
 45 53  1  0  0  0  0
 53 54  2  0  0  0  0
 54 55  1  0  0  0  0
 55 56  2  0  0  0  0
 56 57  1  0  0  0  0
 56 58  1  0  0  0  0
 58 59  2  0  0  0  0
 44 60  1  0  0  0  0
 60 61  1  0  0  0  0
 43 62  1  0  0  0  0
 62 63  1  0  0  0  0
 63 64  2  0  0  0  0
 64 65  1  0  0  0  0
 65 66  1  0  0  0  0
 66 67  1  0  0  0  0
 65 68  1  0  0  0  0
 68 69  2  0  0  0  0
 69 70  1  0  0  0  0
 70 71  2  0  0  0  0
 71 72  1  0  0  0  0
 72 73  1  0  0  0  0
 71 74  1  0  0  0  0
 70 75  1  0  0  0  0
 75 76  2  0  0  0  0
 76 77  1  0  0  0  0
 77 78  1  0  0  0  0
 78 79  2  0  0  0  0
 79 80  1  0  0  0  0
 80 81  2  0  0  0  0
 81 82  1  0  0  0  0
 82 83  1  0  0  0  0
 81 84  1  0  0  0  0
 84 85  2  0  0  0  0
 77 86  1  0  0  0  0
 86 87  2  0  0  0  0
 87 88  1  0  0  0  0
 88 89  2  0  0  0  0
 89 90  1  0  0  0  0
 90 91  1  0  0  0  0
 89 92  1  0  0  0  0
 92 93  2  0  0  0  0
 76 94  1  0  0  0  0
 94 95  1  0  0  0  0
 95 96  1  0  0  0  0
 96 97  2  0  0  0  0
 97 98  1  0  0  0  0
 98 99  1  0  0  0  0
 99100  2  0  0  0  0
100101  1  0  0  0  0
101102  2  0  0  0  0
102103  1  0  0  0  0
103104  1  0  0  0  0
102105  1  0  0  0  0
105106  2  0  0  0  0
 98107  1  0  0  0  0
107108  2  0  0  0  0
108109  1  0  0  0  0
109110  2  0  0  0  0
110111  1  0  0  0  0
111112  1  0  0  0  0
110113  1  0  0  0  0
113114  2  0  0  0  0
 97115  1  0  0  0  0
115116  1  0  0  0  0
 96117  1  0  0  0  0
117118  2  0  0  0  0
118119  1  0  0  0  0
119120  2  0  0  0  0
119121  1  0  0  0  0
121122  2  0  0  0  0
122123  1  0  0  0  0
123124  2  0  0  0  0
124125  1  0  0  0  0
125126  2  0  0  0  0
126127  1  0  0  0  0
127128  2  0  0  0  0
128129  1  0  0  0  0
129130  3  0  0  0  0
128131  1  0  0  0  0
131132  3  0  0  0  0
124133  1  0  0  0  0
133134  1  0  0  0  0
134135  1  0  0  0  0
135136  2  0  0  0  0
136137  1  0  0  0  0
137138  1  0  0  0  0
137139  1  0  0  0  0
 11  2  1  0  0  0  0
 23 17  1  0  0  0  0
 61 24  1  0  0  0  0
 72 62  2  0  0  0  0
116 75  1  0  0  0  0
127118  1  0  0  0  0
139133  1  0  0  0  0
 10  5  1  0  0  0  0
 22 18  1  0  0  0  0
 33 27  1  0  0  0  0
 40 34  1  0  0  0  0
 60 41  2  0  0  0  0
 69 63  1  0  0  0  0
 85 78  1  0  0  0  0
 93 86  1  0  0  0  0
115 94  2  0  0  0  0
126121  1  0  0  0  0
138134  1  0  0  0  0
 23  7  1  0  0  0  0
 52 46  1  0  0  0  0
 59 53  1  0  0  0  0
106 99  1  0  0  0  0
114107  1  0  0  0  0
139123  1  0  0  0  0
  1140  1  0  0  0  0
  6141  1  0  0  0  0
  9142  1  0  0  0  0
 17143  1  0  0  0  0
 18144  1  0  0  0  0
 19145  1  0  0  0  0
 20146  1  0  0  0  0
 21147  1  0  0  0  0
 22148  1  0  0  0  0
 22149  1  0  0  0  0
 23150  1  0  0  0  0
 28151  1  0  0  0  0
 29152  1  0  0  0  0
 31153  1  0  0  0  0
 31154  1  0  0  0  0
 31155  1  0  0  0  0
 32156  1  0  0  0  0
 33157  1  0  0  0  0
 35158  1  0  0  0  0
 36159  1  0  0  0  0
 38160  1  0  0  0  0
 38161  1  0  0  0  0
 38162  1  0  0  0  0
 39163  1  0  0  0  0
 40164  1  0  0  0  0
 47165  1  0  0  0  0
 48166  1  0  0  0  0
 50167  1  0  0  0  0
 50168  1  0  0  0  0
 50169  1  0  0  0  0
 51170  1  0  0  0  0
 52171  1  0  0  0  0
 54172  1  0  0  0  0
 55173  1  0  0  0  0
 57174  1  0  0  0  0
 57175  1  0  0  0  0
 57176  1  0  0  0  0
 58177  1  0  0  0  0
 59178  1  0  0  0  0
 66179  1  0  0  0  0
 66180  1  0  0  0  0
 67181  1  0  0  0  0
 67182  1  0  0  0  0
 67183  1  0  0  0  0
 79184  1  0  0  0  0
 80185  1  0  0  0  0
 83186  1  0  0  0  0
 83187  1  0  0  0  0
 83188  1  0  0  0  0
 84189  1  0  0  0  0
 85190  1  0  0  0  0
 87191  1  0  0  0  0
 88192  1  0  0  0  0
 91193  1  0  0  0  0
 91194  1  0  0  0  0
 91195  1  0  0  0  0
 92196  1  0  0  0  0
 93197  1  0  0  0  0
100198  1  0  0  0  0
101199  1  0  0  0  0
104200  1  0  0  0  0
104201  1  0  0  0  0
104202  1  0  0  0  0
105203  1  0  0  0  0
106204  1  0  0  0  0
108205  1  0  0  0  0
109206  1  0  0  0  0
112207  1  0  0  0  0
112208  1  0  0  0  0
112209  1  0  0  0  0
113210  1  0  0  0  0
114211  1  0  0  0  0
117212  1  0  0  0  0
122213  1  0  0  0  0
125214  1  0  0  0  0
133215  1  0  0  0  0
134216  1  0  0  0  0
135217  1  0  0  0  0
136218  1  0  0  0  0
137219  1  0  0  0  0
138220  1  0  0  0  0
138221  1  0  0  0  0
139222  1  0  0  0  0
M  END
