
  xtb     02132219063D
 energy: -323.990849875849 gnorm: 0.000364448972 xtb: 6.4.1 (unknown)
202220  0     0  0            999 V2000
   -1.9627   -5.7474   -3.0743 C   0  0  0  0  0  0  0  0  0  0  0  0
   -1.9419   -5.4489   -4.4037 C   0  0  0  0  0  0  0  0  0  0  0  0
   -0.8612   -4.6318   -5.0067 C   0  0  0  0  0  0  0  0  0  0  0  0
    0.0430   -4.0731   -4.4244 O   0  0  0  0  0  0  0  0  0  0  0  0
   -1.0225   -4.7821   -6.4639 C   0  0  0  0  0  0  0  0  0  0  0  0
   -0.2140   -4.2268   -7.4525 C   0  0  0  0  0  0  0  0  0  0  0  0
   -0.6035   -4.5379   -8.7326 C   0  0  0  0  0  0  0  0  0  0  0  0
   -1.7109   -5.3505   -9.0125 C   0  0  0  0  0  0  0  0  0  0  0  0
   -2.5078   -5.9182   -8.0472 C   0  0  0  0  0  0  0  0  0  0  0  0
   -2.1308   -5.6097   -6.7363 C   0  0  0  0  0  0  0  0  0  0  0  0
   -2.7312   -6.0154   -5.4702 C   0  0  0  0  0  0  0  0  0  0  0  0
   -3.9155   -6.6850   -5.2945 C   0  0  0  0  0  0  0  0  0  0  0  0
   -4.4954   -6.8990   -4.0270 C   0  0  0  0  0  0  0  0  0  0  0  0
   -5.0262   -7.0696   -3.0228 N   0  0  0  0  0  0  0  0  0  0  0  0
   -4.7128   -7.1866   -6.3411 C   0  0  0  0  0  0  0  0  0  0  0  0
   -5.3951   -7.6223   -7.1557 N   0  0  0  0  0  0  0  0  0  0  0  0
   -1.5201   -5.2344  -10.5046 C   0  0  0  0  0  0  0  0  0  0  0  0
   -2.4664   -4.2663  -11.2463 C   0  0  0  0  0  0  0  0  0  0  0  0
   -1.7578   -4.0015  -12.5550 C   0  0  0  0  0  0  0  0  0  0  0  0
   -0.7027   -3.2402  -12.2954 C   0  0  0  0  0  0  0  0  0  0  0  0
   -0.6812   -2.9764  -10.8071 C   0  0  0  0  0  0  0  0  0  0  0  0
   -2.1883   -2.9425  -10.5222 C   0  0  0  0  0  0  0  0  0  0  0  0
   -0.2815   -4.3342  -10.1929 C   0  0  0  0  0  0  0  0  0  0  0  0
   -1.4509   -4.8553   -2.0916 C   0  0  0  0  0  0  0  0  0  0  0  0
   -1.8268   -3.5231   -1.9530 C   0  0  0  0  0  0  0  0  0  0  0  0
   -2.6802   -2.8292   -2.8186 N   0  0  0  0  0  0  0  0  0  0  0  0
   -2.1490   -2.2043   -3.9534 C   0  0  0  0  0  0  0  0  0  0  0  0
   -2.8689   -2.1794   -5.1451 C   0  0  0  0  0  0  0  0  0  0  0  0
   -2.3192   -1.6075   -6.2750 C   0  0  0  0  0  0  0  0  0  0  0  0
   -1.0394   -1.0652   -6.2553 C   0  0  0  0  0  0  0  0  0  0  0  0
   -0.4496   -0.4469   -7.4872 C   0  0  0  0  0  0  0  0  0  0  0  0
   -0.3270   -1.0988   -5.0635 C   0  0  0  0  0  0  0  0  0  0  0  0
   -0.8717   -1.6513   -3.9211 C   0  0  0  0  0  0  0  0  0  0  0  0
   -4.0029   -2.6336   -2.4140 C   0  0  0  0  0  0  0  0  0  0  0  0
   -4.6538   -3.6075   -1.6592 C   0  0  0  0  0  0  0  0  0  0  0  0
   -5.9636   -3.4222   -1.2616 C   0  0  0  0  0  0  0  0  0  0  0  0
   -6.6597   -2.2684   -1.5952 C   0  0  0  0  0  0  0  0  0  0  0  0
   -8.0871   -2.0758   -1.1826 C   0  0  0  0  0  0  0  0  0  0  0  0
   -6.0012   -1.2974   -2.3425 C   0  0  0  0  0  0  0  0  0  0  0  0
   -4.6931   -1.4680   -2.7451 C   0  0  0  0  0  0  0  0  0  0  0  0
   -1.3468   -2.9900   -0.7431 C   0  0  0  0  0  0  0  0  0  0  0  0
   -1.4038   -1.4143   -0.0491 S   0  0  0  0  0  0  0  0  0  0  0  0
   -0.2967   -1.9164    1.2290 C   0  0  0  0  0  0  0  0  0  0  0  0
    0.0992   -3.2406    1.0987 C   0  0  0  0  0  0  0  0  0  0  0  0
    1.0802   -3.8572    1.8530 N   0  0  0  0  0  0  0  0  0  0  0  0
    1.0760   -5.2565    1.9782 C   0  0  0  0  0  0  0  0  0  0  0  0
   -0.1240   -5.9462    2.1264 C   0  0  0  0  0  0  0  0  0  0  0  0
   -0.1308   -7.3217    2.2552 C   0  0  0  0  0  0  0  0  0  0  0  0
    1.0506   -8.0491    2.2350 C   0  0  0  0  0  0  0  0  0  0  0  0
    1.0444   -9.5421    2.3545 C   0  0  0  0  0  0  0  0  0  0  0  0
    2.2452   -7.3553    2.0727 C   0  0  0  0  0  0  0  0  0  0  0  0
    2.2652   -5.9822    1.9411 C   0  0  0  0  0  0  0  0  0  0  0  0
    2.2041   -3.1238    2.2668 C   0  0  0  0  0  0  0  0  0  0  0  0
    2.7253   -2.0980    1.4794 C   0  0  0  0  0  0  0  0  0  0  0  0
    3.8126   -1.3696    1.9151 C   0  0  0  0  0  0  0  0  0  0  0  0
    4.4351   -1.6586    3.1241 C   0  0  0  0  0  0  0  0  0  0  0  0
    5.5934   -0.8358    3.5997 C   0  0  0  0  0  0  0  0  0  0  0  0
    3.9403   -2.7143    3.8798 C   0  0  0  0  0  0  0  0  0  0  0  0
    2.8306   -3.4300    3.4702 C   0  0  0  0  0  0  0  0  0  0  0  0
   -0.5504   -3.8530   -0.0042 C   0  0  0  0  0  0  0  0  0  0  0  0
   -0.4844   -5.4159   -0.7420 S   0  0  0  0  0  0  0  0  0  0  0  0
    0.1784   -0.8622    2.0785 C   0  0  0  0  0  0  0  0  0  0  0  0
    0.3473   -0.7480    3.4509 C   0  0  0  0  0  0  0  0  0  0  0  0
   -0.0443   -1.6812    4.3888 N   0  0  0  0  0  0  0  0  0  0  0  0
   -1.0692   -2.6033    4.1170 C   0  0  0  0  0  0  0  0  0  0  0  0
   -2.1696   -2.2713    3.3326 C   0  0  0  0  0  0  0  0  0  0  0  0
   -3.1477   -3.2075    3.0532 C   0  0  0  0  0  0  0  0  0  0  0  0
   -3.0565   -4.4868    3.5835 C   0  0  0  0  0  0  0  0  0  0  0  0
   -4.2150   -5.7779    3.2571 S   0  0  0  0  0  0  0  0  0  0  0  0
   -5.1829   -5.1359    1.8627 C   0  0  0  0  0  0  0  0  0  0  0  0
   -1.9890   -4.8038    4.4236 C   0  0  0  0  0  0  0  0  0  0  0  0
   -1.0002   -3.8805    4.6742 C   0  0  0  0  0  0  0  0  0  0  0  0
    0.4324   -1.6102    5.7105 C   0  0  0  0  0  0  0  0  0  0  0  0
   -0.4569   -1.7356    6.7800 C   0  0  0  0  0  0  0  0  0  0  0  0
   -0.0010   -1.6635    8.0755 C   0  0  0  0  0  0  0  0  0  0  0  0
    1.3533   -1.4612    8.3408 C   0  0  0  0  0  0  0  0  0  0  0  0
    1.8139   -1.3722   10.0426 S   0  0  0  0  0  0  0  0  0  0  0  0
    3.5832   -0.9670    9.9948 C   0  0  0  0  0  0  0  0  0  0  0  0
    2.2418   -1.3461    7.2832 C   0  0  0  0  0  0  0  0  0  0  0  0
    1.7826   -1.4179    5.9805 C   0  0  0  0  0  0  0  0  0  0  0  0
    0.9057    0.5194    3.7735 C   0  0  0  0  0  0  0  0  0  0  0  0
    1.3692    1.3041    5.2410 S   0  0  0  0  0  0  0  0  0  0  0  0
    1.8658    2.7642    4.3663 C   0  0  0  0  0  0  0  0  0  0  0  0
    1.6002    2.6542    3.0018 C   0  0  0  0  0  0  0  0  0  0  0  0
    1.7645    3.6095    2.0173 N   0  0  0  0  0  0  0  0  0  0  0  0
    1.4918    4.9657    2.1958 C   0  0  0  0  0  0  0  0  0  0  0  0
    2.1081    5.8995    1.3595 C   0  0  0  0  0  0  0  0  0  0  0  0
    1.9059    7.2456    1.5500 C   0  0  0  0  0  0  0  0  0  0  0  0
    1.1022    7.6896    2.5934 C   0  0  0  0  0  0  0  0  0  0  0  0
    0.9817    9.4338    2.8794 S   0  0  0  0  0  0  0  0  0  0  0  0
    1.0089    9.4804    4.6985 C   0  0  0  0  0  0  0  0  0  0  0  0
    0.4329    6.7708    3.3863 C   0  0  0  0  0  0  0  0  0  0  0  0
    0.6219    5.4179    3.1865 C   0  0  0  0  0  0  0  0  0  0  0  0
    1.9750    3.1413    0.7015 C   0  0  0  0  0  0  0  0  0  0  0  0
    1.1236    3.5284   -0.3282 C   0  0  0  0  0  0  0  0  0  0  0  0
    1.2837    3.0209   -1.6016 C   0  0  0  0  0  0  0  0  0  0  0  0
    2.3050    2.1172   -1.8660 C   0  0  0  0  0  0  0  0  0  0  0  0
    2.5740    1.3723   -3.4403 S   0  0  0  0  0  0  0  0  0  0  0  0
    1.3545    2.1735   -4.5216 C   0  0  0  0  0  0  0  0  0  0  0  0
    3.1780    1.7495   -0.8429 C   0  0  0  0  0  0  0  0  0  0  0  0
    3.0169    2.2563    0.4279 C   0  0  0  0  0  0  0  0  0  0  0  0
    1.0932    1.3640    2.6934 C   0  0  0  0  0  0  0  0  0  0  0  0
    0.5926    0.6202    1.2229 S   0  0  0  0  0  0  0  0  0  0  0  0
    2.4969    3.7625    5.1503 C   0  0  0  0  0  0  0  0  0  0  0  0
    2.6345    3.6909    6.5340 C   0  0  0  0  0  0  0  0  0  0  0  0
    3.3232    4.7604    7.0661 C   0  0  0  0  0  0  0  0  0  0  0  0
    3.7381    5.6979    6.1213 C   0  0  0  0  0  0  0  0  0  0  0  0
    3.2397    5.2026    4.5267 S   0  0  0  0  0  0  0  0  0  0  0  0
    4.4621    6.8521    6.4890 C   0  0  0  0  0  0  0  0  0  0  0  0
    4.9480    7.9109    5.7798 C   0  0  0  0  0  0  0  0  0  0  0  0
    4.6943    8.0804    4.3653 C   0  0  0  0  0  0  0  0  0  0  0  0
    3.9399    7.3740    3.7110 O   0  0  0  0  0  0  0  0  0  0  0  0
    5.3119    9.1608    3.7258 N   0  0  0  0  0  0  0  0  0  0  0  0
    4.8315    9.5028    2.3890 C   0  0  0  0  0  0  0  0  0  0  0  0
    5.4562    8.6171    1.3193 C   0  0  0  0  0  0  0  0  0  0  0  0
    6.4567    9.7781    4.1564 C   0  0  0  0  0  0  0  0  0  0  0  0
    7.0368   10.6021    3.4944 O   0  0  0  0  0  0  0  0  0  0  0  0
    6.9354    9.3223    5.5351 C   0  0  0  0  0  0  0  0  0  0  0  0
    7.7914   10.3389    6.1022 C   0  0  0  0  0  0  0  0  0  0  0  0
    8.4512   11.1415    6.5761 N   0  0  0  0  0  0  0  0  0  0  0  0
    5.7254    9.0264    6.4432 C   0  0  0  0  0  0  0  0  0  0  0  0
    6.1811    8.7405    7.8714 C   0  0  0  0  0  0  0  0  0  0  0  0
   -2.4032   -6.6709   -2.7183 H   0  0  0  0  0  0  0  0  0  0  0  0
    0.6300   -3.6087   -7.1914 H   0  0  0  0  0  0  0  0  0  0  0  0
   -3.3459   -6.5569   -8.2732 H   0  0  0  0  0  0  0  0  0  0  0  0
   -1.3645   -6.1695  -11.0392 H   0  0  0  0  0  0  0  0  0  0  0  0
   -3.4996   -4.5970  -11.3068 H   0  0  0  0  0  0  0  0  0  0  0  0
   -2.0545   -4.4282  -13.4950 H   0  0  0  0  0  0  0  0  0  0  0  0
    0.0582   -2.9038  -12.9750 H   0  0  0  0  0  0  0  0  0  0  0  0
   -0.0845   -2.1322  -10.4714 H   0  0  0  0  0  0  0  0  0  0  0  0
   -2.4390   -2.9594   -9.4629 H   0  0  0  0  0  0  0  0  0  0  0  0
   -2.6812   -2.0988  -11.0031 H   0  0  0  0  0  0  0  0  0  0  0  0
    0.7017   -4.6739  -10.5131 H   0  0  0  0  0  0  0  0  0  0  0  0
   -3.8548   -2.6214   -5.1798 H   0  0  0  0  0  0  0  0  0  0  0  0
   -2.8887   -1.5993   -7.1940 H   0  0  0  0  0  0  0  0  0  0  0  0
   -0.8832   -0.8844   -8.3834 H   0  0  0  0  0  0  0  0  0  0  0  0
   -0.6530    0.6252   -7.5042 H   0  0  0  0  0  0  0  0  0  0  0  0
    0.6294   -0.5844   -7.5105 H   0  0  0  0  0  0  0  0  0  0  0  0
    0.6758   -0.7000   -5.0254 H   0  0  0  0  0  0  0  0  0  0  0  0
   -0.2993   -1.6707   -3.0072 H   0  0  0  0  0  0  0  0  0  0  0  0
   -4.1398   -4.5233   -1.4072 H   0  0  0  0  0  0  0  0  0  0  0  0
   -6.4554   -4.1979   -0.6929 H   0  0  0  0  0  0  0  0  0  0  0  0
   -8.3565   -2.7601   -0.3819 H   0  0  0  0  0  0  0  0  0  0  0  0
   -8.2578   -1.0544   -0.8475 H   0  0  0  0  0  0  0  0  0  0  0  0
   -8.7498   -2.2646   -2.0276 H   0  0  0  0  0  0  0  0  0  0  0  0
   -6.5214   -0.3877   -2.6070 H   0  0  0  0  0  0  0  0  0  0  0  0
   -4.1943   -0.6975   -3.3141 H   0  0  0  0  0  0  0  0  0  0  0  0
   -1.0522   -5.3998    2.1545 H   0  0  0  0  0  0  0  0  0  0  0  0
   -1.0751   -7.8318    2.3765 H   0  0  0  0  0  0  0  0  0  0  0  0
    1.1074   -9.9949    1.3644 H   0  0  0  0  0  0  0  0  0  0  0  0
    0.1295   -9.8896    2.8278 H   0  0  0  0  0  0  0  0  0  0  0  0
    1.8972   -9.8883    2.9346 H   0  0  0  0  0  0  0  0  0  0  0  0
    3.1770   -7.9016    2.0400 H   0  0  0  0  0  0  0  0  0  0  0  0
    3.2041   -5.4672    1.8017 H   0  0  0  0  0  0  0  0  0  0  0  0
    2.2872   -1.8795    0.5172 H   0  0  0  0  0  0  0  0  0  0  0  0
    4.1944   -0.5716    1.2953 H   0  0  0  0  0  0  0  0  0  0  0  0
    6.1165   -1.3323    4.4133 H   0  0  0  0  0  0  0  0  0  0  0  0
    6.2963   -0.6536    2.7890 H   0  0  0  0  0  0  0  0  0  0  0  0
    5.2415    0.1324    3.9598 H   0  0  0  0  0  0  0  0  0  0  0  0
    4.4193   -2.9749    4.8131 H   0  0  0  0  0  0  0  0  0  0  0  0
    2.4434   -4.2302    4.0830 H   0  0  0  0  0  0  0  0  0  0  0  0
   -2.2775   -1.2687    2.9478 H   0  0  0  0  0  0  0  0  0  0  0  0
   -3.9789   -2.9183    2.4300 H   0  0  0  0  0  0  0  0  0  0  0  0
   -5.7728   -5.9742    1.5049 H   0  0  0  0  0  0  0  0  0  0  0  0
   -5.8396   -4.3364    2.1943 H   0  0  0  0  0  0  0  0  0  0  0  0
   -4.5131   -4.7933    1.0799 H   0  0  0  0  0  0  0  0  0  0  0  0
   -1.9317   -5.7935    4.8493 H   0  0  0  0  0  0  0  0  0  0  0  0
   -0.1625   -4.1430    5.3020 H   0  0  0  0  0  0  0  0  0  0  0  0
   -1.5087   -1.8834    6.5861 H   0  0  0  0  0  0  0  0  0  0  0  0
   -0.6896   -1.7527    8.9016 H   0  0  0  0  0  0  0  0  0  0  0  0
    3.7355   -0.0418    9.4469 H   0  0  0  0  0  0  0  0  0  0  0  0
    4.1428   -1.7861    9.5524 H   0  0  0  0  0  0  0  0  0  0  0  0
    3.8806   -0.8368   11.0307 H   0  0  0  0  0  0  0  0  0  0  0  0
    3.2963   -1.1989    7.4506 H   0  0  0  0  0  0  0  0  0  0  0  0
    2.4827   -1.3380    5.1652 H   0  0  0  0  0  0  0  0  0  0  0  0
    2.7721    5.5595    0.5795 H   0  0  0  0  0  0  0  0  0  0  0  0
    2.3948    7.9649    0.9125 H   0  0  0  0  0  0  0  0  0  0  0  0
    1.7177    8.7378    5.0527 H   0  0  0  0  0  0  0  0  0  0  0  0
    1.3336   10.4785    4.9758 H   0  0  0  0  0  0  0  0  0  0  0  0
    0.0171    9.2937    5.1001 H   0  0  0  0  0  0  0  0  0  0  0  0
   -0.2310    7.1007    4.1704 H   0  0  0  0  0  0  0  0  0  0  0  0
    0.0989    4.7077    3.8097 H   0  0  0  0  0  0  0  0  0  0  0  0
    0.3189    4.2184   -0.1217 H   0  0  0  0  0  0  0  0  0  0  0  0
    0.5931    3.3238   -2.3713 H   0  0  0  0  0  0  0  0  0  0  0  0
    1.5530    1.7923   -5.5186 H   0  0  0  0  0  0  0  0  0  0  0  0
    1.4982    3.2499   -4.5063 H   0  0  0  0  0  0  0  0  0  0  0  0
    0.3481    1.8995   -4.2178 H   0  0  0  0  0  0  0  0  0  0  0  0
    3.9775    1.0580   -1.0613 H   0  0  0  0  0  0  0  0  0  0  0  0
    3.6860    1.9659    1.2245 H   0  0  0  0  0  0  0  0  0  0  0  0
    2.2264    2.8841    7.1178 H   0  0  0  0  0  0  0  0  0  0  0  0
    3.5196    4.8800    8.1176 H   0  0  0  0  0  0  0  0  0  0  0  0
    4.6595    6.8657    7.5539 H   0  0  0  0  0  0  0  0  0  0  0  0
    5.0924   10.5484    2.2166 H   0  0  0  0  0  0  0  0  0  0  0  0
    3.7466    9.3870    2.3953 H   0  0  0  0  0  0  0  0  0  0  0  0
    5.1899    7.5773    1.4934 H   0  0  0  0  0  0  0  0  0  0  0  0
    5.0906    8.9162    0.3409 H   0  0  0  0  0  0  0  0  0  0  0  0
    6.5390    8.7203    1.3316 H   0  0  0  0  0  0  0  0  0  0  0  0
    7.5327    8.4089    5.4055 H   0  0  0  0  0  0  0  0  0  0  0  0
    5.0964    9.9289    6.4587 H   0  0  0  0  0  0  0  0  0  0  0  0
    6.7996    9.5617    8.2272 H   0  0  0  0  0  0  0  0  0  0  0  0
    5.3287    8.6538    8.5406 H   0  0  0  0  0  0  0  0  0  0  0  0
    6.7680    7.8251    7.9172 H   0  0  0  0  0  0  0  0  0  0  0  0
  1  2  2  0  0  0  0
  2  3  1  0  0  0  0
  3  4  2  0  0  0  0
  3  5  1  0  0  0  0
  5  6  2  0  0  0  0
  6  7  1  0  0  0  0
  7  8  2  0  0  0  0
  8  9  1  0  0  0  0
  9 10  2  0  0  0  0
 10 11  1  0  0  0  0
 11 12  2  0  0  0  0
 12 13  1  0  0  0  0
 13 14  3  0  0  0  0
 12 15  1  0  0  0  0
 15 16  3  0  0  0  0
  8 17  1  0  0  0  0
 17 18  1  0  0  0  0
 18 19  1  0  0  0  0
 19 20  2  0  0  0  0
 20 21  1  0  0  0  0
 21 22  1  0  0  0  0
 21 23  1  0  0  0  0
  1 24  1  0  0  0  0
 24 25  2  0  0  0  0
 25 26  1  0  0  0  0
 26 27  1  0  0  0  0
 27 28  2  0  0  0  0
 28 29  1  0  0  0  0
 29 30  2  0  0  0  0
 30 31  1  0  0  0  0
 30 32  1  0  0  0  0
 32 33  2  0  0  0  0
 26 34  1  0  0  0  0
 34 35  2  0  0  0  0
 35 36  1  0  0  0  0
 36 37  2  0  0  0  0
 37 38  1  0  0  0  0
 37 39  1  0  0  0  0
 39 40  2  0  0  0  0
 25 41  1  0  0  0  0
 41 42  1  0  0  0  0
 42 43  1  0  0  0  0
 43 44  2  0  0  0  0
 44 45  1  0  0  0  0
 45 46  1  0  0  0  0
 46 47  2  0  0  0  0
 47 48  1  0  0  0  0
 48 49  2  0  0  0  0
 49 50  1  0  0  0  0
 49 51  1  0  0  0  0
 51 52  2  0  0  0  0
 45 53  1  0  0  0  0
 53 54  2  0  0  0  0
 54 55  1  0  0  0  0
 55 56  2  0  0  0  0
 56 57  1  0  0  0  0
 56 58  1  0  0  0  0
 58 59  2  0  0  0  0
 44 60  1  0  0  0  0
 60 61  1  0  0  0  0
 43 62  1  0  0  0  0
 62 63  2  0  0  0  0
 63 64  1  0  0  0  0
 64 65  1  0  0  0  0
 65 66  2  0  0  0  0
 66 67  1  0  0  0  0
 67 68  2  0  0  0  0
 68 69  1  0  0  0  0
 69 70  1  0  0  0  0
 68 71  1  0  0  0  0
 71 72  2  0  0  0  0
 64 73  1  0  0  0  0
 73 74  2  0  0  0  0
 74 75  1  0  0  0  0
 75 76  2  0  0  0  0
 76 77  1  0  0  0  0
 77 78  1  0  0  0  0
 76 79  1  0  0  0  0
 79 80  2  0  0  0  0
 63 81  1  0  0  0  0
 81 82  1  0  0  0  0
 82 83  1  0  0  0  0
 83 84  2  0  0  0  0
 84 85  1  0  0  0  0
 85 86  1  0  0  0  0
 86 87  2  0  0  0  0
 87 88  1  0  0  0  0
 88 89  2  0  0  0  0
 89 90  1  0  0  0  0
 90 91  1  0  0  0  0
 89 92  1  0  0  0  0
 92 93  2  0  0  0  0
 85 94  1  0  0  0  0
 94 95  2  0  0  0  0
 95 96  1  0  0  0  0
 96 97  2  0  0  0  0
 97 98  1  0  0  0  0
 98 99  1  0  0  0  0
 97100  1  0  0  0  0
100101  2  0  0  0  0
 84102  1  0  0  0  0
102103  1  0  0  0  0
 83104  1  0  0  0  0
104105  2  0  0  0  0
105106  1  0  0  0  0
106107  2  0  0  0  0
107108  1  0  0  0  0
107109  1  0  0  0  0
109110  2  0  0  0  0
110111  1  0  0  0  0
111112  2  0  0  0  0
111113  1  0  0  0  0
113114  1  0  0  0  0
114115  1  0  0  0  0
113116  1  0  0  0  0
116117  2  0  0  0  0
116118  1  0  0  0  0
118119  1  0  0  0  0
119120  3  0  0  0  0
118121  1  0  0  0  0
121122  1  0  0  0  0
 11  2  1  0  0  0  0
 23 17  1  0  0  0  0
 61 24  1  0  0  0  0
103 62  1  0  0  0  0
108104  1  0  0  0  0
121110  1  0  0  0  0
 10  5  1  0  0  0  0
 22 18  1  0  0  0  0
 33 27  1  0  0  0  0
 40 34  1  0  0  0  0
 60 41  2  0  0  0  0
 72 65  1  0  0  0  0
 80 73  1  0  0  0  0
102 81  2  0  0  0  0
 23  7  1  0  0  0  0
 52 46  1  0  0  0  0
 59 53  1  0  0  0  0
 93 86  1  0  0  0  0
101 94  1  0  0  0  0
  1123  1  0  0  0  0
  6124  1  0  0  0  0
  9125  1  0  0  0  0
 17126  1  0  0  0  0
 18127  1  0  0  0  0
 19128  1  0  0  0  0
 20129  1  0  0  0  0
 21130  1  0  0  0  0
 22131  1  0  0  0  0
 22132  1  0  0  0  0
 23133  1  0  0  0  0
 28134  1  0  0  0  0
 29135  1  0  0  0  0
 31136  1  0  0  0  0
 31137  1  0  0  0  0
 31138  1  0  0  0  0
 32139  1  0  0  0  0
 33140  1  0  0  0  0
 35141  1  0  0  0  0
 36142  1  0  0  0  0
 38143  1  0  0  0  0
 38144  1  0  0  0  0
 38145  1  0  0  0  0
 39146  1  0  0  0  0
 40147  1  0  0  0  0
 47148  1  0  0  0  0
 48149  1  0  0  0  0
 50150  1  0  0  0  0
 50151  1  0  0  0  0
 50152  1  0  0  0  0
 51153  1  0  0  0  0
 52154  1  0  0  0  0
 54155  1  0  0  0  0
 55156  1  0  0  0  0
 57157  1  0  0  0  0
 57158  1  0  0  0  0
 57159  1  0  0  0  0
 58160  1  0  0  0  0
 59161  1  0  0  0  0
 66162  1  0  0  0  0
 67163  1  0  0  0  0
 70164  1  0  0  0  0
 70165  1  0  0  0  0
 70166  1  0  0  0  0
 71167  1  0  0  0  0
 72168  1  0  0  0  0
 74169  1  0  0  0  0
 75170  1  0  0  0  0
 78171  1  0  0  0  0
 78172  1  0  0  0  0
 78173  1  0  0  0  0
 79174  1  0  0  0  0
 80175  1  0  0  0  0
 87176  1  0  0  0  0
 88177  1  0  0  0  0
 91178  1  0  0  0  0
 91179  1  0  0  0  0
 91180  1  0  0  0  0
 92181  1  0  0  0  0
 93182  1  0  0  0  0
 95183  1  0  0  0  0
 96184  1  0  0  0  0
 99185  1  0  0  0  0
 99186  1  0  0  0  0
 99187  1  0  0  0  0
100188  1  0  0  0  0
101189  1  0  0  0  0
105190  1  0  0  0  0
106191  1  0  0  0  0
109192  1  0  0  0  0
114193  1  0  0  0  0
114194  1  0  0  0  0
115195  1  0  0  0  0
115196  1  0  0  0  0
115197  1  0  0  0  0
118198  1  0  0  0  0
121199  1  0  0  0  0
122200  1  0  0  0  0
122201  1  0  0  0  0
122202  1  0  0  0  0
M  END
