170

C          0.04350        0.07870       -6.38730
C          0.94090        0.69690       -7.23130
C          2.04300        1.55500       -6.76980
O          2.35140        1.80920       -5.61940
C          2.61500        2.16360       -7.99000
C          3.66930        3.06770       -8.06230
C          3.98080        3.46440       -9.34170
C          3.28760        3.00290      -10.46660
C          2.24200        2.11130      -10.40800
C          1.91550        1.69210       -9.11740
C          0.88940        0.75490       -8.66420
C          0.12480       -0.05490       -9.46950
C          0.18220       -0.06270      -10.87440
N          0.19250       -0.12810      -12.02210
C         -0.75440       -1.04280       -8.98470
N         -1.46380       -1.88750       -8.66320
C          4.11520        3.83200      -11.41720
C          3.48410        5.12830      -11.98250
C          2.46760        5.58930      -10.96800
C          3.12720        6.02410       -9.90280
C          4.60190        5.86530      -10.17830
C          4.62310        6.11940      -11.69400
C          4.89140        4.34400      -10.16300
C          0.28170       -0.27610       -5.05710
C          1.47920       -0.56200       -4.36830
N          2.71270       -0.74060       -4.91950
C          2.90910       -1.09130       -6.26290
C          2.09010       -2.02390       -6.89810
C          2.28150       -2.32000       -8.23090
C          3.28650       -1.70090       -8.97130
C          3.43920       -1.99080      -10.43130
C          4.12590       -0.80760       -8.32000
C          3.94820       -0.50580       -6.98260
C          3.86160       -0.59580       -4.10960
C          4.84890       -1.57520       -4.13140
C          5.96760       -1.44010       -3.33420
C          6.12840       -0.33450       -2.50590
C          7.32910       -0.22030       -1.61850
C          5.14430        0.64640       -2.50960
C          4.01960        0.52510       -3.30240
C          1.21550       -0.77740       -2.99270
S          2.20520       -1.18550       -1.63380
C          0.79740       -1.22630       -0.59580
C         -0.38950       -1.00730       -1.28000
N         -1.66470       -1.11240       -0.76090
C         -1.94080       -1.96730        0.31700
C         -2.80950       -1.57050        1.33270
C         -3.00210       -2.37150        2.43860
C         -2.34850       -3.59250        2.56690
C         -2.54580       -4.42330        3.79520
C         -1.52950       -4.00740        1.52530
C         -1.32990       -3.21500        0.41090
C         -2.66040       -0.25170       -1.24700
C         -3.96840       -0.70450       -1.40060
C         -4.94100        0.14300       -1.89010
C         -4.64200        1.45430       -2.24520
C         -5.69990        2.35160       -2.81040
C         -3.33650        1.89900       -2.08420
C         -2.35440        1.06390       -1.58670
C         -0.12810       -0.73890       -2.64710
S         -1.13820       -0.43830       -4.01120
C          0.93320       -1.48120        0.81930
C          1.72900       -2.48880        1.32830
F          2.46770       -3.24810        0.49890
C          1.75080       -2.80470        2.69470
F          2.54310       -3.81510        3.09860
C          0.97630       -2.12890        3.60820
C          0.16580       -1.07100        3.12280
N         -0.68360       -0.45460        3.95860
C         -1.39470        0.55490        3.52960
C         -2.34750        1.13850        4.52630
C         -1.68630        2.28500        5.29480
C         -1.20960        1.05140        2.20510
N         -0.46430        0.39280        1.35210
C          0.19040       -0.70680        1.75620
C         -1.82530        2.31930        1.69490
C         -0.73620        3.34110        1.36430
C          0.89960       -2.46740        5.03030
C          1.01670       -1.46960        5.99990
F          1.41350       -0.23170        5.64890
C          0.77730       -1.71540        7.33130
C          0.42050       -3.00130        7.74520
C          0.40590       -4.03020        6.80200
C          0.62350       -3.76030        5.46680
C          0.08400       -3.25910        9.12880
C         -0.57080       -2.42490        9.96120
C         -0.53520       -2.63570       11.44040
O         -0.22250       -3.65080       12.01570
C         -0.89720       -1.33040       12.02220
C         -0.86380       -0.97030       13.36830
C         -1.23490        0.33010       13.61060
C         -1.59990        1.22020       12.58950
C         -1.64000        0.88120       11.25890
C         -1.28150       -0.44340       10.99220
C         -1.25210       -1.16020        9.72330
C         -1.94220       -0.81580        8.59400
C         -2.65310        0.39200        8.43790
N         -3.23670        1.36200        8.24670
C         -2.11110       -1.66850        7.48180
N         -2.35680       -2.33680        6.58180
C         -1.84510        2.35180       13.55500
C         -3.31580        2.69620       13.89690
C         -4.10970        1.42880       13.69640
C         -3.77310        0.58370       14.66170
C         -2.74550        1.26400       15.53230
C         -3.22650        2.72040       15.43120
C         -1.44720        1.35870       14.69230
H         -0.95770       -0.11850       -6.75190
H          4.17680        3.40200       -7.17060
H          1.70970        1.77140      -11.28100
H          4.67280        3.28040      -12.17190
H          3.13610        5.05040      -13.00910
H          1.40530        5.49960      -11.10110
H          2.72600        6.36980       -8.96820
H          5.27220        6.45920       -9.56210
H          5.56580        5.84650      -12.16680
H          4.36510        7.14520      -11.95310
H          5.95590        4.12530      -10.09910
H          1.30100       -2.51230       -6.34640
H          1.63350       -3.03880       -8.71080
H          3.42380       -3.06370      -10.61380
H          4.36940       -1.57950      -10.81490
H          2.61380       -1.54990      -10.99120
H          4.92240       -0.32540       -8.86810
H          4.60360        0.19690       -6.49040
H          4.72950       -2.43970       -4.76810
H          6.72620       -2.20900       -3.34890
H          7.49450        0.81070       -1.31580
H          7.18020       -0.81860       -0.71920
H          8.22020       -0.58990       -2.12110
H          5.26090        1.52090       -1.88620
H          3.26970        1.29990       -3.32830
H         -3.31260       -0.61710        1.25940
H         -3.65460       -2.03700        3.23150
H         -3.58270       -4.75060        3.86560
H         -1.90850       -5.30380        3.77790
H         -2.32320       -3.83650        4.68440
H         -1.03540       -4.96710        1.58210
H         -0.69020       -3.55840       -0.38890
H         -4.21230       -1.72320       -1.13800
H         -5.95080       -0.22230       -2.00910
H         -5.81680        2.16000       -3.87750
H         -5.43300        3.39790       -2.68240
H         -6.65970        2.16970       -2.33160
H         -3.08250        2.91620       -2.34610
H         -1.34620        1.42590       -1.45220
H         -3.25760        1.48660        4.03680
H         -2.61010        0.34660        5.22950
H         -2.34090        2.61790        6.09620
H         -0.74970        1.94280        5.72900
H         -1.47480        3.12610        4.63880
H         -2.37670        2.08660        0.78010
H         -2.51780        2.73670        2.42360
H         -1.17940        4.24180        0.94700
H         -0.17860        3.60940        2.25940
H         -0.04330        2.91990        0.64100
H          0.88790       -0.91250        8.04470
H          0.16440       -5.03360        7.11710
H          0.55770       -4.55290        4.73860
H          0.42640       -4.19500        9.55690
H         -0.56900       -1.68060       14.12480
H         -1.91140        1.57390       10.47900
H         -1.23140        3.23930       13.41490
H         -3.69770        3.58510       13.40240
H         -4.77100        1.26220       12.86640
H         -4.09750       -0.43100       14.80000
H         -2.60900        0.84950       16.52760
H         -4.19340        2.87790       15.90630
H         -2.50670        3.44310       15.81310
H         -0.57700        1.59930       15.29990
