254

C          5.19040       -6.26590        5.69050
C          5.74670       -5.83370        6.86150
C          5.34310       -4.70030        7.72730
O          4.30240       -4.07380        7.73120
C          6.48150       -4.46320        8.63450
C          6.60430       -3.42830        9.55900
C          7.78870       -3.43820       10.25470
C          8.78260       -4.40340       10.04230
C          8.67180       -5.43150        9.13720
C          7.46870       -5.44490        8.42500
C          6.99240       -6.36450        7.39650
C          7.59070       -7.55080        7.06150
C          7.09580       -8.49880        6.13970
N          6.76440       -9.33810        5.42910
C          8.78360       -8.03020        7.64280
N          9.74820       -8.48480        8.06880
C          9.70040       -3.80100       11.07640
C          9.79960       -4.50730       12.45090
C          8.49410       -5.23590       12.65250
C          7.55040       -4.32650       12.85620
C          8.20080       -2.96640       12.79630
C          9.58310       -3.30140       13.37900
C          8.59120       -2.72880       11.31640
C          4.04360       -5.83750        4.98680
C          3.03290       -4.96160        5.30440
C          2.08820       -4.78540        4.27800
C          0.97700       -3.90730        4.26910
C          0.54770       -3.19110        5.44660
C          0.55860       -3.60550        6.75500
C         -0.01390       -2.67270        7.63280
C         -0.46320       -1.53180        7.02510
Si        -1.33970       -0.04490        7.79170
C         -3.19370       -0.48240        8.00230
C         -3.42820       -1.76200        8.79950
C         -0.53460        0.28050        9.49590
C          0.96460        0.54800        9.41160
C         -1.13780        1.48850        6.66360
C         -1.98450        1.46130        5.39470
S         -0.17800       -1.61580        5.32220
C          0.30730       -3.78840        3.05810
C          0.62370       -4.54310        1.90060
C          1.70220       -5.45070        1.92370
C          2.07350       -6.20280        0.74310
C          2.15020       -5.76220       -0.55160
C          2.54640       -6.76730       -1.44850
C          2.76740       -7.98350       -0.86600
Si         3.34250       -9.59320       -1.66280
C          3.07730       -9.38840       -3.54610
C          3.50430      -10.61370       -4.34360
C          5.20440       -9.84830       -1.27820
C          5.64460       -9.26260        0.06140
C          2.28150      -11.04650       -1.00940
C          2.57930      -11.43560        0.43530
S          2.49800       -7.88310        0.84030
C          2.40480       -5.54590        3.11860
S          3.82540       -6.51240        3.37120
C         -0.25490       -4.26060        0.83140
C         -1.19120       -3.30810        1.12780
S         -1.04580       -2.73390        2.77320
C         -2.07780       -2.66390        0.22540
C         -3.07230       -1.73720        0.50530
N         -3.52310       -1.36570        1.76460
C         -3.91260       -2.31500        2.71070
C         -4.36110       -3.57150        2.31340
C         -4.70160       -4.53090        3.24770
C         -4.60530       -4.24670        4.60220
S         -5.00220       -5.38480        5.89280
C         -5.45830       -6.90540        5.01290
C         -4.16830       -2.98600        5.00580
C         -3.82480       -2.03260        4.07690
C         -3.66830        0.01170        1.99580
C         -2.70370        0.89720        1.51030
C         -2.86070        2.25530        1.66600
C         -3.97940        2.76170        2.32390
S         -4.09230        4.51780        2.44700
C         -5.67900        4.80410        3.28050
C         -4.92640        1.88530        2.83540
C         -4.77460        0.52280        2.66570
C         -3.52960       -1.11820       -0.68260
S         -4.61190        0.18990       -0.99780
C         -4.13530        0.19730       -2.69070
C         -3.18970       -0.77200       -2.98510
N         -2.48240       -0.88300       -4.17380
C         -2.01830       -2.15430       -4.53690
C         -0.72420       -2.34070       -5.01460
C         -0.25330       -3.60830       -5.29410
C         -1.06610       -4.71570       -5.09040
S         -0.54930       -6.38270       -5.36140
C          1.25300       -6.24950       -5.53620
C         -2.37450       -4.53060       -4.64930
C         -2.84790       -3.26610       -4.38030
C         -1.99750        0.26690       -4.81690
C         -1.61820        1.39830       -4.09050
C         -1.25390        2.55490       -4.74340
C         -1.22590        2.60710       -6.13550
S         -0.80090        4.15870       -6.86400
C         -1.10640        3.90920       -8.63540
C         -1.52220        1.45930       -6.86020
C         -1.91500        0.30610       -6.20640
C         -2.89450       -1.54690       -1.83450
S         -1.76770       -2.81520       -1.50090
C         -4.44770        1.36930       -3.45190
C         -4.27690        2.62930       -2.96350
C         -4.23800        3.62680       -3.96210
C         -3.79220        4.95340       -3.81160
C         -3.30660        5.46990       -2.54850
C         -3.40510        6.75250       -2.08620
C         -2.72580        7.04060       -0.88440
C         -2.03260        5.99340       -0.35440
S         -1.05840        5.92870        1.09150
C         -1.79050        7.27880        2.08970
C         -1.44010        7.06440        3.54830
Se        -2.21760        4.44410       -1.38230
C         -3.68280        5.69780       -4.98390
C         -4.02370        5.17850       -6.26130
C         -4.51350        3.85230       -6.40320
C         -4.87970        3.32330       -7.69080
C         -5.48050        3.99760       -8.72360
C         -5.71920        3.25850       -9.89390
C         -5.30660        1.95460       -9.84650
S         -5.41070        0.86510      -11.20780
C         -4.96060       -0.73190      -10.44360
C         -6.08720       -1.31400       -9.61440
Se        -4.54630        1.53390       -8.17350
C         -4.54000        3.09790       -5.23990
S         -4.83290        1.37710       -5.15820
C         -3.60820        6.04210       -7.28370
C         -2.97050        7.18470       -6.83570
S         -2.94950        7.27100       -5.09020
C         -2.28240        8.03800       -7.71750
C         -1.52170        9.14210       -7.45430
C         -1.49650        9.90770       -6.19580
O         -2.03700        9.62860       -5.14350
C         -0.71850       11.12800       -6.48370
C         -0.45860       12.18100       -5.60940
C          0.29560       13.19050       -6.15780
C          0.75010       13.16280       -7.48320
C          0.49990       12.13190       -8.35760
C         -0.25670       11.08860       -7.81560
C         -0.68180        9.82710       -8.41430
C         -0.24880        9.31620       -9.61260
C          0.58150       10.00550      -10.51910
N          1.24320       10.51840      -11.30510
C         -0.51440        8.00610      -10.06020
N         -0.65360        6.93690      -10.45870
C          1.44760       14.49430       -7.35640
C          2.98200       14.45340       -7.19470
C          3.32160       15.80980       -6.62020
C          2.89420       15.83450       -5.36430
C          2.25840       14.49520       -5.06880
C          3.13920       13.58800       -5.93770
C          0.94380       14.52360       -5.87770
H          5.73730       -7.03950        5.16310
H          5.81720       -2.70090        9.68310
H          9.44870       -6.16090        8.98050
H         10.66830       -3.46050       10.71360
H         10.70340       -5.09360       12.59280
H          8.38480       -6.30140       12.57030
H          6.49420       -4.48030       12.97820
H          7.64890       -2.14950       13.25420
H         10.31680       -2.50860       13.23890
H          9.54040       -3.58150       14.43050
H          8.83580       -1.68760       11.11420
H          3.00650       -4.43170        6.23770
H          0.92350       -4.56660        7.06890
H         -0.09480       -2.83560        8.69270
H         -3.65320       -0.59230        7.01950
H         -3.71200        0.34160        8.49470
H         -2.92200       -2.60370        8.33240
H         -3.04710       -1.65780        9.81210
H         -4.49060       -1.99300        8.85940
H         -0.70180       -0.57690       10.14800
H         -1.02150        1.12980        9.97660
H          1.16250        1.43160        8.81010
H          1.47670       -0.29540        8.95510
H          1.38570        0.70890       10.40250
H         -1.38660        2.38700        7.23080
H         -0.09020        1.58550        6.37710
H         -1.72630        0.60280        4.77930
H         -3.04370        1.40710        5.63560
H         -1.81940        2.35800        4.79950
H          1.97110       -4.74090       -0.83870
H          2.66930       -6.60380       -2.50410
H          3.64200       -8.52610       -3.90230
H          2.02640       -9.18110       -3.74960
H          4.55370      -10.83700       -4.16890
H          2.91920      -11.48220       -4.05370
H          3.36390      -10.45360       -5.41170
H          5.43310      -10.91520       -1.28880
H          5.80710       -9.39770       -2.06930
H          5.50190       -8.18470        0.07330
H          5.06960       -9.68460        0.88100
H          6.69780       -9.46800        0.24340
H          2.43930      -11.92040       -1.64360
H          1.22340      -10.79150       -1.09520
H          1.93510      -12.25340        0.75400
H          2.41380      -10.59340        1.10240
H          3.61190      -11.75710        0.54240
H         -0.21340       -4.74770       -0.12580
H         -4.44090       -3.80430        1.26170
H         -5.04190       -5.49310        2.90050
H         -5.68300       -7.63390        5.78580
H         -4.62200       -7.25110        4.41220
H         -6.34020       -6.73320        4.40260
H         -4.08770       -2.77510        6.06040
H         -3.45790       -1.07050        4.39870
H         -1.83070        0.51070        1.00610
H         -2.11630        2.93990        1.28290
H         -5.65750        4.37880        4.27960
H         -5.78820        5.88260        3.34330
H         -6.48850        4.38660        2.68900
H         -5.79900        2.24700        3.35490
H         -5.52930       -0.15040        3.04410
H         -0.07660       -1.48710       -5.14940
H          0.75620       -3.71820       -5.65640
H          1.50800       -5.76880       -6.47650
H          1.62510       -7.26940       -5.53250
H          1.65920       -5.70270       -4.69060
H         -3.01020       -5.39210       -4.51460
H         -3.86220       -3.12870       -4.03580
H         -1.62270        1.37720       -3.00990
H         -0.98990        3.43560       -4.17540
H         -0.95960        4.87860       -9.10420
H         -2.12890        3.57120       -8.78690
H         -0.39260        3.19800       -9.04080
H         -1.45730        1.45060       -7.93750
H         -2.18010       -0.57170       -6.77890
H         -4.10560        2.80820       -1.91520
H         -3.98860        7.50250       -2.59300
H         -2.74720        8.01970       -0.43860
H         -1.39390        8.22440        1.71900
H         -2.86720        7.23280        1.93250
H         -0.36120        7.05590        3.68550
H         -1.84180        6.11380        3.89060
H         -1.86330        7.86460        4.15180
H         -5.80550        5.01970       -8.62210
H         -6.19420        3.67820      -10.76360
H         -4.06170       -0.55820       -9.84230
H         -4.71100       -1.37980      -11.28330
H         -6.33710       -0.65210       -8.78470
H         -5.78460       -2.27590       -9.20610
H         -6.97520       -1.45440      -10.22610
H         -3.68310        5.81290       -8.33160
H         -2.34470        7.71960       -8.75170
H         -0.83190       12.16530       -4.59740
H          0.84870       12.12630       -9.37690
H          1.11150       15.27410       -8.03710
H          3.52520       14.14820       -8.08480
H          3.77290       16.60450       -7.18460
H          2.91710       16.65400       -4.67010
H          2.14340       14.22830       -4.02170
H          2.76070       12.57330       -6.04660
H          4.16920       13.55620       -5.58640
H          0.27290       15.32410       -5.57120
