
  xtb     02172217593D
 energy: -417.120321851167 gnorm: 0.000360108461 xtb: 6.4.1 (unknown)
261285  0     0  0            999 V2000
    5.8996   -4.2207   -5.4619 C   0  0  0  0  0  0  0  0  0  0  0  0
    5.5216   -5.3300   -6.1901 C   0  0  0  0  0  0  0  0  0  0  0  0
    4.3199   -6.1277   -5.9032 C   0  0  0  0  0  0  0  0  0  0  0  0
    3.4752   -5.9178   -5.0509 O   0  0  0  0  0  0  0  0  0  0  0  0
    4.4106   -7.3176   -6.7756 C   0  0  0  0  0  0  0  0  0  0  0  0
    3.5112   -8.3759   -6.8466 C   0  0  0  0  0  0  0  0  0  0  0  0
    3.8591   -9.3467   -7.7563 C   0  0  0  0  0  0  0  0  0  0  0  0
    5.0218   -9.2745   -8.5318 C   0  0  0  0  0  0  0  0  0  0  0  0
    5.9198   -8.2343   -8.4690 C   0  0  0  0  0  0  0  0  0  0  0  0
    5.5800   -7.2358   -7.5551 C   0  0  0  0  0  0  0  0  0  0  0  0
    6.2665   -5.9879   -7.2243 C   0  0  0  0  0  0  0  0  0  0  0  0
    7.3375   -5.4532   -7.9004 C   0  0  0  0  0  0  0  0  0  0  0  0
    7.8749   -4.1783   -7.6376 C   0  0  0  0  0  0  0  0  0  0  0  0
    8.3420   -3.1373   -7.5015 N   0  0  0  0  0  0  0  0  0  0  0  0
    7.9739   -6.0657   -8.9941 C   0  0  0  0  0  0  0  0  0  0  0  0
    8.5219   -6.5053   -9.9042 N   0  0  0  0  0  0  0  0  0  0  0  0
    4.7514  -10.5972   -9.2054 C   0  0  0  0  0  0  0  0  0  0  0  0
    5.5564  -11.8300   -8.7251 C   0  0  0  0  0  0  0  0  0  0  0  0
    5.9381  -11.5614   -7.2907 C   0  0  0  0  0  0  0  0  0  0  0  0
    4.8344  -11.6285   -6.5585 C   0  0  0  0  0  0  0  0  0  0  0  0
    3.6862  -11.9438   -7.4850 C   0  0  0  0  0  0  0  0  0  0  0  0
    4.4056  -12.8274   -8.5165 C   0  0  0  0  0  0  0  0  0  0  0  0
    3.4522  -10.6760   -8.3431 C   0  0  0  0  0  0  0  0  0  0  0  0
    5.0386   -3.3928   -4.7400 C   0  0  0  0  0  0  0  0  0  0  0  0
    3.6588   -3.1357   -4.8893 C   0  0  0  0  0  0  0  0  0  0  0  0
    2.8696   -3.4898   -5.9443 N   0  0  0  0  0  0  0  0  0  0  0  0
    1.4668   -3.5129   -5.7886 C   0  0  0  0  0  0  0  0  0  0  0  0
    0.6590   -2.8785   -6.7272 C   0  0  0  0  0  0  0  0  0  0  0  0
   -0.7130   -2.8875   -6.5737 C   0  0  0  0  0  0  0  0  0  0  0  0
   -1.3101   -3.5245   -5.4905 C   0  0  0  0  0  0  0  0  0  0  0  0
   -2.7998   -3.5429   -5.3498 C   0  0  0  0  0  0  0  0  0  0  0  0
   -0.4929   -4.1680   -4.5698 C   0  0  0  0  0  0  0  0  0  0  0  0
    0.8814   -4.1708   -4.7122 C   0  0  0  0  0  0  0  0  0  0  0  0
    3.3825   -3.7893   -7.2154 C   0  0  0  0  0  0  0  0  0  0  0  0
    2.8402   -4.8448   -7.9449 C   0  0  0  0  0  0  0  0  0  0  0  0
    3.3621   -5.1773   -9.1810 C   0  0  0  0  0  0  0  0  0  0  0  0
    4.4228   -4.4665   -9.7266 C   0  0  0  0  0  0  0  0  0  0  0  0
    5.0255   -4.8559  -11.0395 C   0  0  0  0  0  0  0  0  0  0  0  0
    4.9266   -3.3823   -9.0116 C   0  0  0  0  0  0  0  0  0  0  0  0
    4.4195   -3.0443   -7.7746 C   0  0  0  0  0  0  0  0  0  0  0  0
    3.1993   -2.3087   -3.8404 C   0  0  0  0  0  0  0  0  0  0  0  0
    1.6560   -1.6387   -3.4496 S   0  0  0  0  0  0  0  0  0  0  0  0
    2.3502   -0.7644   -2.0912 C   0  0  0  0  0  0  0  0  0  0  0  0
    3.7262   -0.9507   -1.9874 C   0  0  0  0  0  0  0  0  0  0  0  0
    4.5653   -0.3233   -1.0842 N   0  0  0  0  0  0  0  0  0  0  0  0
    5.6656   -1.0417   -0.5868 C   0  0  0  0  0  0  0  0  0  0  0  0
    6.9099   -0.4328   -0.4501 C   0  0  0  0  0  0  0  0  0  0  0  0
    7.9844   -1.1552    0.0269 C   0  0  0  0  0  0  0  0  0  0  0  0
    7.8548   -2.4962    0.3708 C   0  0  0  0  0  0  0  0  0  0  0  0
    9.0366   -3.2793    0.8538 C   0  0  0  0  0  0  0  0  0  0  0  0
    6.6093   -3.0950    0.2318 C   0  0  0  0  0  0  0  0  0  0  0  0
    5.5237   -2.3811   -0.2352 C   0  0  0  0  0  0  0  0  0  0  0  0
    4.3871    1.0229   -0.7429 C   0  0  0  0  0  0  0  0  0  0  0  0
    4.6937    1.4643    0.5445 C   0  0  0  0  0  0  0  0  0  0  0  0
    4.4602    2.7752    0.9045 C   0  0  0  0  0  0  0  0  0  0  0  0
    3.9178    3.6829    0.0020 C   0  0  0  0  0  0  0  0  0  0  0  0
    3.6655    5.1043    0.4042 C   0  0  0  0  0  0  0  0  0  0  0  0
    3.6389    3.2418   -1.2856 C   0  0  0  0  0  0  0  0  0  0  0  0
    3.8715    1.9335   -1.6616 C   0  0  0  0  0  0  0  0  0  0  0  0
    4.1852   -1.8526   -2.9765 C   0  0  0  0  0  0  0  0  0  0  0  0
    5.7423   -2.4565   -3.4087 S   0  0  0  0  0  0  0  0  0  0  0  0
    1.4603   -0.0538   -1.2429 C   0  0  0  0  0  0  0  0  0  0  0  0
    0.1923    0.3991   -1.5818 C   0  0  0  0  0  0  0  0  0  0  0  0
   -0.3757    0.3190   -2.8570 N   0  0  0  0  0  0  0  0  0  0  0  0
   -1.6564   -0.2249   -2.9589 C   0  0  0  0  0  0  0  0  0  0  0  0
   -2.5791    0.2414   -3.8958 C   0  0  0  0  0  0  0  0  0  0  0  0
   -3.8449   -0.2950   -3.9515 C   0  0  0  0  0  0  0  0  0  0  0  0
   -4.2293   -1.3061   -3.0735 C   0  0  0  0  0  0  0  0  0  0  0  0
   -5.8737   -1.9274   -3.2594 S   0  0  0  0  0  0  0  0  0  0  0  0
   -6.0923   -3.0146   -1.8223 C   0  0  0  0  0  0  0  0  0  0  0  0
   -3.3154   -1.7770   -2.1421 C   0  0  0  0  0  0  0  0  0  0  0  0
   -2.0436   -1.2423   -2.0896 C   0  0  0  0  0  0  0  0  0  0  0  0
    0.2423    0.9843   -3.9191 C   0  0  0  0  0  0  0  0  0  0  0  0
    0.1666    0.4799   -5.2160 C   0  0  0  0  0  0  0  0  0  0  0  0
    0.8088    1.1175   -6.2585 C   0  0  0  0  0  0  0  0  0  0  0  0
    1.5470    2.2701   -6.0229 C   0  0  0  0  0  0  0  0  0  0  0  0
    2.4119    3.1718   -7.2719 S   0  0  0  0  0  0  0  0  0  0  0  0
    2.2514    2.1343   -8.7518 C   0  0  0  0  0  0  0  0  0  0  0  0
    1.6223    2.7792   -4.7281 C   0  0  0  0  0  0  0  0  0  0  0  0
    0.9771    2.1476   -3.6879 C   0  0  0  0  0  0  0  0  0  0  0  0
   -0.4597    0.9801   -0.4772 C   0  0  0  0  0  0  0  0  0  0  0  0
   -1.9499    1.8302   -0.2905 S   0  0  0  0  0  0  0  0  0  0  0  0
   -1.5419    2.2111    1.3741 C   0  0  0  0  0  0  0  0  0  0  0  0
   -0.3240    1.6716    1.7499 C   0  0  0  0  0  0  0  0  0  0  0  0
    0.2366    1.8527    3.0157 N   0  0  0  0  0  0  0  0  0  0  0  0
    0.3336    3.1589    3.5085 C   0  0  0  0  0  0  0  0  0  0  0  0
    0.0783    3.4540    4.8484 C   0  0  0  0  0  0  0  0  0  0  0  0
    0.1969    4.7472    5.3064 C   0  0  0  0  0  0  0  0  0  0  0  0
    0.5632    5.7778    4.4411 C   0  0  0  0  0  0  0  0  0  0  0  0
    0.7110    7.3878    5.1493 S   0  0  0  0  0  0  0  0  0  0  0  0
    1.1812    8.4429    3.7500 C   0  0  0  0  0  0  0  0  0  0  0  0
    0.7839    5.4935    3.1004 C   0  0  0  0  0  0  0  0  0  0  0  0
    0.6698    4.1960    2.6420 C   0  0  0  0  0  0  0  0  0  0  0  0
    0.6324    0.7350    3.7429 C   0  0  0  0  0  0  0  0  0  0  0  0
    0.0619   -0.5085    3.4745 C   0  0  0  0  0  0  0  0  0  0  0  0
    0.4593   -1.6341    4.1653 C   0  0  0  0  0  0  0  0  0  0  0  0
    1.4267   -1.5371    5.1540 C   0  0  0  0  0  0  0  0  0  0  0  0
    1.9569   -2.9149    6.1336 S   0  0  0  0  0  0  0  0  0  0  0  0
    1.5806   -4.3400    5.0694 C   0  0  0  0  0  0  0  0  0  0  0  0
    1.9975   -0.2991    5.4324 C   0  0  0  0  0  0  0  0  0  0  0  0
    1.6161    0.8217    4.7296 C   0  0  0  0  0  0  0  0  0  0  0  0
    0.2906    0.9774    0.6881 C   0  0  0  0  0  0  0  0  0  0  0  0
    1.8223    0.2157    0.4590 S   0  0  0  0  0  0  0  0  0  0  0  0
   -2.4334    2.8435    2.3055 C   0  0  0  0  0  0  0  0  0  0  0  0
   -3.0801    4.0686    2.3123 C   0  0  0  0  0  0  0  0  0  0  0  0
   -2.9451    5.0698    1.3722 N   0  0  0  0  0  0  0  0  0  0  0  0
   -2.8114    4.7727   -0.0016 C   0  0  0  0  0  0  0  0  0  0  0  0
   -1.6645    5.1643   -0.6861 C   0  0  0  0  0  0  0  0  0  0  0  0
   -1.5389    4.8919   -2.0321 C   0  0  0  0  0  0  0  0  0  0  0  0
   -2.5537    4.2421   -2.7292 C   0  0  0  0  0  0  0  0  0  0  0  0
   -2.4022    3.9825   -4.1961 C   0  0  0  0  0  0  0  0  0  0  0  0
   -3.6997    3.8686   -2.0407 C   0  0  0  0  0  0  0  0  0  0  0  0
   -3.8325    4.1262   -0.6875 C   0  0  0  0  0  0  0  0  0  0  0  0
   -2.8595    6.4119    1.7670 C   0  0  0  0  0  0  0  0  0  0  0  0
   -2.3491    6.7726    3.0118 C   0  0  0  0  0  0  0  0  0  0  0  0
   -2.3020    8.1002    3.3893 C   0  0  0  0  0  0  0  0  0  0  0  0
   -2.7255    9.1074    2.5324 C   0  0  0  0  0  0  0  0  0  0  0  0
   -2.6865   10.5439    2.9546 C   0  0  0  0  0  0  0  0  0  0  0  0
   -3.2054    8.7427    1.2796 C   0  0  0  0  0  0  0  0  0  0  0  0
   -3.2827    7.4179    0.9002 C   0  0  0  0  0  0  0  0  0  0  0  0
   -3.8300    4.2288    3.5093 C   0  0  0  0  0  0  0  0  0  0  0  0
   -4.8511    5.4808    4.1153 S   0  0  0  0  0  0  0  0  0  0  0  0
   -5.1110    4.5790    5.6187 C   0  0  0  0  0  0  0  0  0  0  0  0
   -4.3308    3.4034    5.6645 C   0  0  0  0  0  0  0  0  0  0  0  0
   -4.0509    2.6537    6.7632 N   0  0  0  0  0  0  0  0  0  0  0  0
   -3.5295    1.3471    6.6120 C   0  0  0  0  0  0  0  0  0  0  0  0
   -2.3373    1.0076    7.2420 C   0  0  0  0  0  0  0  0  0  0  0  0
   -1.8369   -0.2746    7.1245 C   0  0  0  0  0  0  0  0  0  0  0  0
   -2.5176   -1.2407    6.3936 C   0  0  0  0  0  0  0  0  0  0  0  0
   -2.0131   -2.6486    6.3279 C   0  0  0  0  0  0  0  0  0  0  0  0
   -3.7049   -0.8856    5.7628 C   0  0  0  0  0  0  0  0  0  0  0  0
   -4.2122    0.3949    5.8633 C   0  0  0  0  0  0  0  0  0  0  0  0
   -4.1906    3.1314    8.0764 C   0  0  0  0  0  0  0  0  0  0  0  0
   -4.7164    2.2948    9.0573 C   0  0  0  0  0  0  0  0  0  0  0  0
   -4.8983    2.7629   10.3452 C   0  0  0  0  0  0  0  0  0  0  0  0
   -4.5527    4.0622   10.6919 C   0  0  0  0  0  0  0  0  0  0  0  0
   -4.7999    4.5894   12.0698 C   0  0  0  0  0  0  0  0  0  0  0  0
   -3.9794    4.8744    9.7161 C   0  0  0  0  0  0  0  0  0  0  0  0
   -3.7983    4.4222    8.4261 C   0  0  0  0  0  0  0  0  0  0  0  0
   -3.6942    3.1919    4.4185 C   0  0  0  0  0  0  0  0  0  0  0  0
   -2.7191    1.9214    3.7811 S   0  0  0  0  0  0  0  0  0  0  0  0
   -5.9965    5.1259    6.5462 C   0  0  0  0  0  0  0  0  0  0  0  0
   -6.6539    4.4267    7.5390 C   0  0  0  0  0  0  0  0  0  0  0  0
   -6.9702    2.9899    7.4599 C   0  0  0  0  0  0  0  0  0  0  0  0
   -6.6722    2.2132    6.5694 O   0  0  0  0  0  0  0  0  0  0  0  0
   -7.8328    2.7131    8.6218 C   0  0  0  0  0  0  0  0  0  0  0  0
   -8.4262    1.5318    9.0102 C   0  0  0  0  0  0  0  0  0  0  0  0
   -9.2040    1.5125   10.1595 C   0  0  0  0  0  0  0  0  0  0  0  0
   -9.3904    2.6763   10.9033 C   0  0  0  0  0  0  0  0  0  0  0  0
  -10.1364    2.7585   12.0297 O   0  0  0  0  0  0  0  0  0  0  0  0
  -10.7977    1.6086   12.5013 C   0  0  0  0  0  0  0  0  0  0  0  0
   -8.7882    3.8807   10.5045 C   0  0  0  0  0  0  0  0  0  0  0  0
   -8.0110    3.8922    9.3689 C   0  0  0  0  0  0  0  0  0  0  0  0
   -7.2584    4.9671    8.7210 C   0  0  0  0  0  0  0  0  0  0  0  0
   -7.0339    6.2185    9.2423 C   0  0  0  0  0  0  0  0  0  0  0  0
   -7.5449    6.6632   10.4746 C   0  0  0  0  0  0  0  0  0  0  0  0
   -7.9146    7.0778   11.4807 N   0  0  0  0  0  0  0  0  0  0  0  0
   -6.1976    7.1822    8.6465 C   0  0  0  0  0  0  0  0  0  0  0  0
   -5.5093    8.0037    8.2322 N   0  0  0  0  0  0  0  0  0  0  0  0
    6.9537   -3.9798   -5.3930 H   0  0  0  0  0  0  0  0  0  0  0  0
    2.6266   -8.3959   -6.2288 H   0  0  0  0  0  0  0  0  0  0  0  0
    6.8166   -8.1951   -9.0651 H   0  0  0  0  0  0  0  0  0  0  0  0
    4.6441  -10.5698  -10.2882 H   0  0  0  0  0  0  0  0  0  0  0  0
    6.3637  -12.1283   -9.3887 H   0  0  0  0  0  0  0  0  0  0  0  0
    6.9309  -11.3002   -6.9741 H   0  0  0  0  0  0  0  0  0  0  0  0
    4.7208  -11.4338   -5.5081 H   0  0  0  0  0  0  0  0  0  0  0  0
    2.7901  -12.3463   -7.0194 H   0  0  0  0  0  0  0  0  0  0  0  0
    4.7401  -13.7759   -8.0987 H   0  0  0  0  0  0  0  0  0  0  0  0
    3.8196  -13.0083   -9.4168 H   0  0  0  0  0  0  0  0  0  0  0  0
    2.4964  -10.6984   -8.8639 H   0  0  0  0  0  0  0  0  0  0  0  0
    1.1146   -2.3780   -7.5696 H   0  0  0  0  0  0  0  0  0  0  0  0
   -1.3346   -2.3890   -7.3041 H   0  0  0  0  0  0  0  0  0  0  0  0
   -3.2257   -2.5739   -5.6009 H   0  0  0  0  0  0  0  0  0  0  0  0
   -3.0893   -3.7967   -4.3339 H   0  0  0  0  0  0  0  0  0  0  0  0
   -3.2306   -4.2835   -6.0244 H   0  0  0  0  0  0  0  0  0  0  0  0
   -0.9393   -4.6816   -3.7309 H   0  0  0  0  0  0  0  0  0  0  0  0
    1.5134   -4.6992   -4.0158 H   0  0  0  0  0  0  0  0  0  0  0  0
    2.0190   -5.4092   -7.5291 H   0  0  0  0  0  0  0  0  0  0  0  0
    2.9452   -6.0144   -9.7219 H   0  0  0  0  0  0  0  0  0  0  0  0
    5.2386   -3.9758  -11.6427 H   0  0  0  0  0  0  0  0  0  0  0  0
    5.9680   -5.3807  -10.8783 H   0  0  0  0  0  0  0  0  0  0  0  0
    4.3615   -5.5147  -11.5932 H   0  0  0  0  0  0  0  0  0  0  0  0
    5.7358   -2.8001   -9.4277 H   0  0  0  0  0  0  0  0  0  0  0  0
    4.8307   -2.2040   -7.2353 H   0  0  0  0  0  0  0  0  0  0  0  0
    7.0282    0.6047   -0.7256 H   0  0  0  0  0  0  0  0  0  0  0  0
    8.9456   -0.6718    0.1244 H   0  0  0  0  0  0  0  0  0  0  0  0
    9.5915   -3.6758    0.0028 H   0  0  0  0  0  0  0  0  0  0  0  0
    8.7223   -4.1174    1.4713 H   0  0  0  0  0  0  0  0  0  0  0  0
    9.7111   -2.6490    1.4289 H   0  0  0  0  0  0  0  0  0  0  0  0
    6.4845   -4.1348    0.4979 H   0  0  0  0  0  0  0  0  0  0  0  0
    4.5575   -2.8562   -0.3266 H   0  0  0  0  0  0  0  0  0  0  0  0
    5.0912    0.7647    1.2642 H   0  0  0  0  0  0  0  0  0  0  0  0
    4.6868    3.0959    1.9110 H   0  0  0  0  0  0  0  0  0  0  0  0
    4.5568    5.7073    0.2257 H   0  0  0  0  0  0  0  0  0  0  0  0
    2.8497    5.5333   -0.1741 H   0  0  0  0  0  0  0  0  0  0  0  0
    3.4232    5.1663    1.4631 H   0  0  0  0  0  0  0  0  0  0  0  0
    3.2363    3.9350   -2.0106 H   0  0  0  0  0  0  0  0  0  0  0  0
    3.6472    1.6134   -2.6689 H   0  0  0  0  0  0  0  0  0  0  0  0
   -2.3027    1.0352   -4.5709 H   0  0  0  0  0  0  0  0  0  0  0  0
   -4.5605    0.0705   -4.6729 H   0  0  0  0  0  0  0  0  0  0  0  0
   -5.4442   -3.8826   -1.9045 H   0  0  0  0  0  0  0  0  0  0  0  0
   -5.8968   -2.4599   -0.9094 H   0  0  0  0  0  0  0  0  0  0  0  0
   -7.1307   -3.3298   -1.8489 H   0  0  0  0  0  0  0  0  0  0  0  0
   -3.5763   -2.5649   -1.4535 H   0  0  0  0  0  0  0  0  0  0  0  0
   -1.3362   -1.6234   -1.3682 H   0  0  0  0  0  0  0  0  0  0  0  0
   -0.3841   -0.4299   -5.4010 H   0  0  0  0  0  0  0  0  0  0  0  0
    0.7326    0.6964   -7.2479 H   0  0  0  0  0  0  0  0  0  0  0  0
    2.6646    1.1484   -8.5588 H   0  0  0  0  0  0  0  0  0  0  0  0
    1.2108    2.0752   -9.0577 H   0  0  0  0  0  0  0  0  0  0  0  0
    2.8322    2.6332   -9.5214 H   0  0  0  0  0  0  0  0  0  0  0  0
    2.1913    3.6799   -4.5540 H   0  0  0  0  0  0  0  0  0  0  0  0
    1.0343    2.5505   -2.6876 H   0  0  0  0  0  0  0  0  0  0  0  0
   -0.2186    2.6627    5.5207 H   0  0  0  0  0  0  0  0  0  0  0  0
    0.0019    4.9789    6.3428 H   0  0  0  0  0  0  0  0  0  0  0  0
    2.1323    8.1153    3.3402 H   0  0  0  0  0  0  0  0  0  0  0  0
    0.3956    8.4329    2.9990 H   0  0  0  0  0  0  0  0  0  0  0  0
    1.2850    9.4419    4.1621 H   0  0  0  0  0  0  0  0  0  0  0  0
    1.0473    6.2723    2.4031 H   0  0  0  0  0  0  0  0  0  0  0  0
    0.8549    3.9777    1.6003 H   0  0  0  0  0  0  0  0  0  0  0  0
   -0.7122   -0.5922    2.7267 H   0  0  0  0  0  0  0  0  0  0  0  0
   -0.0010   -2.5801    3.9301 H   0  0  0  0  0  0  0  0  0  0  0  0
    2.1196   -5.1798    5.4965 H   0  0  0  0  0  0  0  0  0  0  0  0
    1.9370   -4.1399    4.0637 H   0  0  0  0  0  0  0  0  0  0  0  0
    0.5145   -4.5492    5.0750 H   0  0  0  0  0  0  0  0  0  0  0  0
    2.7543   -0.2292    6.1988 H   0  0  0  0  0  0  0  0  0  0  0  0
    2.0883    1.7702    4.9350 H   0  0  0  0  0  0  0  0  0  0  0  0
   -0.8797    5.6757   -0.1473 H   0  0  0  0  0  0  0  0  0  0  0  0
   -0.6416    5.1848   -2.5585 H   0  0  0  0  0  0  0  0  0  0  0  0
   -1.4620    3.4698   -4.3976 H   0  0  0  0  0  0  0  0  0  0  0  0
   -2.3873    4.9245   -4.7443 H   0  0  0  0  0  0  0  0  0  0  0  0
   -3.2253    3.3797   -4.5704 H   0  0  0  0  0  0  0  0  0  0  0  0
   -4.4991    3.3669   -2.5658 H   0  0  0  0  0  0  0  0  0  0  0  0
   -4.7241    3.8290   -0.1556 H   0  0  0  0  0  0  0  0  0  0  0  0
   -1.9801    6.0125    3.6835 H   0  0  0  0  0  0  0  0  0  0  0  0
   -1.9252    8.3544    4.3691 H   0  0  0  0  0  0  0  0  0  0  0  0
   -3.6598   10.8415    3.3454 H   0  0  0  0  0  0  0  0  0  0  0  0
   -2.4515   11.1916    2.1124 H   0  0  0  0  0  0  0  0  0  0  0  0
   -1.9494   10.6983    3.7391 H   0  0  0  0  0  0  0  0  0  0  0  0
   -3.5381    9.5084    0.5935 H   0  0  0  0  0  0  0  0  0  0  0  0
   -3.6764    7.1549   -0.0704 H   0  0  0  0  0  0  0  0  0  0  0  0
   -1.8114    1.7514    7.8235 H   0  0  0  0  0  0  0  0  0  0  0  0
   -0.9060   -0.5301    7.6095 H   0  0  0  0  0  0  0  0  0  0  0  0
   -2.1702   -3.0680    5.3364 H   0  0  0  0  0  0  0  0  0  0  0  0
   -0.9567   -2.6918    6.5780 H   0  0  0  0  0  0  0  0  0  0  0  0
   -2.5561   -3.2690    7.0421 H   0  0  0  0  0  0  0  0  0  0  0  0
   -4.2477   -1.6275    5.1951 H   0  0  0  0  0  0  0  0  0  0  0  0
   -5.1498    0.6657    5.4034 H   0  0  0  0  0  0  0  0  0  0  0  0
   -4.9950    1.2845    8.7980 H   0  0  0  0  0  0  0  0  0  0  0  0
   -5.3294    2.1085   11.0888 H   0  0  0  0  0  0  0  0  0  0  0  0
   -4.9490    3.7776   12.7771 H   0  0  0  0  0  0  0  0  0  0  0  0
   -5.6943    5.2137   12.0769 H   0  0  0  0  0  0  0  0  0  0  0  0
   -3.9666    5.2042   12.4033 H   0  0  0  0  0  0  0  0  0  0  0  0
   -3.6774    5.8799    9.9703 H   0  0  0  0  0  0  0  0  0  0  0  0
   -3.3552    5.0711    7.6854 H   0  0  0  0  0  0  0  0  0  0  0  0
   -6.2053    6.1828    6.4321 H   0  0  0  0  0  0  0  0  0  0  0  0
   -8.2811    0.6345    8.4280 H   0  0  0  0  0  0  0  0  0  0  0  0
   -9.6619    0.5854   10.4660 H   0  0  0  0  0  0  0  0  0  0  0  0
  -10.0892    0.8171   12.7656 H   0  0  0  0  0  0  0  0  0  0  0  0
  -11.3329    1.9248   13.3949 H   0  0  0  0  0  0  0  0  0  0  0  0
  -11.5140    1.2273   11.7667 H   0  0  0  0  0  0  0  0  0  0  0  0
   -8.9664    4.7588   11.1026 H   0  0  0  0  0  0  0  0  0  0  0  0
  1  2  2  0  0  0  0
  2  3  1  0  0  0  0
  3  4  2  0  0  0  0
  3  5  1  0  0  0  0
  5  6  2  0  0  0  0
  6  7  1  0  0  0  0
  7  8  2  0  0  0  0
  8  9  1  0  0  0  0
  9 10  2  0  0  0  0
 10 11  1  0  0  0  0
 11 12  2  0  0  0  0
 12 13  1  0  0  0  0
 13 14  3  0  0  0  0
 12 15  1  0  0  0  0
 15 16  3  0  0  0  0
  8 17  1  0  0  0  0
 17 18  1  0  0  0  0
 18 19  1  0  0  0  0
 19 20  2  0  0  0  0
 20 21  1  0  0  0  0
 21 22  1  0  0  0  0
 21 23  1  0  0  0  0
  1 24  1  0  0  0  0
 24 25  2  0  0  0  0
 25 26  1  0  0  0  0
 26 27  1  0  0  0  0
 27 28  2  0  0  0  0
 28 29  1  0  0  0  0
 29 30  2  0  0  0  0
 30 31  1  0  0  0  0
 30 32  1  0  0  0  0
 32 33  2  0  0  0  0
 26 34  1  0  0  0  0
 34 35  2  0  0  0  0
 35 36  1  0  0  0  0
 36 37  2  0  0  0  0
 37 38  1  0  0  0  0
 37 39  1  0  0  0  0
 39 40  2  0  0  0  0
 25 41  1  0  0  0  0
 41 42  1  0  0  0  0
 42 43  1  0  0  0  0
 43 44  2  0  0  0  0
 44 45  1  0  0  0  0
 45 46  1  0  0  0  0
 46 47  2  0  0  0  0
 47 48  1  0  0  0  0
 48 49  2  0  0  0  0
 49 50  1  0  0  0  0
 49 51  1  0  0  0  0
 51 52  2  0  0  0  0
 45 53  1  0  0  0  0
 53 54  2  0  0  0  0
 54 55  1  0  0  0  0
 55 56  2  0  0  0  0
 56 57  1  0  0  0  0
 56 58  1  0  0  0  0
 58 59  2  0  0  0  0
 44 60  1  0  0  0  0
 60 61  1  0  0  0  0
 43 62  1  0  0  0  0
 62 63  2  0  0  0  0
 63 64  1  0  0  0  0
 64 65  1  0  0  0  0
 65 66  2  0  0  0  0
 66 67  1  0  0  0  0
 67 68  2  0  0  0  0
 68 69  1  0  0  0  0
 69 70  1  0  0  0  0
 68 71  1  0  0  0  0
 71 72  2  0  0  0  0
 64 73  1  0  0  0  0
 73 74  2  0  0  0  0
 74 75  1  0  0  0  0
 75 76  2  0  0  0  0
 76 77  1  0  0  0  0
 77 78  1  0  0  0  0
 76 79  1  0  0  0  0
 79 80  2  0  0  0  0
 63 81  1  0  0  0  0
 81 82  1  0  0  0  0
 82 83  1  0  0  0  0
 83 84  2  0  0  0  0
 84 85  1  0  0  0  0
 85 86  1  0  0  0  0
 86 87  2  0  0  0  0
 87 88  1  0  0  0  0
 88 89  2  0  0  0  0
 89 90  1  0  0  0  0
 90 91  1  0  0  0  0
 89 92  1  0  0  0  0
 92 93  2  0  0  0  0
 85 94  1  0  0  0  0
 94 95  2  0  0  0  0
 95 96  1  0  0  0  0
 96 97  2  0  0  0  0
 97 98  1  0  0  0  0
 98 99  1  0  0  0  0
 97100  1  0  0  0  0
100101  2  0  0  0  0
 84102  1  0  0  0  0
102103  1  0  0  0  0
 83104  1  0  0  0  0
104105  2  0  0  0  0
105106  1  0  0  0  0
106107  1  0  0  0  0
107108  2  0  0  0  0
108109  1  0  0  0  0
109110  2  0  0  0  0
110111  1  0  0  0  0
110112  1  0  0  0  0
112113  2  0  0  0  0
106114  1  0  0  0  0
114115  2  0  0  0  0
115116  1  0  0  0  0
116117  2  0  0  0  0
117118  1  0  0  0  0
117119  1  0  0  0  0
119120  2  0  0  0  0
105121  1  0  0  0  0
121122  1  0  0  0  0
122123  1  0  0  0  0
123124  2  0  0  0  0
124125  1  0  0  0  0
125126  1  0  0  0  0
126127  2  0  0  0  0
127128  1  0  0  0  0
128129  2  0  0  0  0
129130  1  0  0  0  0
129131  1  0  0  0  0
131132  2  0  0  0  0
125133  1  0  0  0  0
133134  2  0  0  0  0
134135  1  0  0  0  0
135136  2  0  0  0  0
136137  1  0  0  0  0
136138  1  0  0  0  0
138139  2  0  0  0  0
124140  1  0  0  0  0
140141  1  0  0  0  0
123142  1  0  0  0  0
142143  2  0  0  0  0
143144  1  0  0  0  0
144145  2  0  0  0  0
144146  1  0  0  0  0
146147  2  0  0  0  0
147148  1  0  0  0  0
148149  2  0  0  0  0
149150  1  0  0  0  0
150151  1  0  0  0  0
149152  1  0  0  0  0
152153  2  0  0  0  0
153154  1  0  0  0  0
154155  2  0  0  0  0
155156  1  0  0  0  0
156157  3  0  0  0  0
155158  1  0  0  0  0
158159  3  0  0  0  0
 11  2  1  0  0  0  0
 23 17  1  0  0  0  0
 61 24  1  0  0  0  0
103 62  1  0  0  0  0
141104  1  0  0  0  0
154143  1  0  0  0  0
 10  5  1  0  0  0  0
 22 18  1  0  0  0  0
 33 27  1  0  0  0  0
 40 34  1  0  0  0  0
 60 41  2  0  0  0  0
 72 65  1  0  0  0  0
 80 73  1  0  0  0  0
102 81  2  0  0  0  0
113107  1  0  0  0  0
120114  1  0  0  0  0
140121  2  0  0  0  0
153146  1  0  0  0  0
 23  7  1  0  0  0  0
 52 46  1  0  0  0  0
 59 53  1  0  0  0  0
 93 86  1  0  0  0  0
101 94  1  0  0  0  0
132126  1  0  0  0  0
139133  1  0  0  0  0
  1160  1  0  0  0  0
  6161  1  0  0  0  0
  9162  1  0  0  0  0
 17163  1  0  0  0  0
 18164  1  0  0  0  0
 19165  1  0  0  0  0
 20166  1  0  0  0  0
 21167  1  0  0  0  0
 22168  1  0  0  0  0
 22169  1  0  0  0  0
 23170  1  0  0  0  0
 28171  1  0  0  0  0
 29172  1  0  0  0  0
 31173  1  0  0  0  0
 31174  1  0  0  0  0
 31175  1  0  0  0  0
 32176  1  0  0  0  0
 33177  1  0  0  0  0
 35178  1  0  0  0  0
 36179  1  0  0  0  0
 38180  1  0  0  0  0
 38181  1  0  0  0  0
 38182  1  0  0  0  0
 39183  1  0  0  0  0
 40184  1  0  0  0  0
 47185  1  0  0  0  0
 48186  1  0  0  0  0
 50187  1  0  0  0  0
 50188  1  0  0  0  0
 50189  1  0  0  0  0
 51190  1  0  0  0  0
 52191  1  0  0  0  0
 54192  1  0  0  0  0
 55193  1  0  0  0  0
 57194  1  0  0  0  0
 57195  1  0  0  0  0
 57196  1  0  0  0  0
 58197  1  0  0  0  0
 59198  1  0  0  0  0
 66199  1  0  0  0  0
 67200  1  0  0  0  0
 70201  1  0  0  0  0
 70202  1  0  0  0  0
 70203  1  0  0  0  0
 71204  1  0  0  0  0
 72205  1  0  0  0  0
 74206  1  0  0  0  0
 75207  1  0  0  0  0
 78208  1  0  0  0  0
 78209  1  0  0  0  0
 78210  1  0  0  0  0
 79211  1  0  0  0  0
 80212  1  0  0  0  0
 87213  1  0  0  0  0
 88214  1  0  0  0  0
 91215  1  0  0  0  0
 91216  1  0  0  0  0
 91217  1  0  0  0  0
 92218  1  0  0  0  0
 93219  1  0  0  0  0
 95220  1  0  0  0  0
 96221  1  0  0  0  0
 99222  1  0  0  0  0
 99223  1  0  0  0  0
 99224  1  0  0  0  0
100225  1  0  0  0  0
101226  1  0  0  0  0
108227  1  0  0  0  0
109228  1  0  0  0  0
111229  1  0  0  0  0
111230  1  0  0  0  0
111231  1  0  0  0  0
112232  1  0  0  0  0
113233  1  0  0  0  0
115234  1  0  0  0  0
116235  1  0  0  0  0
118236  1  0  0  0  0
118237  1  0  0  0  0
118238  1  0  0  0  0
119239  1  0  0  0  0
120240  1  0  0  0  0
127241  1  0  0  0  0
128242  1  0  0  0  0
130243  1  0  0  0  0
130244  1  0  0  0  0
130245  1  0  0  0  0
131246  1  0  0  0  0
132247  1  0  0  0  0
134248  1  0  0  0  0
135249  1  0  0  0  0
137250  1  0  0  0  0
137251  1  0  0  0  0
137252  1  0  0  0  0
138253  1  0  0  0  0
139254  1  0  0  0  0
142255  1  0  0  0  0
147256  1  0  0  0  0
148257  1  0  0  0  0
151258  1  0  0  0  0
151259  1  0  0  0  0
151260  1  0  0  0  0
152261  1  0  0  0  0
M  END
