234

C          7.30050        0.99670       -3.33670
C          7.98070        0.80420       -4.51600
C          7.51000        0.03900       -5.67240
O          6.52080       -0.67060       -5.74570
C          8.46940        0.30520       -6.76000
C          8.41490       -0.17800       -8.06420
C          9.44790        0.25090       -8.86310
C         10.46050        1.09900       -8.39780
C         10.52530        1.58310       -7.11220
C          9.48420        1.15890       -6.28290
C          9.22130        1.45030       -4.87320
C         10.03180        2.19710       -4.05170
C          9.85380        2.37500       -2.66630
N          9.80950        2.54160       -1.52910
C         11.19050        2.87660       -4.47600
N         12.13470        3.47270       -4.74710
C         11.16950        1.11460       -9.72920
C         12.44220        0.24530       -9.87970
C         12.30490       -0.88950       -8.89540
C         11.34630       -1.69350       -9.33560
C         10.81800       -1.11670      -10.62560
C         12.10310       -0.48800      -11.18740
C         10.04090        0.16850      -10.24760
C          6.07440        0.49390       -2.90270
C          5.47530        0.89000       -1.68150
N          5.90740        1.89570       -0.85720
C          6.42020        3.11210       -1.33800
C          5.95510        3.66090       -2.53120
C          6.48150        4.84860       -2.99720
C          7.46220        5.52910       -2.28460
C          8.05610        6.80240       -2.80270
C          7.89470        4.99020       -1.07890
C          7.38990        3.79500       -0.60770
C          5.72680        1.74150        0.53380
C          5.14280        2.75110        1.29210
C          5.00810        2.59830        2.65750
C          5.46380        1.45260        3.29940
C          5.37670        1.31920        4.78710
C          6.04130        0.44910        2.53070
C          6.16450        0.57990        1.16120
C          4.32230        0.13190       -1.42200
S          3.11180        0.17910       -0.18840
C          2.14760       -1.02690       -1.05710
C          2.75390       -1.42180       -2.23460
N          2.26660       -2.37380       -3.12250
C          1.02490       -2.17100       -3.74000
C          0.26460       -3.25620       -4.16630
C         -0.90990       -3.05070       -4.86220
C         -1.36400       -1.76690       -5.13630
C         -2.59040       -1.53280       -5.96310
C         -0.62980       -0.68900       -4.65810
C          0.55180       -0.88060       -3.97190
C          3.21290       -3.24890       -3.68200
C          4.25410       -3.71960       -2.88490
C          5.23050       -4.53730       -3.41770
C          5.18710       -4.93010       -4.74820
C          6.25610       -5.79970       -5.33550
C          4.13660       -4.46980       -5.53360
C          3.16620       -3.63450       -5.01910
C          3.99940       -0.76780       -2.42530
S          5.12970       -0.74790       -3.73160
C          0.90790       -1.36980       -0.42830
C          0.79760       -1.50920        0.94760
N          1.89360       -1.70230        1.78060
C          2.85230       -2.64920        1.39300
C          2.46780       -3.81070        0.72910
C          3.40730       -4.73780        0.32350
C          4.75490       -4.51760        0.57480
S          6.04390       -5.62230        0.08890
C          5.16700       -7.00110       -0.70140
C          5.14430       -3.35480        1.23800
C          4.20640       -2.43140        1.64230
C          1.97240       -1.02280        2.99430
C          2.56120       -1.61300        4.10980
C          2.63750       -0.93340        5.30870
C          2.11100        0.34570        5.41780
S          2.20490        1.32280        6.89050
C          2.70470        0.13860        8.17100
C          1.50790        0.93580        4.31090
C          1.44300        0.26330        3.11170
C         -0.54810       -1.54240        1.36190
S         -1.31930       -1.54100        2.90300
C         -2.89440       -1.52090        2.13010
C         -2.81020       -1.49680        0.74330
N         -3.88560       -1.38980       -0.12970
C         -5.02340       -0.65030        0.22260
C         -6.30370       -1.09520       -0.11510
C         -7.41910       -0.38820        0.27450
C         -7.28980        0.78530        1.01140
S         -8.77940        1.62030        1.46690
C         -8.21590        3.33010        1.69610
C         -6.02190        1.23830        1.34990
C         -4.90440        0.53200        0.95130
C         -3.89800       -2.18830       -1.27810
C         -4.56480       -1.76140       -2.42490
C         -4.66280       -2.57990       -3.53100
C         -4.06270       -3.83120       -3.52530
S         -4.14850       -4.95630       -4.88820
C         -5.62530       -4.40200       -5.79160
C         -3.34500       -4.23990       -2.40580
C         -3.27320       -3.43560       -1.29010
C         -1.45880       -1.49500        0.31720
S         -0.66140       -1.40810       -1.22320
C         -4.10890       -1.50280        2.89600
C         -4.35060       -0.67610        4.00450
C         -3.40980        0.12570        4.70240
C         -3.95800        0.80170        5.74750
C         -3.30170        1.70790        6.69420
O         -3.86770        2.25090        7.61160
O         -1.99990        1.84630        6.41500
C         -1.25690        2.73260        7.25470
C         -1.42210        4.18080        6.81670
S         -5.66620        0.54240        5.90690
C         -5.66830       -0.50840        4.53440
C         -6.79840       -1.14860        4.01440
C         -6.49890       -2.14250        3.05210
C         -5.19590       -2.30130        2.49810
N         -5.26190       -3.30020        1.60140
N         -6.50630       -3.67600        1.63580
C         -6.98110       -4.77280        0.84210
C         -7.21460       -5.99800        1.71970
N         -7.29640       -3.03410        2.45070
C         -8.17230       -0.94790        4.32630
C         -8.82670        0.19710        4.67220
C         -8.30160        1.57260        4.60400
O         -7.17500        1.93320        4.30700
C         -9.44000        2.46230        4.89090
C         -9.41990        3.85460        4.94040
C        -10.64340        4.42430        5.19580
C        -11.80600        3.66580        5.38450
C        -11.83930        2.29260        5.34320
C        -10.60170        1.69140        5.09050
C        -10.24440        0.28000        4.98930
C        -11.09020       -0.77230        5.21790
C        -10.73650       -2.13910        5.20270
N        -10.55540       -3.27320        5.23470
C        -12.45870       -0.64250        5.53660
N        -13.57690       -0.61900        5.79700
C        -12.66450        4.88820        5.59890
C        -13.05110        5.21230        7.05740
C        -13.45490        6.66830        7.00920
C        -12.35370        7.38690        6.83080
C        -11.18710        6.42850        6.75550
C        -11.67470        5.34220        7.72270
C        -11.36720        5.73370        5.38920
H          7.76980        1.66660       -2.62760
H          7.61470       -0.82900       -8.38050
H         11.31040        2.23710       -6.77160
H         11.27500        2.08920      -10.20200
H         13.37530        0.80110       -9.84420
H         12.86090       -0.95730       -7.97860
H         10.94100       -2.56720       -8.85950
H         10.27260       -1.80140      -11.27010
H         11.92670        0.18250      -12.02750
H         12.85130       -1.23080      -11.46040
H          9.41040        0.52580      -11.05980
H          5.18760        3.14930       -3.09350
H          6.11700        5.25730       -3.92890
H          8.10510        7.55210       -2.01520
H          9.07270        6.62270       -3.15330
H          7.47280        7.19800       -3.63050
H          8.65490        5.50280       -0.50920
H          7.75390        3.37810        0.31790
H          4.79900        3.65080        0.80360
H          4.54670        3.38360        3.23780
H          6.29610        1.68580        5.24560
H          5.24820        0.27790        5.07400
H          4.54780        1.90110        5.18130
H          6.42000       -0.43950        3.01620
H          6.61740       -0.20460        0.57230
H          0.61340       -4.25880       -3.96820
H         -1.47590       -3.90400       -5.20520
H         -3.28990       -0.88610       -5.43610
H         -2.32170       -1.04190       -6.89880
H         -3.07770       -2.47440       -6.19830
H         -0.97500        0.31700       -4.84940
H          1.13090       -0.03130       -3.63930
H          4.30200       -3.42850       -1.84580
H          6.04480       -4.86590       -2.78780
H          6.84910       -6.26980       -4.55450
H          6.92270       -5.19880       -5.95440
H          5.82330       -6.57440       -5.96610
H          4.08900       -4.75380       -6.57510
H          2.38040       -3.26290       -5.65910
H          1.42270       -3.99350        0.52730
H          3.07290       -5.62390       -0.19080
H          4.50180       -7.47580        0.01410
H          4.62710       -6.64650       -1.57540
H          5.93990       -7.70110       -1.00390
H          6.19410       -3.18310        1.42150
H          4.50870       -1.52370        2.14010
H          2.96050       -2.61360        4.03730
H          3.10490       -1.41770        6.15130
H          3.73020       -0.18080        8.00830
H          2.02180       -0.70560        8.17350
H          2.63380        0.67610        9.11150
H          1.09990        1.93070        4.40110
H          0.99350        0.73400        2.25050
H         -6.42060       -2.01060       -0.67590
H         -8.40580       -0.74410        0.02040
H         -7.60010        3.39430        2.58840
H         -9.11480        3.92640        1.81840
H         -7.66840        3.64720        0.81370
H         -5.89340        2.13050        1.93950
H         -3.92390        0.89940        1.21590
H         -5.02350       -0.78400       -2.44250
H         -5.20880       -2.23040       -4.39250
H         -5.86000       -5.19880       -6.49050
H         -6.44540       -4.26550       -5.09350
H         -5.42040       -3.48590       -6.33850
H         -2.86810       -5.20800       -2.41140
H         -2.76310       -3.78530       -0.40610
H         -2.36440        0.18780        4.46400
H         -0.21920        2.40770        7.15930
H         -1.59770        2.60980        8.28790
H         -0.79330        4.81910        7.43040
H         -2.45830        4.49000        6.93140
H         -1.13220        4.29310        5.77460
H         -7.91780       -4.46710        0.36980
H         -6.22100       -4.96780        0.08290
H         -7.93770       -5.76230        2.49640
H         -7.59760       -6.81660        1.11740
H         -6.28440       -6.31170        2.18700
H         -8.77110       -1.83340        4.14970
H         -8.50340        4.40520        4.79460
H        -12.74290        1.72450        5.48660
H        -13.48940        5.01810        4.90090
H        -13.76090        4.52160        7.50410
H        -14.47220        7.01070        7.05230
H        -12.26760        8.44920        6.69500
H        -10.19870        6.84610        6.92790
H        -11.74520        5.70480        8.74680
H        -11.08240        4.42950        7.69970
H        -11.32790        6.42740        4.55090
