263

C         -2.78790       -4.30400        7.35890
C         -2.78680       -3.60720        8.54530
C         -2.28030       -2.24950        8.75130
O         -1.89700       -1.45880        7.90480
C         -2.29670       -2.01980       10.20750
C         -1.88190       -0.87490       10.88200
C         -2.01220       -0.95290       12.24810
C         -2.51420       -2.08840       12.89580
C         -2.92600       -3.22540       12.24090
C         -2.80590       -3.16570       10.85050
C         -3.15350       -4.15460        9.82950
C         -3.74990       -5.36940       10.07060
C         -4.02420       -5.88480       11.35250
N         -4.26250       -6.38010       12.36150
C         -4.20990       -6.26450        9.08610
N         -4.64600       -7.03620        8.35320
C         -2.37280       -1.46890       14.26390
C         -3.65450       -0.93690       14.95130
C         -4.61640       -0.57920       13.84580
C         -4.14420        0.49670       13.23060
C         -2.85450        0.88640       13.90970
C         -3.17090        0.46560       15.35370
C         -1.81590       -0.20190       13.54140
C         -2.44380       -3.90000        6.07030
C         -2.42200       -4.78560        4.96290
N         -2.55470       -6.14560        5.02220
C         -3.17490       -6.80670        3.94190
C         -2.61610       -7.96270        3.40470
C         -3.24360       -8.60840        2.35930
C         -4.43700       -8.12720        1.83000
C         -5.10170       -8.83500        0.68980
C         -4.98840       -6.97660        2.37760
C         -4.36690       -6.31660        3.41910
C         -2.02150       -6.92050        6.06820
C         -2.69450       -8.06000        6.50220
C         -2.17180       -8.81970        7.52920
C         -0.98150       -8.46520        8.15330
C         -0.45470       -9.27750        9.29560
C         -0.30800       -7.33710        7.69880
C         -0.81040       -6.57520        6.66320
C         -2.23020       -4.08060        3.76150
S         -2.02380       -4.55240        2.10490
C         -1.72960       -2.88710        1.65830
C         -1.78340       -2.02290        2.73070
N         -1.51490       -0.64320        2.63350
C         -0.13990       -0.28130        2.77620
C          0.72030       -0.29650        1.68840
C          2.04060        0.09240        1.83780
C          2.52840        0.50520        3.06900
C          3.94850        0.95480        3.23070
C          1.66200        0.50370        4.15840
C          0.34590        0.11270        4.02030
C         -2.46850        0.28170        3.06000
C         -2.18030        1.64610        2.97690
C         -3.13540        2.58750        3.29220
C         -4.40750        2.21380        3.70950
C         -5.43270        3.24920        4.06200
C         -4.68600        0.85870        3.80070
C         -3.74090       -0.09710        3.47700
C         -2.06680       -2.71240        3.93330
S         -2.11870       -2.23210        5.59040
C         -1.37970       -2.51110        0.31450
C         -1.99310       -1.54140       -0.45050
N         -3.21550       -0.95010       -0.16390
C         -4.27680       -1.73510        0.29410
C         -4.34220       -3.09470       -0.02110
C         -5.37030       -3.87740        0.45120
C         -6.37240       -3.32620        1.24550
S         -7.63860       -4.42810        1.80370
C         -8.77190       -3.36520        2.73860
C         -6.32960       -1.97190        1.54170
C         -5.29520       -1.18700        1.06940
C         -3.33030        0.43130       -0.37420
C         -2.23390        1.25800       -0.12480
C         -2.30630        2.61040       -0.35960
C         -3.48490        3.18070       -0.83040
S         -3.46310        4.93150       -1.06980
C         -5.12630        5.31350       -1.68620
C         -4.58110        2.36770       -1.08050
C         -4.49860        1.00460       -0.86640
C         -1.19960       -1.22020       -1.58260
S         -1.26770        0.01800       -2.77950
C          0.35660       -0.40040       -3.34390
C          0.88950       -1.46740       -2.65260
N          2.15910       -2.01690       -2.79140
C          3.30100       -1.20570       -2.81540
C          3.33040        0.01290       -2.14460
C          4.44880        0.82560       -2.19270
C          5.57220        0.42650       -2.90090
S          7.07540        1.34690       -3.01010
C          6.63700        3.01830       -2.45610
C          5.56300       -0.81200       -3.54160
C          4.44750       -1.61540       -3.50070
C          2.25680       -3.40840       -2.66810
C          3.33920       -4.01420       -2.02890
C          3.39460       -5.38410       -1.90430
C          2.36480       -6.18420       -2.39420
S          2.54640       -7.92950       -2.18420
C          0.90420       -8.58240       -2.60230
C          1.28150       -5.58760       -3.02270
C          1.23440       -4.21530       -3.16370
C         -0.02720       -1.94580       -1.67480
S          0.09570       -3.12980       -0.41770
C          0.97530        0.63420       -4.14100
C          1.23250        0.76700       -5.48860
N          0.90400       -0.13660       -6.48140
C          0.35960        0.36080       -7.67790
C         -0.51040        1.44910       -7.66410
C         -1.01880        1.94740       -8.84620
C         -0.69260        1.37140      -10.06830
C         -1.23170        1.94030      -11.34450
C          0.15690        0.27240      -10.07090
C          0.68310       -0.22820       -8.89660
C          1.09170       -1.52230       -6.35250
C          2.31780       -2.03770       -5.94790
C          2.52300       -3.40330       -5.94330
C          1.52130       -4.28470       -6.33230
C          1.78300       -5.75870       -6.37940
C          0.29030       -3.76000       -6.70690
C          0.07240       -2.39630       -6.71980
C          1.77910        2.05130       -5.76840
S          2.36630        2.80520       -7.20380
C          2.77810        4.27160       -6.29040
C          2.31750        4.20430       -4.95250
N          2.18580        5.23530       -4.08180
C          2.20270        6.58790       -4.46170
C          2.89520        7.50560       -3.67660
C          2.95970        8.83420       -4.05430
C          2.32790        9.28300       -5.20590
C          2.43080       10.70860       -5.64640
C          1.59170        8.36640       -5.95470
C          1.52730        7.03730       -5.59480
C          1.92700        4.96870       -2.71170
C          0.76280        5.44550       -2.12380
C          0.49200        5.15220       -0.80000
C          1.37160        4.38860       -0.04180
C          1.07330        4.03720        1.38350
C          2.55430        3.95460       -0.63250
C          2.83600        4.23950       -1.95360
C          1.84030        2.90180       -4.67550
S          1.28410        2.12070       -3.24650
C          3.49710        5.25920       -6.95090
C          4.28720        6.21710       -6.33480
C          4.92310        6.02850       -5.02970
O          4.82490        5.07170       -4.27790
C          5.81690        7.19480       -4.84920
C          6.65070        7.48670       -3.79420
C          7.39000        8.67060       -3.85160
C          8.30680        9.07010       -2.75530
O          8.95150       10.08960       -2.74460
O          8.34490        8.16730       -1.76390
C          9.20940        8.47650       -0.68150
C          7.28300        9.51240       -4.95710
C          6.44700        9.21000       -6.02220
C          5.70460        8.04260       -5.96550
C          4.73450        7.45830       -6.89220
C          4.22100        8.07160       -8.01020
C          3.18290        7.53100       -8.79370
N          2.31640        7.16710       -9.45470
C          4.60360        9.34850       -8.45760
N          4.85880       10.39410       -8.86040
H         -3.09370       -5.34020        7.42350
H         -1.49970       -0.02190       10.34320
H         -3.30800       -4.09170       12.75470
H         -1.71600       -1.98990       14.95790
H         -4.04400       -1.57750       15.73790
H         -5.48350       -1.16190       13.59510
H         -4.53760        0.99250       12.36250
H         -2.51630        1.90670       13.74820
H         -2.29670        0.45320       16.00340
H         -3.95680        1.06880       15.80590
H         -0.79610        0.10560       13.76610
H         -1.69110       -8.34510        3.81020
H         -2.80030       -9.50260        1.94540
H         -5.17260       -9.90270        0.88900
H         -4.51950       -8.70530       -0.22280
H         -6.10060       -8.44180        0.51940
H         -5.92480       -6.59540        1.99860
H         -4.81230       -5.42750        3.84080
H         -3.63090       -8.33500        6.04330
H         -2.70960       -9.69310        7.86590
H          0.56240       -8.98690        9.54660
H         -0.46830      -10.33800        9.05100
H         -1.08160       -9.13270       10.17580
H          0.62900       -7.05310        8.15600
H         -0.27110       -5.70570        6.31600
H          0.36410       -0.60260        0.71880
H          2.69650        0.07620        0.97860
H          4.51790        0.78230        2.32070
H          3.98250        2.01860        3.46630
H          4.42710        0.41970        4.04910
H          2.02690        0.81080        5.12780
H         -0.31970        0.11540        4.87140
H         -1.20170        1.96690        2.65460
H         -2.89060        3.63680        3.20720
H         -6.43660        2.83220        4.02520
H         -5.37610        4.09410        3.37820
H         -5.25840        3.62390        5.07140
H         -5.66500        0.53590        4.12730
H         -4.00670       -1.14110        3.53630
H         -3.58550       -3.54170       -0.64760
H         -5.40590       -4.92660        0.20300
H         -8.25910       -2.93540        3.59440
H         -9.17680       -2.59330        2.09020
H         -9.57020       -4.01780        3.07840
H         -7.09110       -1.50800        2.14770
H         -5.27000       -0.13890        1.32170
H         -1.32060        0.83490        0.25890
H         -1.44780        3.23750       -0.18090
H         -5.86960        5.03660       -0.94410
H         -5.14350        6.38780       -1.84160
H         -5.29870        4.80180       -2.62870
H         -5.50530        2.77580       -1.45740
H         -5.34920        0.37960       -1.09430
H          2.47350        0.32570       -1.56580
H          4.43100        1.76290       -1.66190
H          5.89010        3.44630       -3.11840
H          7.55650        3.59190       -2.52860
H          6.30140        3.00020       -1.42320
H          6.44430       -1.13120       -4.07650
H          4.45830       -2.57160       -3.99830
H          4.13000       -3.40630       -1.61670
H          4.23230       -5.85140       -1.40980
H          0.93490       -9.63710       -2.34750
H          0.71240       -8.46800       -3.66540
H          0.14930       -8.07800       -2.00650
H          0.46980       -6.17650       -3.41710
H          0.39530       -3.76320       -3.67100
H         -0.79080        1.89880       -6.72210
H         -1.68710        2.79600       -8.81990
H         -1.12400        1.23310      -12.16300
H         -2.28320        2.20020      -11.23820
H         -0.68850        2.84920      -11.60440
H          0.42250       -0.19420      -11.00850
H          1.35210       -1.07570       -8.91720
H          3.11030       -1.35740       -5.67370
H          3.48650       -3.80110       -5.65890
H          0.85140       -6.31970       -6.36500
H          2.31560       -6.01250       -7.29670
H          2.39930       -6.06810       -5.53780
H         -0.50710       -4.42700       -7.00240
H         -0.88080       -1.99620       -7.03320
H          3.39420        7.16750       -2.78070
H          3.52200        9.52900       -3.44760
H          2.90930       11.31870       -4.88490
H          3.01850       10.77960       -6.56200
H          1.44380       11.11610       -5.85810
H          1.06860        8.70080       -6.83860
H          0.95590        6.34380       -6.19320
H          0.06510        6.02800       -2.70680
H         -0.42550        5.51630       -0.36070
H          0.08040        4.37390        1.67050
H          1.80010        4.50310        2.04850
H          1.13650        2.95900        1.53060
H          3.25630        3.38290       -0.04220
H          3.75320        3.92000       -2.42110
H          3.47420        5.22460       -8.03330
H          6.72480        6.82410       -2.94650
H         10.23750        8.57940       -1.03470
H          8.90680        9.41370       -0.20970
H          9.12650        7.65030        0.01980
H          7.87460       10.41550       -4.96710
H          6.39190        9.87450       -6.86910
