
  xtb     02122201433D
 energy: -388.579482358093 gnorm: 0.000551125282 xtb: 6.4.1 (unknown)
235258  0     0  0            999 V2000
    2.7931   -8.0157    2.6682 C   0  0  0  0  0  0  0  0  0  0  0  0
    3.1620   -8.9539    1.7244 C   0  0  0  0  0  0  0  0  0  0  0  0
    2.7496   -8.8993    0.3183 C   0  0  0  0  0  0  0  0  0  0  0  0
    2.0772   -8.0370   -0.2265 O   0  0  0  0  0  0  0  0  0  0  0  0
    3.1997  -10.1684   -0.2868 C   0  0  0  0  0  0  0  0  0  0  0  0
    3.0368  -10.5747   -1.6069 C   0  0  0  0  0  0  0  0  0  0  0  0
    3.5987  -11.7975   -1.8898 C   0  0  0  0  0  0  0  0  0  0  0  0
    4.2558  -12.5684   -0.9244 C   0  0  0  0  0  0  0  0  0  0  0  0
    4.4092  -12.1848    0.3878 C   0  0  0  0  0  0  0  0  0  0  0  0
    3.8616  -10.9375    0.6895 C   0  0  0  0  0  0  0  0  0  0  0  0
    3.8650  -10.1849    1.9434 C   0  0  0  0  0  0  0  0  0  0  0  0
    4.5652  -10.5147    3.0792 C   0  0  0  0  0  0  0  0  0  0  0  0
    4.6562   -9.6854    4.2139 C   0  0  0  0  0  0  0  0  0  0  0  0
    4.8022   -9.0477    5.1585 N   0  0  0  0  0  0  0  0  0  0  0  0
    5.3477  -11.6738    3.2229 C   0  0  0  0  0  0  0  0  0  0  0  0
    6.0177  -12.5924    3.3923 N   0  0  0  0  0  0  0  0  0  0  0  0
    4.5865  -13.6637   -1.9073 C   0  0  0  0  0  0  0  0  0  0  0  0
    6.0367  -13.7284   -2.4470 C   0  0  0  0  0  0  0  0  0  0  0  0
    6.5867  -12.3260   -2.3704 C   0  0  0  0  0  0  0  0  0  0  0  0
    5.9660  -11.5970   -3.2883 C   0  0  0  0  0  0  0  0  0  0  0  0
    4.9834  -12.4932   -4.0001 C   0  0  0  0  0  0  0  0  0  0  0  0
    5.7492  -13.8250   -3.9539 C   0  0  0  0  0  0  0  0  0  0  0  0
    3.8550  -12.8032   -2.9852 C   0  0  0  0  0  0  0  0  0  0  0  0
    2.4571   -6.6898    2.3970 C   0  0  0  0  0  0  0  0  0  0  0  0
    2.8043   -5.8459    1.3195 C   0  0  0  0  0  0  0  0  0  0  0  0
    3.7710   -6.0684    0.3875 N   0  0  0  0  0  0  0  0  0  0  0  0
    3.7748   -5.3222   -0.8153 C   0  0  0  0  0  0  0  0  0  0  0  0
    2.6509   -5.2860   -1.6319 C   0  0  0  0  0  0  0  0  0  0  0  0
    2.6739   -4.5488   -2.8000 C   0  0  0  0  0  0  0  0  0  0  0  0
    3.8089   -3.8410   -3.1773 C   0  0  0  0  0  0  0  0  0  0  0  0
    3.8405   -3.0561   -4.4518 C   0  0  0  0  0  0  0  0  0  0  0  0
    4.9332   -3.9018   -2.3617 C   0  0  0  0  0  0  0  0  0  0  0  0
    4.9234   -4.6350   -1.1921 C   0  0  0  0  0  0  0  0  0  0  0  0
    4.8203   -6.9840    0.5617 C   0  0  0  0  0  0  0  0  0  0  0  0
    5.2173   -7.7806   -0.5105 C   0  0  0  0  0  0  0  0  0  0  0  0
    6.2214   -8.7158   -0.3488 C   0  0  0  0  0  0  0  0  0  0  0  0
    6.8638   -8.8729    0.8727 C   0  0  0  0  0  0  0  0  0  0  0  0
    7.9105   -9.9252    1.0614 C   0  0  0  0  0  0  0  0  0  0  0  0
    6.4952   -8.0380    1.9242 C   0  0  0  0  0  0  0  0  0  0  0  0
    5.4882   -7.1066    1.7782 C   0  0  0  0  0  0  0  0  0  0  0  0
    2.0811   -4.6337    1.4001 C   0  0  0  0  0  0  0  0  0  0  0  0
    2.0247   -3.2242    0.4059 S   0  0  0  0  0  0  0  0  0  0  0  0
    0.8413   -2.4895    1.4801 C   0  0  0  0  0  0  0  0  0  0  0  0
    0.5897   -3.2568    2.6078 C   0  0  0  0  0  0  0  0  0  0  0  0
   -0.1609   -2.8445    3.6873 N   0  0  0  0  0  0  0  0  0  0  0  0
   -0.2794   -1.4776    3.9923 C   0  0  0  0  0  0  0  0  0  0  0  0
    0.7850   -0.5975    3.8174 C   0  0  0  0  0  0  0  0  0  0  0  0
    0.6298    0.7481    4.0898 C   0  0  0  0  0  0  0  0  0  0  0  0
   -0.5707    1.2490    4.5744 C   0  0  0  0  0  0  0  0  0  0  0  0
   -0.7555    2.7101    4.8483 C   0  0  0  0  0  0  0  0  0  0  0  0
   -1.6127    0.3544    4.7986 C   0  0  0  0  0  0  0  0  0  0  0  0
   -1.4790   -0.9878    4.5019 C   0  0  0  0  0  0  0  0  0  0  0  0
   -0.6950   -3.7808    4.5929 C   0  0  0  0  0  0  0  0  0  0  0  0
   -1.2995   -4.9487    4.1409 C   0  0  0  0  0  0  0  0  0  0  0  0
   -1.8271   -5.8540    5.0419 C   0  0  0  0  0  0  0  0  0  0  0  0
   -1.7686   -5.6228    6.4090 C   0  0  0  0  0  0  0  0  0  0  0  0
   -2.3213   -6.6153    7.3849 C   0  0  0  0  0  0  0  0  0  0  0  0
   -1.1604   -4.4533    6.8530 C   0  0  0  0  0  0  0  0  0  0  0  0
   -0.6266   -3.5433    5.9641 C   0  0  0  0  0  0  0  0  0  0  0  0
    1.2820   -4.4941    2.5279 C   0  0  0  0  0  0  0  0  0  0  0  0
    1.4049   -5.8692    3.5628 S   0  0  0  0  0  0  0  0  0  0  0  0
    0.3195   -1.2195    1.0623 C   0  0  0  0  0  0  0  0  0  0  0  0
   -0.9823   -0.8135    0.8230 C   0  0  0  0  0  0  0  0  0  0  0  0
   -2.1355   -1.5557    1.0023 N   0  0  0  0  0  0  0  0  0  0  0  0
   -2.1682   -2.9440    0.8195 C   0  0  0  0  0  0  0  0  0  0  0  0
   -1.3116   -3.5925   -0.0660 C   0  0  0  0  0  0  0  0  0  0  0  0
   -1.3215   -4.9699   -0.1798 C   0  0  0  0  0  0  0  0  0  0  0  0
   -2.2257   -5.7229    0.5561 C   0  0  0  0  0  0  0  0  0  0  0  0
   -2.3062   -7.4852    0.5331 S   0  0  0  0  0  0  0  0  0  0  0  0
   -1.0830   -7.9778   -0.7109 C   0  0  0  0  0  0  0  0  0  0  0  0
   -3.1373   -5.0701    1.3869 C   0  0  0  0  0  0  0  0  0  0  0  0
   -3.1002   -3.7012    1.5298 C   0  0  0  0  0  0  0  0  0  0  0  0
   -3.3545   -0.8488    1.0710 C   0  0  0  0  0  0  0  0  0  0  0  0
   -4.4008   -1.1467    0.2023 C   0  0  0  0  0  0  0  0  0  0  0  0
   -5.5367   -0.3624    0.1804 C   0  0  0  0  0  0  0  0  0  0  0  0
   -5.6465    0.7334    1.0279 C   0  0  0  0  0  0  0  0  0  0  0  0
   -7.0192    1.8462    1.0023 S   0  0  0  0  0  0  0  0  0  0  0  0
   -7.6348    1.6624   -0.6965 C   0  0  0  0  0  0  0  0  0  0  0  0
   -4.6377    0.9868    1.9510 C   0  0  0  0  0  0  0  0  0  0  0  0
   -3.5009    0.2076    1.9695 C   0  0  0  0  0  0  0  0  0  0  0  0
   -1.0001    0.4980    0.2805 C   0  0  0  0  0  0  0  0  0  0  0  0
   -2.2579    1.5517   -0.2454 S   0  0  0  0  0  0  0  0  0  0  0  0
   -1.0874    2.7639   -0.7462 C   0  0  0  0  0  0  0  0  0  0  0  0
    0.2225    2.3641   -0.4977 C   0  0  0  0  0  0  0  0  0  0  0  0
    1.3898    3.0680   -0.7481 N   0  0  0  0  0  0  0  0  0  0  0  0
    1.5078    4.4369   -0.5063 C   0  0  0  0  0  0  0  0  0  0  0  0
    0.7182    5.0680    0.4570 C   0  0  0  0  0  0  0  0  0  0  0  0
    0.7952    6.4315    0.6340 C   0  0  0  0  0  0  0  0  0  0  0  0
    1.6687    7.1979   -0.1329 C   0  0  0  0  0  0  0  0  0  0  0  0
    1.6622    8.9414    0.1433 S   0  0  0  0  0  0  0  0  0  0  0  0
    3.2602    9.4732   -0.5357 C   0  0  0  0  0  0  0  0  0  0  0  0
    2.4745    6.5742   -1.0764 C   0  0  0  0  0  0  0  0  0  0  0  0
    2.3908    5.2093   -1.2618 C   0  0  0  0  0  0  0  0  0  0  0  0
    2.4969    2.3154   -1.1791 C   0  0  0  0  0  0  0  0  0  0  0  0
    3.7623    2.5139   -0.6372 C   0  0  0  0  0  0  0  0  0  0  0  0
    4.8284    1.7319   -1.0373 C   0  0  0  0  0  0  0  0  0  0  0  0
    4.6412    0.7271   -1.9770 C   0  0  0  0  0  0  0  0  0  0  0  0
    5.9248   -0.3416   -2.5452 S   0  0  0  0  0  0  0  0  0  0  0  0
    7.2849   -0.0498   -1.3800 C   0  0  0  0  0  0  0  0  0  0  0  0
    3.3795    0.5354   -2.5350 C   0  0  0  0  0  0  0  0  0  0  0  0
    2.3216    1.3248   -2.1468 C   0  0  0  0  0  0  0  0  0  0  0  0
    0.2444    1.0636    0.0707 C   0  0  0  0  0  0  0  0  0  0  0  0
    1.5033   -0.0105    0.5610 S   0  0  0  0  0  0  0  0  0  0  0  0
   -1.6477    3.9626   -1.2643 C   0  0  0  0  0  0  0  0  0  0  0  0
   -1.0838    5.0157   -1.9280 C   0  0  0  0  0  0  0  0  0  0  0  0
   -1.9851    6.0685   -2.2004 C   0  0  0  0  0  0  0  0  0  0  0  0
   -1.6958    7.3184   -2.7895 C   0  0  0  0  0  0  0  0  0  0  0  0
   -0.3859    7.6341   -3.3100 C   0  0  0  0  0  0  0  0  0  0  0  0
    0.4767    6.8001   -3.9725 C   0  0  0  0  0  0  0  0  0  0  0  0
    1.6998    7.3666   -4.3722 C   0  0  0  0  0  0  0  0  0  0  0  0
    1.8570    8.6828   -4.0373 C   0  0  0  0  0  0  0  0  0  0  0  0
    3.3036    9.6107   -4.3969 S   0  0  0  0  0  0  0  0  0  0  0  0
    2.6288   11.3051   -4.5658 C   0  0  0  0  0  0  0  0  0  0  0  0
    2.5721   12.0478   -3.2461 C   0  0  0  0  0  0  0  0  0  0  0  0
    0.3616    9.3434   -3.1058 Se  0  0  0  0  0  2  0  0  0  0  0  0
   -2.7347    8.2442   -2.7984 C   0  0  0  0  0  0  0  0  0  0  0  0
   -4.0462    7.9604   -2.3286 C   0  0  0  0  0  0  0  0  0  0  0  0
   -4.3687    6.6609   -1.8412 C   0  0  0  0  0  0  0  0  0  0  0  0
   -5.7107    6.3061   -1.4615 C   0  0  0  0  0  0  0  0  0  0  0  0
   -6.8723    6.8026   -2.0013 C   0  0  0  0  0  0  0  0  0  0  0  0
   -8.0726    6.3698   -1.4140 C   0  0  0  0  0  0  0  0  0  0  0  0
   -7.9159    5.4906   -0.3780 C   0  0  0  0  0  0  0  0  0  0  0  0
   -9.1231    4.7873    0.6706 S   0  0  0  0  0  0  0  0  0  0  0  0
  -10.6910    5.1444   -0.2029 C   0  0  0  0  0  0  0  0  0  0  0  0
  -10.8632    4.2993   -1.4502 C   0  0  0  0  0  0  0  0  0  0  0  0
   -6.1137    5.0638   -0.0830 Se  0  0  0  0  0  2  0  0  0  0  0  0
   -3.2967    5.7836   -1.7425 C   0  0  0  0  0  0  0  0  0  0  0  0
   -3.3744    4.2006   -1.0241 S   0  0  0  0  0  0  0  0  0  0  0  0
   -4.8527    9.1018   -2.3692 C   0  0  0  0  0  0  0  0  0  0  0  0
   -4.2341   10.2253   -2.8990 C   0  0  0  0  0  0  0  0  0  0  0  0
   -2.5786    9.8820   -3.3543 S   0  0  0  0  0  0  0  0  0  0  0  0
   -4.9067   11.4472   -3.0453 C   0  0  0  0  0  0  0  0  0  0  0  0
   -4.4746   12.6510   -3.5446 C   0  0  0  0  0  0  0  0  0  0  0  0
   -3.1127   12.9688   -3.9949 C   0  0  0  0  0  0  0  0  0  0  0  0
   -2.1472   12.2344   -4.0713 O   0  0  0  0  0  0  0  0  0  0  0  0
   -3.1323   14.4055   -4.3475 C   0  0  0  0  0  0  0  0  0  0  0  0
   -2.0908   15.1851   -4.8037 C   0  0  0  0  0  0  0  0  0  0  0  0
   -2.3647   16.5209   -5.0640 C   0  0  0  0  0  0  0  0  0  0  0  0
   -0.9697   17.6478   -5.6941 Br  0  0  0  0  0  0  0  0  0  0  0  0
   -3.6320   17.0540   -4.8742 C   0  0  0  0  0  0  0  0  0  0  0  0
   -4.6726   16.2589   -4.4166 C   0  0  0  0  0  0  0  0  0  0  0  0
   -4.4247   14.9200   -4.1500 C   0  0  0  0  0  0  0  0  0  0  0  0
   -5.2901   13.8419   -3.6731 C   0  0  0  0  0  0  0  0  0  0  0  0
   -6.6372   13.9626   -3.4377 C   0  0  0  0  0  0  0  0  0  0  0  0
   -7.3615   15.1622   -3.5962 C   0  0  0  0  0  0  0  0  0  0  0  0
   -8.0101   16.1038   -3.7024 N   0  0  0  0  0  0  0  0  0  0  0  0
   -7.5043   12.9275   -3.0318 C   0  0  0  0  0  0  0  0  0  0  0  0
   -8.2852   12.1450   -2.7173 N   0  0  0  0  0  0  0  0  0  0  0  0
    2.6998   -8.3257    3.7019 H   0  0  0  0  0  0  0  0  0  0  0  0
    2.5206   -9.9521   -2.3216 H   0  0  0  0  0  0  0  0  0  0  0  0
    4.9057  -12.7950    1.1240 H   0  0  0  0  0  0  0  0  0  0  0  0
    4.1839  -14.6493   -1.6823 H   0  0  0  0  0  0  0  0  0  0  0  0
    6.6496  -14.5078   -2.0025 H   0  0  0  0  0  0  0  0  0  0  0  0
    7.3068  -12.0079   -1.6392 H   0  0  0  0  0  0  0  0  0  0  0  0
    6.0628  -10.5446   -3.4843 H   0  0  0  0  0  0  0  0  0  0  0  0
    4.6364  -12.1491   -4.9711 H   0  0  0  0  0  0  0  0  0  0  0  0
    5.1392  -14.6857   -4.2245 H   0  0  0  0  0  0  0  0  0  0  0  0
    6.6552  -13.8119   -4.5583 H   0  0  0  0  0  0  0  0  0  0  0  0
    2.9733  -13.2272   -3.4625 H   0  0  0  0  0  0  0  0  0  0  0  0
    1.7829   -5.8591   -1.3467 H   0  0  0  0  0  0  0  0  0  0  0  0
    1.7973   -4.5259   -3.4315 H   0  0  0  0  0  0  0  0  0  0  0  0
    4.5151   -2.2078   -4.3617 H   0  0  0  0  0  0  0  0  0  0  0  0
    2.8470   -2.7011   -4.7153 H   0  0  0  0  0  0  0  0  0  0  0  0
    4.1995   -3.6849   -5.2670 H   0  0  0  0  0  0  0  0  0  0  0  0
    5.8215   -3.3573   -2.6443 H   0  0  0  0  0  0  0  0  0  0  0  0
    5.7987   -4.6753   -0.5600 H   0  0  0  0  0  0  0  0  0  0  0  0
    4.7221   -7.6706   -1.4638 H   0  0  0  0  0  0  0  0  0  0  0  0
    6.4980   -9.3458   -1.1813 H   0  0  0  0  0  0  0  0  0  0  0  0
    8.4295  -10.1283    0.1275 H   0  0  0  0  0  0  0  0  0  0  0  0
    8.6356   -9.6223    1.8129 H   0  0  0  0  0  0  0  0  0  0  0  0
    7.4483  -10.8535    1.4009 H   0  0  0  0  0  0  0  0  0  0  0  0
    6.9986   -8.1248    2.8761 H   0  0  0  0  0  0  0  0  0  0  0  0
    5.2147   -6.4747    2.6099 H   0  0  0  0  0  0  0  0  0  0  0  0
    1.7392   -0.9684    3.4741 H   0  0  0  0  0  0  0  0  0  0  0  0
    1.4635    1.4168    3.9295 H   0  0  0  0  0  0  0  0  0  0  0  0
    0.1681    3.2581    4.6792 H   0  0  0  0  0  0  0  0  0  0  0  0
   -1.5269    3.1218    4.1972 H   0  0  0  0  0  0  0  0  0  0  0  0
   -1.0727    2.8692    5.8778 H   0  0  0  0  0  0  0  0  0  0  0  0
   -2.5491    0.7187    5.1970 H   0  0  0  0  0  0  0  0  0  0  0  0
   -2.3055   -1.6653    4.6574 H   0  0  0  0  0  0  0  0  0  0  0  0
   -1.3680   -5.1393    3.0828 H   0  0  0  0  0  0  0  0  0  0  0  0
   -2.2937   -6.7536    4.6681 H   0  0  0  0  0  0  0  0  0  0  0  0
   -2.7314   -6.1139    8.2588 H   0  0  0  0  0  0  0  0  0  0  0  0
   -1.5290   -7.2841    7.7226 H   0  0  0  0  0  0  0  0  0  0  0  0
   -3.0993   -7.2197    6.9250 H   0  0  0  0  0  0  0  0  0  0  0  0
   -1.0972   -4.2558    7.9134 H   0  0  0  0  0  0  0  0  0  0  0  0
   -0.1519   -2.6435    6.3273 H   0  0  0  0  0  0  0  0  0  0  0  0
   -0.6369   -3.0180   -0.6819 H   0  0  0  0  0  0  0  0  0  0  0  0
   -0.6229   -5.4413   -0.8515 H   0  0  0  0  0  0  0  0  0  0  0  0
   -1.3173   -7.5093   -1.6625 H   0  0  0  0  0  0  0  0  0  0  0  0
   -1.1828   -9.0557   -0.7999 H   0  0  0  0  0  0  0  0  0  0  0  0
   -0.0766   -7.7346   -0.3803 H   0  0  0  0  0  0  0  0  0  0  0  0
   -3.8548   -5.6562    1.9402 H   0  0  0  0  0  0  0  0  0  0  0  0
   -3.7882   -3.2066    2.1987 H   0  0  0  0  0  0  0  0  0  0  0  0
   -4.3092   -1.9815   -0.4771 H   0  0  0  0  0  0  0  0  0  0  0  0
   -6.3237   -0.6025   -0.5164 H   0  0  0  0  0  0  0  0  0  0  0  0
   -8.1864    0.7331   -0.8048 H   0  0  0  0  0  0  0  0  0  0  0  0
   -6.7973    1.7097   -1.3861 H   0  0  0  0  0  0  0  0  0  0  0  0
   -8.3002    2.5040   -0.8599 H   0  0  0  0  0  0  0  0  0  0  0  0
   -4.7414    1.8201    2.6284 H   0  0  0  0  0  0  0  0  0  0  0  0
   -2.7002    0.4288    2.6574 H   0  0  0  0  0  0  0  0  0  0  0  0
    0.0472    4.4824    1.0667 H   0  0  0  0  0  0  0  0  0  0  0  0
    0.1776    6.9197    1.3722 H   0  0  0  0  0  0  0  0  0  0  0  0
    4.0498    8.8516   -0.1250 H   0  0  0  0  0  0  0  0  0  0  0  0
    3.3888   10.5011   -0.2114 H   0  0  0  0  0  0  0  0  0  0  0  0
    3.2492    9.4273   -1.6212 H   0  0  0  0  0  0  0  0  0  0  0  0
    3.1539    7.1423   -1.6911 H   0  0  0  0  0  0  0  0  0  0  0  0
    3.0007    4.7372   -2.0178 H   0  0  0  0  0  0  0  0  0  0  0  0
    3.9088    3.2801    0.1095 H   0  0  0  0  0  0  0  0  0  0  0  0
    5.7967    1.9108   -0.5983 H   0  0  0  0  0  0  0  0  0  0  0  0
    8.0386   -0.7954   -1.6136 H   0  0  0  0  0  0  0  0  0  0  0  0
    7.6977    0.9446   -1.5237 H   0  0  0  0  0  0  0  0  0  0  0  0
    6.9280   -0.1888   -0.3639 H   0  0  0  0  0  0  0  0  0  0  0  0
    3.2407   -0.2402   -3.2713 H   0  0  0  0  0  0  0  0  0  0  0  0
    1.3447    1.1744   -2.5821 H   0  0  0  0  0  0  0  0  0  0  0  0
   -0.0485    5.0553   -2.1994 H   0  0  0  0  0  0  0  0  0  0  0  0
    0.2067    5.7937   -4.2448 H   0  0  0  0  0  0  0  0  0  0  0  0
    2.4468    6.8195   -4.9214 H   0  0  0  0  0  0  0  0  0  0  0  0
    1.6380   11.2062   -5.0128 H   0  0  0  0  0  0  0  0  0  0  0  0
    3.2992   11.8009   -5.2677 H   0  0  0  0  0  0  0  0  0  0  0  0
    3.5591   12.0964   -2.7913 H   0  0  0  0  0  0  0  0  0  0  0  0
    2.2129   13.0609   -3.4136 H   0  0  0  0  0  0  0  0  0  0  0  0
    1.8877   11.5525   -2.5547 H   0  0  0  0  0  0  0  0  0  0  0  0
   -6.8772    7.4527   -2.8597 H   0  0  0  0  0  0  0  0  0  0  0  0
   -9.0270    6.7269   -1.7593 H   0  0  0  0  0  0  0  0  0  0  0  0
  -10.7224    6.2114   -0.4167 H   0  0  0  0  0  0  0  0  0  0  0  0
  -11.4575    4.9109    0.5354 H   0  0  0  0  0  0  0  0  0  0  0  0
  -10.0573    4.4814   -2.1583 H   0  0  0  0  0  0  0  0  0  0  0  0
  -10.8669    3.2426   -1.1924 H   0  0  0  0  0  0  0  0  0  0  0  0
  -11.8085    4.5417   -1.9315 H   0  0  0  0  0  0  0  0  0  0  0  0
   -5.8567    9.1452   -1.9870 H   0  0  0  0  0  0  0  0  0  0  0  0
   -5.9339   11.4060   -2.7032 H   0  0  0  0  0  0  0  0  0  0  0  0
   -1.1081   14.7642   -4.9491 H   0  0  0  0  0  0  0  0  0  0  0  0
   -3.8090   18.0975   -5.0853 H   0  0  0  0  0  0  0  0  0  0  0  0
   -5.6474   16.6956   -4.2760 H   0  0  0  0  0  0  0  0  0  0  0  0
  1  2  2  0  0  0  0
  2  3  1  0  0  0  0
  3  4  2  0  0  0  0
  3  5  1  0  0  0  0
  5  6  2  0  0  0  0
  6  7  1  0  0  0  0
  7  8  2  0  0  0  0
  8  9  1  0  0  0  0
  9 10  2  0  0  0  0
 10 11  1  0  0  0  0
 11 12  2  0  0  0  0
 12 13  1  0  0  0  0
 13 14  3  0  0  0  0
 12 15  1  0  0  0  0
 15 16  3  0  0  0  0
  8 17  1  0  0  0  0
 17 18  1  0  0  0  0
 18 19  1  0  0  0  0
 19 20  2  0  0  0  0
 20 21  1  0  0  0  0
 21 22  1  0  0  0  0
 21 23  1  0  0  0  0
  1 24  1  0  0  0  0
 24 25  2  0  0  0  0
 25 26  1  0  0  0  0
 26 27  1  0  0  0  0
 27 28  2  0  0  0  0
 28 29  1  0  0  0  0
 29 30  2  0  0  0  0
 30 31  1  0  0  0  0
 30 32  1  0  0  0  0
 32 33  2  0  0  0  0
 26 34  1  0  0  0  0
 34 35  2  0  0  0  0
 35 36  1  0  0  0  0
 36 37  2  0  0  0  0
 37 38  1  0  0  0  0
 37 39  1  0  0  0  0
 39 40  2  0  0  0  0
 25 41  1  0  0  0  0
 41 42  1  0  0  0  0
 42 43  1  0  0  0  0
 43 44  2  0  0  0  0
 44 45  1  0  0  0  0
 45 46  1  0  0  0  0
 46 47  2  0  0  0  0
 47 48  1  0  0  0  0
 48 49  2  0  0  0  0
 49 50  1  0  0  0  0
 49 51  1  0  0  0  0
 51 52  2  0  0  0  0
 45 53  1  0  0  0  0
 53 54  2  0  0  0  0
 54 55  1  0  0  0  0
 55 56  2  0  0  0  0
 56 57  1  0  0  0  0
 56 58  1  0  0  0  0
 58 59  2  0  0  0  0
 44 60  1  0  0  0  0
 60 61  1  0  0  0  0
 43 62  1  0  0  0  0
 62 63  2  0  0  0  0
 63 64  1  0  0  0  0
 64 65  1  0  0  0  0
 65 66  2  0  0  0  0
 66 67  1  0  0  0  0
 67 68  2  0  0  0  0
 68 69  1  0  0  0  0
 69 70  1  0  0  0  0
 68 71  1  0  0  0  0
 71 72  2  0  0  0  0
 64 73  1  0  0  0  0
 73 74  2  0  0  0  0
 74 75  1  0  0  0  0
 75 76  2  0  0  0  0
 76 77  1  0  0  0  0
 77 78  1  0  0  0  0
 76 79  1  0  0  0  0
 79 80  2  0  0  0  0
 63 81  1  0  0  0  0
 81 82  1  0  0  0  0
 82 83  1  0  0  0  0
 83 84  2  0  0  0  0
 84 85  1  0  0  0  0
 85 86  1  0  0  0  0
 86 87  2  0  0  0  0
 87 88  1  0  0  0  0
 88 89  2  0  0  0  0
 89 90  1  0  0  0  0
 90 91  1  0  0  0  0
 89 92  1  0  0  0  0
 92 93  2  0  0  0  0
 85 94  1  0  0  0  0
 94 95  2  0  0  0  0
 95 96  1  0  0  0  0
 96 97  2  0  0  0  0
 97 98  1  0  0  0  0
 98 99  1  0  0  0  0
 97100  1  0  0  0  0
100101  2  0  0  0  0
 84102  1  0  0  0  0
102103  1  0  0  0  0
 83104  1  0  0  0  0
104105  2  0  0  0  0
105106  1  0  0  0  0
106107  2  0  0  0  0
107108  1  0  0  0  0
108109  2  0  0  0  0
109110  1  0  0  0  0
110111  2  0  0  0  0
111112  1  0  0  0  0
112113  1  0  0  0  0
113114  1  0  0  0  0
111115  1  0  0  0  0
107116  1  0  0  0  0
116117  2  0  0  0  0
117118  1  0  0  0  0
118119  1  0  0  0  0
119120  2  0  0  0  0
120121  1  0  0  0  0
121122  2  0  0  0  0
122123  1  0  0  0  0
123124  1  0  0  0  0
124125  1  0  0  0  0
122126  1  0  0  0  0
118127  2  0  0  0  0
127128  1  0  0  0  0
117129  1  0  0  0  0
129130  2  0  0  0  0
130131  1  0  0  0  0
130132  1  0  0  0  0
132133  2  0  0  0  0
133134  1  0  0  0  0
134135  2  0  0  0  0
134136  1  0  0  0  0
136137  2  0  0  0  0
137138  1  0  0  0  0
138139  1  0  0  0  0
138140  2  0  0  0  0
140141  1  0  0  0  0
141142  2  0  0  0  0
142143  1  0  0  0  0
143144  2  0  0  0  0
144145  1  0  0  0  0
145146  3  0  0  0  0
144147  1  0  0  0  0
147148  3  0  0  0  0
 11  2  1  0  0  0  0
 23 17  1  0  0  0  0
 61 24  1  0  0  0  0
103 62  1  0  0  0  0
128104  1  0  0  0  0
143133  1  0  0  0  0
 10  5  1  0  0  0  0
 22 18  1  0  0  0  0
 33 27  1  0  0  0  0
 40 34  1  0  0  0  0
 60 41  2  0  0  0  0
 72 65  1  0  0  0  0
 80 73  1  0  0  0  0
102 81  2  0  0  0  0
127106  1  0  0  0  0
142136  1  0  0  0  0
 23  7  1  0  0  0  0
 52 46  1  0  0  0  0
 59 53  1  0  0  0  0
 93 86  1  0  0  0  0
101 94  1  0  0  0  0
115108  1  0  0  0  0
131116  1  0  0  0  0
126119  1  0  0  0  0
  1149  1  0  0  0  0
  6150  1  0  0  0  0
  9151  1  0  0  0  0
 17152  1  0  0  0  0
 18153  1  0  0  0  0
 19154  1  0  0  0  0
 20155  1  0  0  0  0
 21156  1  0  0  0  0
 22157  1  0  0  0  0
 22158  1  0  0  0  0
 23159  1  0  0  0  0
 28160  1  0  0  0  0
 29161  1  0  0  0  0
 31162  1  0  0  0  0
 31163  1  0  0  0  0
 31164  1  0  0  0  0
 32165  1  0  0  0  0
 33166  1  0  0  0  0
 35167  1  0  0  0  0
 36168  1  0  0  0  0
 38169  1  0  0  0  0
 38170  1  0  0  0  0
 38171  1  0  0  0  0
 39172  1  0  0  0  0
 40173  1  0  0  0  0
 47174  1  0  0  0  0
 48175  1  0  0  0  0
 50176  1  0  0  0  0
 50177  1  0  0  0  0
 50178  1  0  0  0  0
 51179  1  0  0  0  0
 52180  1  0  0  0  0
 54181  1  0  0  0  0
 55182  1  0  0  0  0
 57183  1  0  0  0  0
 57184  1  0  0  0  0
 57185  1  0  0  0  0
 58186  1  0  0  0  0
 59187  1  0  0  0  0
 66188  1  0  0  0  0
 67189  1  0  0  0  0
 70190  1  0  0  0  0
 70191  1  0  0  0  0
 70192  1  0  0  0  0
 71193  1  0  0  0  0
 72194  1  0  0  0  0
 74195  1  0  0  0  0
 75196  1  0  0  0  0
 78197  1  0  0  0  0
 78198  1  0  0  0  0
 78199  1  0  0  0  0
 79200  1  0  0  0  0
 80201  1  0  0  0  0
 87202  1  0  0  0  0
 88203  1  0  0  0  0
 91204  1  0  0  0  0
 91205  1  0  0  0  0
 91206  1  0  0  0  0
 92207  1  0  0  0  0
 93208  1  0  0  0  0
 95209  1  0  0  0  0
 96210  1  0  0  0  0
 99211  1  0  0  0  0
 99212  1  0  0  0  0
 99213  1  0  0  0  0
100214  1  0  0  0  0
101215  1  0  0  0  0
105216  1  0  0  0  0
109217  1  0  0  0  0
110218  1  0  0  0  0
113219  1  0  0  0  0
113220  1  0  0  0  0
114221  1  0  0  0  0
114222  1  0  0  0  0
114223  1  0  0  0  0
120224  1  0  0  0  0
121225  1  0  0  0  0
124226  1  0  0  0  0
124227  1  0  0  0  0
125228  1  0  0  0  0
125229  1  0  0  0  0
125230  1  0  0  0  0
129231  1  0  0  0  0
132232  1  0  0  0  0
137233  1  0  0  0  0
140234  1  0  0  0  0
141235  1  0  0  0  0
M  END
