170

C        -10.85770        3.18170        2.87710
C        -11.36940        3.35810        1.62950
C        -11.02290        2.58200        0.40830
O        -10.63290        1.43850        0.31820
C        -11.23300        3.51330       -0.71290
C        -10.86700        3.30200       -2.03980
C        -11.11260        4.37340       -2.86250
C        -11.67910        5.57010       -2.39990
C        -12.07450        5.77960       -1.09970
C        -11.83360        4.69920       -0.24560
C        -12.06310        4.56200        1.18790
C        -12.83270        5.37570        1.97060
C        -13.08860        5.13750        3.33890
N        -13.34530        4.98700        4.44720
C        -13.51430        6.51500        1.49300
N        -14.08660        7.45120        1.15710
C        -11.56250        6.23530       -3.74780
C        -10.39360        7.23290       -3.95130
C         -9.28950        6.81110       -3.01290
C         -8.77880        5.67440       -3.46770
C         -9.53350        5.30550       -4.72180
C         -9.83230        6.70520       -5.28140
C        -10.95650        4.89400       -4.26900
C         -9.95090        2.15920        3.27090
S         -8.64700        2.63950        4.36640
C         -7.78210        1.16880        4.02520
C         -6.47410        0.89400        4.36080
C         -5.88650       -0.24170        3.80340
C         -4.51340       -0.59390        3.77480
C         -4.24110       -1.63520        2.93500
S         -5.69220       -2.35320        2.26810
C         -6.66970       -1.11320        2.99930
C         -7.99830       -0.88480        2.73210
C         -8.55690        0.30100        3.20810
C         -9.79020        0.87710        2.82600
C         -2.95530       -2.00020        2.42090
C         -2.67760       -2.35530        1.11350
N         -3.65390       -2.60210        0.12690
C         -4.24440       -1.52240       -0.53030
C         -4.18340       -0.23040       -0.00010
C         -4.83530        0.81600       -0.61470
C         -5.55210        0.61500       -1.78860
S         -6.39170        2.01750       -2.46870
C         -7.61520        1.27040       -3.58620
C         -5.54260       -0.64380       -2.37240
C         -4.89200       -1.69370       -1.75480
C         -4.07090       -3.93290       -0.03510
C         -3.16170       -4.97670        0.14460
C         -3.56530       -6.28840        0.02900
C         -4.88860       -6.60040       -0.26830
S         -5.28590       -8.31720       -0.40080
C         -7.08960       -8.33290       -0.60480
C         -5.80150       -5.56940       -0.43820
C         -5.39780       -4.25470       -0.31400
C         -1.28610       -2.38590        0.88120
S         -0.31330       -2.64940       -0.52080
C          1.14400       -2.38880        0.42600
C          0.88050       -2.06140        1.74770
N          1.81300       -1.67630        2.69340
C          2.97900       -0.99120        2.31780
C          2.94930       -0.03860        1.29830
C          4.12160        0.50140        0.81860
C          5.34920        0.12130        1.35700
S          6.79570        0.75790        0.57030
C          8.13470       -0.23600        1.28360
C          5.37200       -0.73730        2.44880
C          4.19850       -1.29280        2.91870
C          1.58850       -1.99990        4.03900
C          1.92320       -1.09490        5.04700
C          1.68680       -1.40960        6.36520
C          1.10540       -2.62940        6.71090
S          0.84330       -2.91090        8.43330
C         -0.00110       -4.51660        8.49250
C          0.77950       -3.53590        5.71230
C          1.02490       -3.22330        4.38900
C         -0.51710       -2.08100        1.99390
S         -1.50820       -1.72720        3.36730
C          2.41350       -2.40930       -0.24130
S          3.79090       -3.25010        0.45170
C          4.84850       -2.55580       -0.74660
C          6.21790       -2.65560       -0.77550
C          6.90540       -1.93540       -1.75780
C          8.29960       -1.80880       -1.93170
C          8.65000       -0.99220       -2.97740
S          7.23200       -0.36930       -3.82100
C          6.17180       -1.17790       -2.71290
C          4.79630       -1.10460       -2.69900
C          4.11740       -1.78740       -1.69350
C          2.73380       -1.75600       -1.39210
C          9.91250       -0.63820       -3.51310
C         11.14580       -0.67170       -2.93260
C         11.45910       -0.81370       -1.49040
O         10.71050       -1.10900       -0.58000
C         12.88140       -0.45570       -1.35180
C         13.61100       -0.39500       -0.16520
C         14.92510       -0.03270       -0.33410
C         15.47580        0.25270       -1.59160
C         14.76950        0.19510       -2.76890
C         13.42870       -0.17480       -2.61960
C         12.38660       -0.35550       -3.62400
C         12.57190       -0.32150       -4.98040
C         13.79960       -0.02730       -5.61080
N         14.76120        0.21300       -6.19010
C         11.58730       -0.61790       -5.94830
N         10.86000       -0.87390       -6.79920
C         16.83720        0.55280       -1.01650
C         17.22060        2.04260       -0.89050
C         18.34980        2.04100        0.11460
C         17.83010        1.76920        1.30490
C         16.34080        1.58290        1.12450
C         16.08550        2.58270       -0.01090
C         16.22440        0.23300        0.38480
H        -10.99670        3.97650        3.60150
H        -10.41980        2.36980       -2.34680
H        -12.51110        6.70320       -0.75620
H        -12.48970        6.58860       -4.19410
H        -10.68390        8.27920       -3.91000
H         -9.03680        7.33820       -2.11170
H         -8.01470        5.06210       -3.02470
H         -9.04560        4.59640       -5.38590
H        -10.56150        6.70310       -6.09050
H         -8.93320        7.23190       -5.59730
H        -11.50360        4.35670       -5.04130
H         -5.89470        1.57210        4.96680
H         -3.74540       -0.03370        4.27870
H         -8.57000       -1.54430        2.09950
H        -10.50880        0.36590        2.21560
H         -3.63500       -0.03520        0.90760
H         -4.80220        1.80290       -0.17860
H         -8.28070        2.07800       -3.87620
H         -8.16670        0.50120       -3.05370
H         -7.12680        0.86520       -4.46800
H         -6.03550       -0.82220       -3.31520
H         -4.87920       -2.65970       -2.23570
H         -2.12960       -4.76490        0.37420
H         -2.85460       -7.08890        0.16620
H         -7.37210       -9.38090       -0.62120
H         -7.36480       -7.86360       -1.54490
H         -7.56080       -7.83640        0.23850
H         -6.83770       -5.77180       -0.65660
H         -6.13080       -3.47000       -0.41790
H          2.00400        0.25400        0.86610
H          4.10270        1.20980        0.00470
H          9.00110       -0.08580        0.64690
H          7.85330       -1.28350        1.26440
H          8.35140        0.09770        2.29450
H          6.30060       -1.00390        2.92650
H          4.22940       -1.99830        3.73540
H          2.36330       -0.14460        4.78470
H          1.94010       -0.71030        7.14710
H         -0.21900       -4.69230        9.54140
H          0.65400       -5.29770        8.11770
H         -0.92660       -4.46910        7.92630
H          0.34220       -4.49280        5.94630
H          0.78540       -3.94210        3.61890
H          6.75500       -3.24440       -0.04850
H          9.01850       -2.30670       -1.30870
H          4.25790       -0.51710       -3.42530
H          2.01520       -1.19610       -1.96410
H          9.85830       -0.25700       -4.52670
H         13.14830       -0.62650        0.78150
H         15.20740        0.41800       -3.72730
H         17.65310       -0.06690       -1.38320
H         17.40650        2.54600       -1.83520
H         19.38320        2.17810       -0.14410
H         18.34280        1.63400        2.23910
H         15.72530        1.66860        2.01600
H         15.09770        2.50130       -0.46070
H         16.26010        3.61130        0.30000
H         16.63190       -0.60080        0.95350
