
  xtb     02152202373D
 energy: -411.385389392229 gnorm: 0.000365809115 xtb: 6.4.1 (unknown)
254278  0     0  0            999 V2000
    2.0305    4.2032    6.9883 C   0  0  0  0  0  0  0  0  0  0  0  0
    3.2383    3.7611    7.4894 C   0  0  0  0  0  0  0  0  0  0  0  0
    4.2239    3.0223    6.6917 C   0  0  0  0  0  0  0  0  0  0  0  0
    4.1215    2.6667    5.5282 O   0  0  0  0  0  0  0  0  0  0  0  0
    5.4287    2.9114    7.5366 C   0  0  0  0  0  0  0  0  0  0  0  0
    6.6297    2.2912    7.2086 C   0  0  0  0  0  0  0  0  0  0  0  0
    7.5717    2.3312    8.2094 C   0  0  0  0  0  0  0  0  0  0  0  0
    7.3385    2.9506    9.4427 C   0  0  0  0  0  0  0  0  0  0  0  0
    6.1558    3.5688    9.7777 C   0  0  0  0  0  0  0  0  0  0  0  0
    5.1849    3.5339    8.7761 C   0  0  0  0  0  0  0  0  0  0  0  0
    3.8171    4.0516    8.7696 C   0  0  0  0  0  0  0  0  0  0  0  0
    3.1480    4.5788    9.8477 C   0  0  0  0  0  0  0  0  0  0  0  0
    1.7861    4.9376    9.8275 C   0  0  0  0  0  0  0  0  0  0  0  0
    0.6745    5.2215    9.8911 N   0  0  0  0  0  0  0  0  0  0  0  0
    3.7086    4.7554   11.1252 C   0  0  0  0  0  0  0  0  0  0  0  0
    4.1020    4.9068   12.1945 N   0  0  0  0  0  0  0  0  0  0  0  0
    8.7182    2.6239    9.9583 C   0  0  0  0  0  0  0  0  0  0  0  0
    9.7722    3.7584    9.9728 C   0  0  0  0  0  0  0  0  0  0  0  0
    9.3762    4.7264    8.8860 C   0  0  0  0  0  0  0  0  0  0  0  0
    9.5963    4.1366    7.7186 C   0  0  0  0  0  0  0  0  0  0  0  0
   10.1450    2.7587    7.9953 C   0  0  0  0  0  0  0  0  0  0  0  0
   10.9400    3.0372    9.2808 C   0  0  0  0  0  0  0  0  0  0  0  0
    8.9769    1.9297    8.5839 C   0  0  0  0  0  0  0  0  0  0  0  0
    1.3558    3.6281    5.9111 C   0  0  0  0  0  0  0  0  0  0  0  0
    1.4020    2.3159    5.3872 C   0  0  0  0  0  0  0  0  0  0  0  0
    1.9035    1.2189    6.0094 N   0  0  0  0  0  0  0  0  0  0  0  0
    2.1634    1.1640    7.3899 C   0  0  0  0  0  0  0  0  0  0  0  0
    3.3408    0.5719    7.8382 C   0  0  0  0  0  0  0  0  0  0  0  0
    3.6278    0.5322    9.1903 C   0  0  0  0  0  0  0  0  0  0  0  0
    2.7501    1.0639   10.1248 C   0  0  0  0  0  0  0  0  0  0  0  0
    3.0723    1.0612   11.5856 C   0  0  0  0  0  0  0  0  0  0  0  0
    1.5522    1.6113    9.6688 C   0  0  0  0  0  0  0  0  0  0  0  0
    1.2577    1.6649    8.3231 C   0  0  0  0  0  0  0  0  0  0  0  0
    2.1610    0.0311    5.2817 C   0  0  0  0  0  0  0  0  0  0  0  0
    1.6247   -1.1715    5.7315 C   0  0  0  0  0  0  0  0  0  0  0  0
    1.8792   -2.3382    5.0398 C   0  0  0  0  0  0  0  0  0  0  0  0
    2.6738   -2.3338    3.8974 C   0  0  0  0  0  0  0  0  0  0  0  0
    2.9348   -3.6113    3.1624 C   0  0  0  0  0  0  0  0  0  0  0  0
    3.2267   -1.1312    3.4774 C   0  0  0  0  0  0  0  0  0  0  0  0
    2.9735    0.0457    4.1561 C   0  0  0  0  0  0  0  0  0  0  0  0
    0.7039    2.2604    4.1557 C   0  0  0  0  0  0  0  0  0  0  0  0
    0.4477    1.0321    2.9649 S   0  0  0  0  0  0  0  0  0  0  0  0
   -0.5214    2.1335    2.0045 C   0  0  0  0  0  0  0  0  0  0  0  0
   -0.6707    3.3654    2.5940 C   0  0  0  0  0  0  0  0  0  0  0  0
   -1.5434    4.3674    2.1255 N   0  0  0  0  0  0  0  0  0  0  0  0
   -1.0518    5.4851    1.4504 C   0  0  0  0  0  0  0  0  0  0  0  0
   -1.9104    6.2500    0.6613 C   0  0  0  0  0  0  0  0  0  0  0  0
   -1.4339    7.3443   -0.0287 C   0  0  0  0  0  0  0  0  0  0  0  0
   -0.0908    7.6989    0.0129 C   0  0  0  0  0  0  0  0  0  0  0  0
    0.4282    8.8636   -0.7728 C   0  0  0  0  0  0  0  0  0  0  0  0
    0.7589    6.9280    0.7934 C   0  0  0  0  0  0  0  0  0  0  0  0
    0.2904    5.8457    1.5135 C   0  0  0  0  0  0  0  0  0  0  0  0
   -2.8026    4.3923    2.7571 C   0  0  0  0  0  0  0  0  0  0  0  0
   -3.5103    3.2093    2.9486 C   0  0  0  0  0  0  0  0  0  0  0  0
   -4.7393    3.2245    3.5813 C   0  0  0  0  0  0  0  0  0  0  0  0
   -5.2969    4.4089    4.0406 C   0  0  0  0  0  0  0  0  0  0  0  0
   -6.6249    4.4314    4.7339 C   0  0  0  0  0  0  0  0  0  0  0  0
   -4.5773    5.5854    3.8585 C   0  0  0  0  0  0  0  0  0  0  0  0
   -3.3467    5.5830    3.2357 C   0  0  0  0  0  0  0  0  0  0  0  0
    0.0461    3.4334    3.8127 C   0  0  0  0  0  0  0  0  0  0  0  0
    0.2651    4.6743    4.9852 S   0  0  0  0  0  0  0  0  0  0  0  0
   -1.0332    1.6577    0.7439 C   0  0  0  0  0  0  0  0  0  0  0  0
   -0.6419    2.0530   -0.5159 C   0  0  0  0  0  0  0  0  0  0  0  0
    0.3952    2.9646   -0.7224 N   0  0  0  0  0  0  0  0  0  0  0  0
    1.6280    2.6123   -0.1435 C   0  0  0  0  0  0  0  0  0  0  0  0
    2.4715    3.5633    0.4214 C   0  0  0  0  0  0  0  0  0  0  0  0
    3.6486    3.1870    1.0401 C   0  0  0  0  0  0  0  0  0  0  0  0
    4.0195    1.8499    1.0849 C   0  0  0  0  0  0  0  0  0  0  0  0
    5.5200    1.2603    1.8067 S   0  0  0  0  0  0  0  0  0  0  0  0
    6.0707    2.6243    2.8684 C   0  0  0  0  0  0  0  0  0  0  0  0
    3.1947    0.8981    0.4905 C   0  0  0  0  0  0  0  0  0  0  0  0
    2.0127    1.2709   -0.1064 C   0  0  0  0  0  0  0  0  0  0  0  0
    0.2317    4.0275   -1.6003 C   0  0  0  0  0  0  0  0  0  0  0  0
   -1.0473    4.5135   -1.8633 C   0  0  0  0  0  0  0  0  0  0  0  0
   -1.2364    5.5841   -2.7124 C   0  0  0  0  0  0  0  0  0  0  0  0
   -0.1460    6.1953   -3.3122 C   0  0  0  0  0  0  0  0  0  0  0  0
   -0.2737    7.5798   -4.4119 S   0  0  0  0  0  0  0  0  0  0  0  0
   -1.8810    8.3081   -3.9813 C   0  0  0  0  0  0  0  0  0  0  0  0
    1.1315    5.6952   -3.0792 C   0  0  0  0  0  0  0  0  0  0  0  0
    1.3208    4.6206   -2.2407 C   0  0  0  0  0  0  0  0  0  0  0  0
   -1.2259    1.2329   -1.5168 C   0  0  0  0  0  0  0  0  0  0  0  0
   -1.0555    1.1044   -3.2354 S   0  0  0  0  0  0  0  0  0  0  0  0
   -1.8859   -0.4479   -3.2209 C   0  0  0  0  0  0  0  0  0  0  0  0
   -2.3161   -0.7935   -1.9583 C   0  0  0  0  0  0  0  0  0  0  0  0
   -2.9250   -2.0060   -1.6427 N   0  0  0  0  0  0  0  0  0  0  0  0
   -2.4496   -2.6530   -0.5020 C   0  0  0  0  0  0  0  0  0  0  0  0
   -1.0889   -2.5647   -0.1944 C   0  0  0  0  0  0  0  0  0  0  0  0
   -0.6110   -3.0316    1.0104 C   0  0  0  0  0  0  0  0  0  0  0  0
   -1.4813   -3.6329    1.9051 C   0  0  0  0  0  0  0  0  0  0  0  0
   -0.8914   -4.1325    3.5141 S   0  0  0  0  0  0  0  0  0  0  0  0
   -1.5037   -2.6906    4.4397 C   0  0  0  0  0  0  0  0  0  0  0  0
   -2.8156   -3.8098    1.5717 C   0  0  0  0  0  0  0  0  0  0  0  0
   -3.3039   -3.3145    0.3798 C   0  0  0  0  0  0  0  0  0  0  0  0
   -4.0564   -2.4309   -2.3481 C   0  0  0  0  0  0  0  0  0  0  0  0
   -4.9444   -1.5009   -2.8809 C   0  0  0  0  0  0  0  0  0  0  0  0
   -6.0910   -1.9123   -3.5319 C   0  0  0  0  0  0  0  0  0  0  0  0
   -6.3678   -3.2660   -3.6640 C   0  0  0  0  0  0  0  0  0  0  0  0
   -7.8232   -3.9068   -4.4277 S   0  0  0  0  0  0  0  0  0  0  0  0
   -8.7031   -2.4303   -5.0108 C   0  0  0  0  0  0  0  0  0  0  0  0
   -5.4598   -4.2010   -3.1688 C   0  0  0  0  0  0  0  0  0  0  0  0
   -4.3160   -3.7902   -2.5218 C   0  0  0  0  0  0  0  0  0  0  0  0
   -1.9706    0.1874   -0.9991 C   0  0  0  0  0  0  0  0  0  0  0  0
   -2.0817    0.2529    0.7226 S   0  0  0  0  0  0  0  0  0  0  0  0
   -1.8184   -1.4218   -4.2846 C   0  0  0  0  0  0  0  0  0  0  0  0
   -2.4422   -1.5404   -5.5078 C   0  0  0  0  0  0  0  0  0  0  0  0
   -3.3802   -0.6681   -6.0212 N   0  0  0  0  0  0  0  0  0  0  0  0
   -4.4705   -1.1709   -6.7471 C   0  0  0  0  0  0  0  0  0  0  0  0
   -4.9810   -2.4394   -6.4790 C   0  0  0  0  0  0  0  0  0  0  0  0
   -6.0376   -2.9367   -7.2160 C   0  0  0  0  0  0  0  0  0  0  0  0
   -6.6383   -2.1806   -8.2138 C   0  0  0  0  0  0  0  0  0  0  0  0
   -7.7876   -2.7227   -9.0075 C   0  0  0  0  0  0  0  0  0  0  0  0
   -6.1315   -0.9112   -8.4684 C   0  0  0  0  0  0  0  0  0  0  0  0
   -5.0572   -0.4131   -7.7589 C   0  0  0  0  0  0  0  0  0  0  0  0
   -3.1999    0.7191   -5.8882 C   0  0  0  0  0  0  0  0  0  0  0  0
   -1.9620    1.2955   -6.1575 C   0  0  0  0  0  0  0  0  0  0  0  0
   -1.8102    2.6671   -6.1031 C   0  0  0  0  0  0  0  0  0  0  0  0
   -2.8813    3.4930   -5.7854 C   0  0  0  0  0  0  0  0  0  0  0  0
   -2.7307    4.9810   -5.8171 C   0  0  0  0  0  0  0  0  0  0  0  0
   -4.1041    2.9058   -5.4823 C   0  0  0  0  0  0  0  0  0  0  0  0
   -4.2671    1.5357   -5.5284 C   0  0  0  0  0  0  0  0  0  0  0  0
   -2.0587   -2.7482   -6.1522 C   0  0  0  0  0  0  0  0  0  0  0  0
   -2.3834   -3.4140   -7.7037 S   0  0  0  0  0  0  0  0  0  0  0  0
   -1.4533   -4.8631   -7.3082 C   0  0  0  0  0  0  0  0  0  0  0  0
   -0.8385   -4.7666   -6.0446 C   0  0  0  0  0  0  0  0  0  0  0  0
    0.0534   -5.6458   -5.4829 N   0  0  0  0  0  0  0  0  0  0  0  0
    0.2560   -5.6253   -4.0772 C   0  0  0  0  0  0  0  0  0  0  0  0
   -0.8162   -5.7147   -3.1954 C   0  0  0  0  0  0  0  0  0  0  0  0
   -0.5889   -5.7744   -1.8330 C   0  0  0  0  0  0  0  0  0  0  0  0
    0.7004   -5.7513   -1.3179 C   0  0  0  0  0  0  0  0  0  0  0  0
    0.9576   -5.9030    0.1475 C   0  0  0  0  0  0  0  0  0  0  0  0
    1.7626   -5.6230   -2.2072 C   0  0  0  0  0  0  0  0  0  0  0  0
    1.5498   -5.5571   -3.5685 C   0  0  0  0  0  0  0  0  0  0  0  0
    0.9434   -6.4307   -6.2336 C   0  0  0  0  0  0  0  0  0  0  0  0
    1.3842   -7.6501   -5.7168 C   0  0  0  0  0  0  0  0  0  0  0  0
    2.2631   -8.4373   -6.4333 C   0  0  0  0  0  0  0  0  0  0  0  0
    2.7103   -8.0524   -7.6912 C   0  0  0  0  0  0  0  0  0  0  0  0
    3.6360   -8.9179   -8.4866 C   0  0  0  0  0  0  0  0  0  0  0  0
    2.2859   -6.8249   -8.1904 C   0  0  0  0  0  0  0  0  0  0  0  0
    1.4273   -6.0173   -7.4731 C   0  0  0  0  0  0  0  0  0  0  0  0
   -1.2103   -3.5559   -5.4129 C   0  0  0  0  0  0  0  0  0  0  0  0
   -0.7868   -2.8064   -3.9176 S   0  0  0  0  0  0  0  0  0  0  0  0
   -1.4467   -5.8586   -8.2971 C   0  0  0  0  0  0  0  0  0  0  0  0
   -1.1819   -7.1982   -8.1874 C   0  0  0  0  0  0  0  0  0  0  0  0
   -0.7028   -7.9575   -9.3730 C   0  0  0  0  0  0  0  0  0  0  0  0
   -0.6441   -7.5754  -10.5196 O   0  0  0  0  0  0  0  0  0  0  0  0
   -0.2627   -9.2342   -8.8053 C   0  0  0  0  0  0  0  0  0  0  0  0
    0.5090  -10.6432   -9.3921 S   0  0  0  0  0  0  0  0  0  0  0  0
    0.4490  -11.3204   -7.7918 C   0  0  0  0  0  0  0  0  0  0  0  0
    1.1868  -13.0122   -7.4708 Br  0  0  0  0  0  0  0  0  0  0  0  0
   -0.1423  -10.5138   -6.8592 C   0  0  0  0  0  0  0  0  0  0  0  0
   -0.5402   -9.3027   -7.4488 C   0  0  0  0  0  0  0  0  0  0  0  0
   -1.1923   -8.0687   -7.0428 C   0  0  0  0  0  0  0  0  0  0  0  0
   -1.8826   -7.8871   -5.8664 C   0  0  0  0  0  0  0  0  0  0  0  0
   -1.7807   -8.7987   -4.8002 C   0  0  0  0  0  0  0  0  0  0  0  0
   -1.6662   -9.5112   -3.9069 N   0  0  0  0  0  0  0  0  0  0  0  0
   -2.7901   -6.8379   -5.6506 C   0  0  0  0  0  0  0  0  0  0  0  0
   -3.5742   -6.0227   -5.4458 N   0  0  0  0  0  0  0  0  0  0  0  0
    1.5841    5.0958    7.4094 H   0  0  0  0  0  0  0  0  0  0  0  0
    6.7687    1.8203    6.2476 H   0  0  0  0  0  0  0  0  0  0  0  0
    5.9914    4.0464   10.7294 H   0  0  0  0  0  0  0  0  0  0  0  0
    8.7597    2.0096   10.8557 H   0  0  0  0  0  0  0  0  0  0  0  0
    9.9591    4.1881   10.9533 H   0  0  0  0  0  0  0  0  0  0  0  0
    8.9359    5.6885    9.0722 H   0  0  0  0  0  0  0  0  0  0  0  0
    9.3762    4.5079    6.7347 H   0  0  0  0  0  0  0  0  0  0  0  0
   10.6723    2.2781    7.1751 H   0  0  0  0  0  0  0  0  0  0  0  0
   11.7975    3.6874    9.1137 H   0  0  0  0  0  0  0  0  0  0  0  0
   11.2592    2.1332    9.7978 H   0  0  0  0  0  0  0  0  0  0  0  0
    9.1857    0.8613    8.5846 H   0  0  0  0  0  0  0  0  0  0  0  0
    4.0316    0.1547    7.1209 H   0  0  0  0  0  0  0  0  0  0  0  0
    4.5564    0.0891    9.5196 H   0  0  0  0  0  0  0  0  0  0  0  0
    3.9412    0.4418   11.7919 H   0  0  0  0  0  0  0  0  0  0  0  0
    3.2858    2.0746   11.9269 H   0  0  0  0  0  0  0  0  0  0  0  0
    2.2277    0.6913   12.1639 H   0  0  0  0  0  0  0  0  0  0  0  0
    0.8435    2.0073   10.3812 H   0  0  0  0  0  0  0  0  0  0  0  0
    0.3252    2.0970    7.9921 H   0  0  0  0  0  0  0  0  0  0  0  0
    1.0079   -1.1801    6.6189 H   0  0  0  0  0  0  0  0  0  0  0  0
    1.4534   -3.2694    5.3823 H   0  0  0  0  0  0  0  0  0  0  0  0
    3.3263   -3.4146    2.1670 H   0  0  0  0  0  0  0  0  0  0  0  0
    2.0200   -4.1964    3.0844 H   0  0  0  0  0  0  0  0  0  0  0  0
    3.6665   -4.2115    3.7031 H   0  0  0  0  0  0  0  0  0  0  0  0
    3.8796   -1.1097    2.6182 H   0  0  0  0  0  0  0  0  0  0  0  0
    3.4199    0.9754    3.8428 H   0  0  0  0  0  0  0  0  0  0  0  0
   -2.9547    5.9820    0.5991 H   0  0  0  0  0  0  0  0  0  0  0  0
   -2.1251    7.9366   -0.6124 H   0  0  0  0  0  0  0  0  0  0  0  0
   -0.3346    9.6317   -0.8823 H   0  0  0  0  0  0  0  0  0  0  0  0
    1.2986    9.3008   -0.2892 H   0  0  0  0  0  0  0  0  0  0  0  0
    0.7280    8.5380   -1.7698 H   0  0  0  0  0  0  0  0  0  0  0  0
    1.8058    7.1917    0.8553 H   0  0  0  0  0  0  0  0  0  0  0  0
    0.9647    5.2847    2.1424 H   0  0  0  0  0  0  0  0  0  0  0  0
   -3.1014    2.2726    2.6003 H   0  0  0  0  0  0  0  0  0  0  0  0
   -5.2726    2.2940    3.7151 H   0  0  0  0  0  0  0  0  0  0  0  0
   -7.2735    5.1884    4.2960 H   0  0  0  0  0  0  0  0  0  0  0  0
   -6.4950    4.6755    5.7882 H   0  0  0  0  0  0  0  0  0  0  0  0
   -7.1173    3.4648    4.6632 H   0  0  0  0  0  0  0  0  0  0  0  0
   -4.9829    6.5178    4.2240 H   0  0  0  0  0  0  0  0  0  0  0  0
   -2.7947    6.5044    3.1249 H   0  0  0  0  0  0  0  0  0  0  0  0
    2.1999    4.6051    0.3726 H   0  0  0  0  0  0  0  0  0  0  0  0
    4.2693    3.9487    1.4845 H   0  0  0  0  0  0  0  0  0  0  0  0
    6.9641    2.2575    3.3649 H   0  0  0  0  0  0  0  0  0  0  0  0
    5.3048    2.8497    3.6059 H   0  0  0  0  0  0  0  0  0  0  0  0
    6.3219    3.4941    2.2684 H   0  0  0  0  0  0  0  0  0  0  0  0
    3.4934   -0.1382    0.4935 H   0  0  0  0  0  0  0  0  0  0  0  0
    1.3838    0.5177   -0.5574 H   0  0  0  0  0  0  0  0  0  0  0  0
   -1.9007    4.0552   -1.3865 H   0  0  0  0  0  0  0  0  0  0  0  0
   -2.2390    5.9378   -2.8882 H   0  0  0  0  0  0  0  0  0  0  0  0
   -2.6905    7.7083   -4.3861 H   0  0  0  0  0  0  0  0  0  0  0  0
   -1.8913    9.2929   -4.4377 H   0  0  0  0  0  0  0  0  0  0  0  0
   -1.9551    8.3944   -2.9024 H   0  0  0  0  0  0  0  0  0  0  0  0
    1.9751    6.1575   -3.5691 H   0  0  0  0  0  0  0  0  0  0  0  0
    2.3151    4.2325   -2.0831 H   0  0  0  0  0  0  0  0  0  0  0  0
   -0.4131   -2.1047   -0.9000 H   0  0  0  0  0  0  0  0  0  0  0  0
    0.4302   -2.9175    1.2683 H   0  0  0  0  0  0  0  0  0  0  0  0
   -1.2843   -2.8693    5.4866 H   0  0  0  0  0  0  0  0  0  0  0  0
   -2.5754   -2.5983    4.2897 H   0  0  0  0  0  0  0  0  0  0  0  0
   -0.9877   -1.7994    4.0922 H   0  0  0  0  0  0  0  0  0  0  0  0
   -3.4783   -4.3085    2.2631 H   0  0  0  0  0  0  0  0  0  0  0  0
   -4.3526   -3.4092    0.1420 H   0  0  0  0  0  0  0  0  0  0  0  0
   -4.7433   -0.4450   -2.7705 H   0  0  0  0  0  0  0  0  0  0  0  0
   -6.7629   -1.1655   -3.9229 H   0  0  0  0  0  0  0  0  0  0  0  0
   -9.5920   -2.8005   -5.5122 H   0  0  0  0  0  0  0  0  0  0  0  0
   -8.9907   -1.8097   -4.1670 H   0  0  0  0  0  0  0  0  0  0  0  0
   -8.0811   -1.8859   -5.7161 H   0  0  0  0  0  0  0  0  0  0  0  0
   -5.6587   -5.2521   -3.3071 H   0  0  0  0  0  0  0  0  0  0  0  0
   -3.6150   -4.5180   -2.1425 H   0  0  0  0  0  0  0  0  0  0  0  0
   -4.5557   -3.0433   -5.6927 H   0  0  0  0  0  0  0  0  0  0  0  0
   -6.4044   -3.9284   -6.9978 H   0  0  0  0  0  0  0  0  0  0  0  0
   -8.2679   -3.5437   -8.4807 H   0  0  0  0  0  0  0  0  0  0  0  0
   -7.4338   -3.0974   -9.9683 H   0  0  0  0  0  0  0  0  0  0  0  0
   -8.5249   -1.9464   -9.2039 H   0  0  0  0  0  0  0  0  0  0  0  0
   -6.5767   -0.3060   -9.2453 H   0  0  0  0  0  0  0  0  0  0  0  0
   -4.6660    0.5664   -7.9903 H   0  0  0  0  0  0  0  0  0  0  0  0
   -1.1280    0.6634   -6.4264 H   0  0  0  0  0  0  0  0  0  0  0  0
   -0.8483    3.1055   -6.3244 H   0  0  0  0  0  0  0  0  0  0  0  0
   -3.4843    5.4569   -5.1936 H   0  0  0  0  0  0  0  0  0  0  0  0
   -2.8595    5.3445   -6.8376 H   0  0  0  0  0  0  0  0  0  0  0  0
   -1.7398    5.2752   -5.4815 H   0  0  0  0  0  0  0  0  0  0  0  0
   -4.9441    3.5304   -5.2131 H   0  0  0  0  0  0  0  0  0  0  0  0
   -5.2242    1.0875   -5.3049 H   0  0  0  0  0  0  0  0  0  0  0  0
   -1.8249   -5.7504   -3.5772 H   0  0  0  0  0  0  0  0  0  0  0  0
   -1.4282   -5.8592   -1.1585 H   0  0  0  0  0  0  0  0  0  0  0  0
    1.7452   -5.2280    0.4741 H   0  0  0  0  0  0  0  0  0  0  0  0
    1.2856   -6.9213    0.3577 H   0  0  0  0  0  0  0  0  0  0  0  0
    0.0605   -5.7090    0.7284 H   0  0  0  0  0  0  0  0  0  0  0  0
    2.7729   -5.5813   -1.8271 H   0  0  0  0  0  0  0  0  0  0  0  0
    2.3853   -5.4634   -4.2469 H   0  0  0  0  0  0  0  0  0  0  0  0
    1.0286   -7.9819   -4.7522 H   0  0  0  0  0  0  0  0  0  0  0  0
    2.5923   -9.3758   -6.0117 H   0  0  0  0  0  0  0  0  0  0  0  0
    3.6807   -9.9238   -8.0761 H   0  0  0  0  0  0  0  0  0  0  0  0
    3.3132   -8.9712   -9.5248 H   0  0  0  0  0  0  0  0  0  0  0  0
    4.6428   -8.5002   -8.4741 H   0  0  0  0  0  0  0  0  0  0  0  0
    2.6360   -6.4945   -9.1570 H   0  0  0  0  0  0  0  0  0  0  0  0
    1.1355   -5.0585   -7.8733 H   0  0  0  0  0  0  0  0  0  0  0  0
   -1.6318   -5.5102   -9.3087 H   0  0  0  0  0  0  0  0  0  0  0  0
   -0.2626  -10.7804   -5.8253 H   0  0  0  0  0  0  0  0  0  0  0  0
  1  2  2  0  0  0  0
  2  3  1  0  0  0  0
  3  4  2  0  0  0  0
  3  5  1  0  0  0  0
  5  6  2  0  0  0  0
  6  7  1  0  0  0  0
  7  8  2  0  0  0  0
  8  9  1  0  0  0  0
  9 10  2  0  0  0  0
 10 11  1  0  0  0  0
 11 12  2  0  0  0  0
 12 13  1  0  0  0  0
 13 14  3  0  0  0  0
 12 15  1  0  0  0  0
 15 16  3  0  0  0  0
  8 17  1  0  0  0  0
 17 18  1  0  0  0  0
 18 19  1  0  0  0  0
 19 20  2  0  0  0  0
 20 21  1  0  0  0  0
 21 22  1  0  0  0  0
 21 23  1  0  0  0  0
  1 24  1  0  0  0  0
 24 25  2  0  0  0  0
 25 26  1  0  0  0  0
 26 27  1  0  0  0  0
 27 28  2  0  0  0  0
 28 29  1  0  0  0  0
 29 30  2  0  0  0  0
 30 31  1  0  0  0  0
 30 32  1  0  0  0  0
 32 33  2  0  0  0  0
 26 34  1  0  0  0  0
 34 35  2  0  0  0  0
 35 36  1  0  0  0  0
 36 37  2  0  0  0  0
 37 38  1  0  0  0  0
 37 39  1  0  0  0  0
 39 40  2  0  0  0  0
 25 41  1  0  0  0  0
 41 42  1  0  0  0  0
 42 43  1  0  0  0  0
 43 44  2  0  0  0  0
 44 45  1  0  0  0  0
 45 46  1  0  0  0  0
 46 47  2  0  0  0  0
 47 48  1  0  0  0  0
 48 49  2  0  0  0  0
 49 50  1  0  0  0  0
 49 51  1  0  0  0  0
 51 52  2  0  0  0  0
 45 53  1  0  0  0  0
 53 54  2  0  0  0  0
 54 55  1  0  0  0  0
 55 56  2  0  0  0  0
 56 57  1  0  0  0  0
 56 58  1  0  0  0  0
 58 59  2  0  0  0  0
 44 60  1  0  0  0  0
 60 61  1  0  0  0  0
 43 62  1  0  0  0  0
 62 63  2  0  0  0  0
 63 64  1  0  0  0  0
 64 65  1  0  0  0  0
 65 66  2  0  0  0  0
 66 67  1  0  0  0  0
 67 68  2  0  0  0  0
 68 69  1  0  0  0  0
 69 70  1  0  0  0  0
 68 71  1  0  0  0  0
 71 72  2  0  0  0  0
 64 73  1  0  0  0  0
 73 74  2  0  0  0  0
 74 75  1  0  0  0  0
 75 76  2  0  0  0  0
 76 77  1  0  0  0  0
 77 78  1  0  0  0  0
 76 79  1  0  0  0  0
 79 80  2  0  0  0  0
 63 81  1  0  0  0  0
 81 82  1  0  0  0  0
 82 83  1  0  0  0  0
 83 84  2  0  0  0  0
 84 85  1  0  0  0  0
 85 86  1  0  0  0  0
 86 87  2  0  0  0  0
 87 88  1  0  0  0  0
 88 89  2  0  0  0  0
 89 90  1  0  0  0  0
 90 91  1  0  0  0  0
 89 92  1  0  0  0  0
 92 93  2  0  0  0  0
 85 94  1  0  0  0  0
 94 95  2  0  0  0  0
 95 96  1  0  0  0  0
 96 97  2  0  0  0  0
 97 98  1  0  0  0  0
 98 99  1  0  0  0  0
 97100  1  0  0  0  0
100101  2  0  0  0  0
 84102  1  0  0  0  0
102103  1  0  0  0  0
 83104  1  0  0  0  0
104105  2  0  0  0  0
105106  1  0  0  0  0
106107  1  0  0  0  0
107108  2  0  0  0  0
108109  1  0  0  0  0
109110  2  0  0  0  0
110111  1  0  0  0  0
110112  1  0  0  0  0
112113  2  0  0  0  0
106114  1  0  0  0  0
114115  2  0  0  0  0
115116  1  0  0  0  0
116117  2  0  0  0  0
117118  1  0  0  0  0
117119  1  0  0  0  0
119120  2  0  0  0  0
105121  1  0  0  0  0
121122  1  0  0  0  0
122123  1  0  0  0  0
123124  2  0  0  0  0
124125  1  0  0  0  0
125126  1  0  0  0  0
126127  2  0  0  0  0
127128  1  0  0  0  0
128129  2  0  0  0  0
129130  1  0  0  0  0
129131  1  0  0  0  0
131132  2  0  0  0  0
125133  1  0  0  0  0
133134  2  0  0  0  0
134135  1  0  0  0  0
135136  2  0  0  0  0
136137  1  0  0  0  0
136138  1  0  0  0  0
138139  2  0  0  0  0
124140  1  0  0  0  0
140141  1  0  0  0  0
123142  1  0  0  0  0
142143  2  0  0  0  0
143144  1  0  0  0  0
144145  2  0  0  0  0
144146  1  0  0  0  0
146147  1  0  0  0  0
147148  1  0  0  0  0
148149  1  0  0  0  0
148150  2  0  0  0  0
150151  1  0  0  0  0
151152  1  0  0  0  0
152153  2  0  0  0  0
153154  1  0  0  0  0
154155  3  0  0  0  0
153156  1  0  0  0  0
156157  3  0  0  0  0
 11  2  1  0  0  0  0
 23 17  1  0  0  0  0
 61 24  1  0  0  0  0
103 62  1  0  0  0  0
141104  1  0  0  0  0
152143  1  0  0  0  0
 10  5  1  0  0  0  0
 22 18  1  0  0  0  0
 33 27  1  0  0  0  0
 40 34  1  0  0  0  0
 60 41  2  0  0  0  0
 72 65  1  0  0  0  0
 80 73  1  0  0  0  0
102 81  2  0  0  0  0
113107  1  0  0  0  0
120114  1  0  0  0  0
140121  2  0  0  0  0
151146  2  0  0  0  0
 23  7  1  0  0  0  0
 52 46  1  0  0  0  0
 59 53  1  0  0  0  0
 93 86  1  0  0  0  0
101 94  1  0  0  0  0
132126  1  0  0  0  0
139133  1  0  0  0  0
  1158  1  0  0  0  0
  6159  1  0  0  0  0
  9160  1  0  0  0  0
 17161  1  0  0  0  0
 18162  1  0  0  0  0
 19163  1  0  0  0  0
 20164  1  0  0  0  0
 21165  1  0  0  0  0
 22166  1  0  0  0  0
 22167  1  0  0  0  0
 23168  1  0  0  0  0
 28169  1  0  0  0  0
 29170  1  0  0  0  0
 31171  1  0  0  0  0
 31172  1  0  0  0  0
 31173  1  0  0  0  0
 32174  1  0  0  0  0
 33175  1  0  0  0  0
 35176  1  0  0  0  0
 36177  1  0  0  0  0
 38178  1  0  0  0  0
 38179  1  0  0  0  0
 38180  1  0  0  0  0
 39181  1  0  0  0  0
 40182  1  0  0  0  0
 47183  1  0  0  0  0
 48184  1  0  0  0  0
 50185  1  0  0  0  0
 50186  1  0  0  0  0
 50187  1  0  0  0  0
 51188  1  0  0  0  0
 52189  1  0  0  0  0
 54190  1  0  0  0  0
 55191  1  0  0  0  0
 57192  1  0  0  0  0
 57193  1  0  0  0  0
 57194  1  0  0  0  0
 58195  1  0  0  0  0
 59196  1  0  0  0  0
 66197  1  0  0  0  0
 67198  1  0  0  0  0
 70199  1  0  0  0  0
 70200  1  0  0  0  0
 70201  1  0  0  0  0
 71202  1  0  0  0  0
 72203  1  0  0  0  0
 74204  1  0  0  0  0
 75205  1  0  0  0  0
 78206  1  0  0  0  0
 78207  1  0  0  0  0
 78208  1  0  0  0  0
 79209  1  0  0  0  0
 80210  1  0  0  0  0
 87211  1  0  0  0  0
 88212  1  0  0  0  0
 91213  1  0  0  0  0
 91214  1  0  0  0  0
 91215  1  0  0  0  0
 92216  1  0  0  0  0
 93217  1  0  0  0  0
 95218  1  0  0  0  0
 96219  1  0  0  0  0
 99220  1  0  0  0  0
 99221  1  0  0  0  0
 99222  1  0  0  0  0
100223  1  0  0  0  0
101224  1  0  0  0  0
108225  1  0  0  0  0
109226  1  0  0  0  0
111227  1  0  0  0  0
111228  1  0  0  0  0
111229  1  0  0  0  0
112230  1  0  0  0  0
113231  1  0  0  0  0
115232  1  0  0  0  0
116233  1  0  0  0  0
118234  1  0  0  0  0
118235  1  0  0  0  0
118236  1  0  0  0  0
119237  1  0  0  0  0
120238  1  0  0  0  0
127239  1  0  0  0  0
128240  1  0  0  0  0
130241  1  0  0  0  0
130242  1  0  0  0  0
130243  1  0  0  0  0
131244  1  0  0  0  0
132245  1  0  0  0  0
134246  1  0  0  0  0
135247  1  0  0  0  0
137248  1  0  0  0  0
137249  1  0  0  0  0
137250  1  0  0  0  0
138251  1  0  0  0  0
139252  1  0  0  0  0
142253  1  0  0  0  0
150254  1  0  0  0  0
M  END
