
  xtb     02152206093D
 energy: -376.925054611825 gnorm: 0.000463037477 xtb: 6.4.1 (unknown)
235258  0     0  0            999 V2000
   -3.5755   -5.2248    4.8619 C   0  0  0  0  0  0  0  0  0  0  0  0
   -4.4832   -6.2167    4.5625 C   0  0  0  0  0  0  0  0  0  0  0  0
   -5.5708   -6.1288    3.5871 C   0  0  0  0  0  0  0  0  0  0  0  0
   -5.8190   -5.2120    2.8212 O   0  0  0  0  0  0  0  0  0  0  0  0
   -6.3492   -7.3746    3.7236 C   0  0  0  0  0  0  0  0  0  0  0  0
   -7.4749   -7.7454    2.9926 C   0  0  0  0  0  0  0  0  0  0  0  0
   -7.9790   -8.9789    3.3303 C   0  0  0  0  0  0  0  0  0  0  0  0
   -7.4042   -9.7841    4.3211 C   0  0  0  0  0  0  0  0  0  0  0  0
   -6.2919   -9.4301    5.0481 C   0  0  0  0  0  0  0  0  0  0  0  0
   -5.7648   -8.1775    4.7225 C   0  0  0  0  0  0  0  0  0  0  0  0
   -4.5879   -7.4822    5.2463 C   0  0  0  0  0  0  0  0  0  0  0  0
   -3.7292   -7.9860    6.1952 C   0  0  0  0  0  0  0  0  0  0  0  0
   -2.5175   -7.3962    6.6017 C   0  0  0  0  0  0  0  0  0  0  0  0
   -1.4959   -7.0152    6.9681 N   0  0  0  0  0  0  0  0  0  0  0  0
   -3.9239   -9.1980    6.8856 C   0  0  0  0  0  0  0  0  0  0  0  0
   -4.0211  -10.1610    7.5053 N   0  0  0  0  0  0  0  0  0  0  0  0
   -8.4208  -10.8831    4.1316 C   0  0  0  0  0  0  0  0  0  0  0  0
   -9.5413  -10.9790    5.1881 C   0  0  0  0  0  0  0  0  0  0  0  0
  -10.6162  -11.7911    4.5026 C   0  0  0  0  0  0  0  0  0  0  0  0
  -11.1616  -11.0280    3.5640 C   0  0  0  0  0  0  0  0  0  0  0  0
  -10.4643   -9.6873    3.5994 C   0  0  0  0  0  0  0  0  0  0  0  0
  -10.1699   -9.5822    5.1014 C   0  0  0  0  0  0  0  0  0  0  0  0
   -9.0625   -9.9844    3.0263 C   0  0  0  0  0  0  0  0  0  0  0  0
   -3.3430   -3.9982    4.2445 C   0  0  0  0  0  0  0  0  0  0  0  0
   -2.3535   -3.0852    4.6925 C   0  0  0  0  0  0  0  0  0  0  0  0
   -1.6492   -3.1825    5.8657 N   0  0  0  0  0  0  0  0  0  0  0  0
   -0.2932   -2.8061    5.8678 C   0  0  0  0  0  0  0  0  0  0  0  0
    0.2510   -2.0938    6.9318 C   0  0  0  0  0  0  0  0  0  0  0  0
    1.5942   -1.7716    6.9324 C   0  0  0  0  0  0  0  0  0  0  0  0
    2.4222   -2.1387    5.8786 C   0  0  0  0  0  0  0  0  0  0  0  0
    3.8885   -1.8331    5.8984 C   0  0  0  0  0  0  0  0  0  0  0  0
    1.8640   -2.8335    4.8117 C   0  0  0  0  0  0  0  0  0  0  0  0
    0.5264   -3.1698    4.8024 C   0  0  0  0  0  0  0  0  0  0  0  0
   -2.2520   -3.6103    7.0609 C   0  0  0  0  0  0  0  0  0  0  0  0
   -3.5813   -3.2925    7.3314 C   0  0  0  0  0  0  0  0  0  0  0  0
   -4.1757   -3.7339    8.4965 C   0  0  0  0  0  0  0  0  0  0  0  0
   -3.4642   -4.4824    9.4265 C   0  0  0  0  0  0  0  0  0  0  0  0
   -4.1098   -4.9832   10.6818 C   0  0  0  0  0  0  0  0  0  0  0  0
   -2.1296   -4.7674    9.1616 C   0  0  0  0  0  0  0  0  0  0  0  0
   -1.5249   -4.3450    7.9951 C   0  0  0  0  0  0  0  0  0  0  0  0
   -2.1687   -2.0531    3.7604 C   0  0  0  0  0  0  0  0  0  0  0  0
   -1.1404   -0.6633    3.6746 S   0  0  0  0  0  0  0  0  0  0  0  0
   -1.8455   -0.1983    2.1277 C   0  0  0  0  0  0  0  0  0  0  0  0
   -2.8270   -1.0899    1.7122 C   0  0  0  0  0  0  0  0  0  0  0  0
   -3.6357   -0.9913    0.5848 N   0  0  0  0  0  0  0  0  0  0  0  0
   -5.0015   -1.2729    0.7471 C   0  0  0  0  0  0  0  0  0  0  0  0
   -5.6985   -2.0112   -0.2045 C   0  0  0  0  0  0  0  0  0  0  0  0
   -7.0308   -2.3132   -0.0075 C   0  0  0  0  0  0  0  0  0  0  0  0
   -7.7011   -1.8996    1.1363 C   0  0  0  0  0  0  0  0  0  0  0  0
   -9.1301   -2.2795    1.3750 C   0  0  0  0  0  0  0  0  0  0  0  0
   -7.0027   -1.1485    2.0736 C   0  0  0  0  0  0  0  0  0  0  0  0
   -5.6738   -0.8304    1.8842 C   0  0  0  0  0  0  0  0  0  0  0  0
   -3.0978   -0.8489   -0.6973 C   0  0  0  0  0  0  0  0  0  0  0  0
   -3.7437   -0.0466   -1.6391 C   0  0  0  0  0  0  0  0  0  0  0  0
   -3.1654    0.1757   -2.8690 C   0  0  0  0  0  0  0  0  0  0  0  0
   -1.9481   -0.4091   -3.2092 C   0  0  0  0  0  0  0  0  0  0  0  0
   -1.2985   -0.0874   -4.5208 C   0  0  0  0  0  0  0  0  0  0  0  0
   -1.3508   -1.2640   -2.2954 C   0  0  0  0  0  0  0  0  0  0  0  0
   -1.9093   -1.4839   -1.0491 C   0  0  0  0  0  0  0  0  0  0  0  0
   -3.0068   -2.1311    2.6570 C   0  0  0  0  0  0  0  0  0  0  0  0
   -4.0905   -3.4729    2.7339 S   0  0  0  0  0  0  0  0  0  0  0  0
   -1.2710    0.9638    1.5281 C   0  0  0  0  0  0  0  0  0  0  0  0
   -0.6395    1.9897    2.1914 C   0  0  0  0  0  0  0  0  0  0  0  0
    0.0226    2.9130    1.3543 C   0  0  0  0  0  0  0  0  0  0  0  0
    0.6885    4.1288    1.8358 C   0  0  0  0  0  0  0  0  0  0  0  0
    1.4484    4.1188    3.0181 C   0  0  0  0  0  0  0  0  0  0  0  0
    1.5964    2.9136    3.6300 O   0  0  0  0  0  0  0  0  0  0  0  0
    2.3305    2.8308    4.8352 C   0  0  0  0  0  0  0  0  0  0  0  0
    2.2876    1.3830    5.2992 C   0  0  0  0  0  0  0  0  0  0  0  0
    2.0177    5.2925    3.4957 C   0  0  0  0  0  0  0  0  0  0  0  0
    1.8142    6.4781    2.8192 C   0  0  0  0  0  0  0  0  0  0  0  0
    1.0665    6.5148    1.6595 C   0  0  0  0  0  0  0  0  0  0  0  0
    0.5148    5.3450    1.1500 C   0  0  0  0  0  0  0  0  0  0  0  0
   -0.2408    5.2872    0.0187 O   0  0  0  0  0  0  0  0  0  0  0  0
   -0.4520    6.4477   -0.7611 C   0  0  0  0  0  0  0  0  0  0  0  0
    0.7682    6.8449   -1.5874 C   0  0  0  0  0  0  0  0  0  0  0  0
   -0.1122    2.5634    0.0258 C   0  0  0  0  0  0  0  0  0  0  0  0
   -1.1137    1.1648   -0.1875 S   0  0  0  0  0  0  0  0  0  0  0  0
    0.6162    2.9798   -1.1396 C   0  0  0  0  0  0  0  0  0  0  0  0
    1.9867    2.8868   -1.2757 C   0  0  0  0  0  0  0  0  0  0  0  0
    2.7939    2.3612   -0.2488 N   0  0  0  0  0  0  0  0  0  0  0  0
    2.4451    1.0480    0.1209 C   0  0  0  0  0  0  0  0  0  0  0  0
    2.2467    0.1042   -0.8847 C   0  0  0  0  0  0  0  0  0  0  0  0
    1.8004   -1.1683   -0.5872 C   0  0  0  0  0  0  0  0  0  0  0  0
    1.5414   -1.5220    0.7283 C   0  0  0  0  0  0  0  0  0  0  0  0
    0.8675   -3.0838    1.2147 S   0  0  0  0  0  0  0  0  0  0  0  0
    1.0699   -4.1259   -0.2596 C   0  0  0  0  0  0  0  0  0  0  0  0
    1.7734   -0.5971    1.7420 C   0  0  0  0  0  0  0  0  0  0  0  0
    2.2175    0.6723    1.4436 C   0  0  0  0  0  0  0  0  0  0  0  0
    3.6060    3.1907    0.5058 C   0  0  0  0  0  0  0  0  0  0  0  0
    4.4988    2.6785    1.4463 C   0  0  0  0  0  0  0  0  0  0  0  0
    5.2659    3.5213    2.2261 C   0  0  0  0  0  0  0  0  0  0  0  0
    5.1881    4.8954    2.0559 C   0  0  0  0  0  0  0  0  0  0  0  0
    6.0725    6.0626    3.0519 S   0  0  0  0  0  0  0  0  0  0  0  0
    7.4290    5.0735    3.7494 C   0  0  0  0  0  0  0  0  0  0  0  0
    4.3512    5.4112    1.0722 C   0  0  0  0  0  0  0  0  0  0  0  0
    3.5705    4.5734    0.3101 C   0  0  0  0  0  0  0  0  0  0  0  0
    2.4036    3.1680   -2.5949 C   0  0  0  0  0  0  0  0  0  0  0  0
    3.9128    3.0325   -3.4237 S   0  0  0  0  0  0  0  0  0  0  0  0
    3.1089    3.3736   -4.9606 C   0  0  0  0  0  0  0  0  0  0  0  0
    1.7084    3.5139   -4.8060 C   0  0  0  0  0  0  0  0  0  0  0  0
    0.7970    3.6364   -5.8272 N   0  0  0  0  0  0  0  0  0  0  0  0
    0.9686    2.9970   -7.0670 C   0  0  0  0  0  0  0  0  0  0  0  0
    1.5552    1.7317   -7.1420 C   0  0  0  0  0  0  0  0  0  0  0  0
    1.8243    1.1684   -8.3676 C   0  0  0  0  0  0  0  0  0  0  0  0
    1.4894    1.8408   -9.5431 C   0  0  0  0  0  0  0  0  0  0  0  0
    1.9600    1.0798  -11.0639 S   0  0  0  0  0  0  0  0  0  0  0  0
    1.9389    2.4619  -12.2401 C   0  0  0  0  0  0  0  0  0  0  0  0
    0.8152    3.0516   -9.4682 C   0  0  0  0  0  0  0  0  0  0  0  0
    0.5657    3.6301   -8.2387 C   0  0  0  0  0  0  0  0  0  0  0  0
   -0.4010    4.3271   -5.5753 C   0  0  0  0  0  0  0  0  0  0  0  0
   -0.3715    5.5546   -4.9138 C   0  0  0  0  0  0  0  0  0  0  0  0
   -1.5432    6.2223   -4.6429 C   0  0  0  0  0  0  0  0  0  0  0  0
   -2.7693    5.6845   -5.0319 C   0  0  0  0  0  0  0  0  0  0  0  0
   -4.1995    6.6285   -4.6175 S   0  0  0  0  0  0  0  0  0  0  0  0
   -5.5828    5.6272   -5.2319 C   0  0  0  0  0  0  0  0  0  0  0  0
   -2.7994    4.4734   -5.7115 C   0  0  0  0  0  0  0  0  0  0  0  0
   -1.6232    3.8014   -5.9801 C   0  0  0  0  0  0  0  0  0  0  0  0
    1.3379    3.4199   -3.4558 C   0  0  0  0  0  0  0  0  0  0  0  0
   -0.1957    3.3545   -2.6362 S   0  0  0  0  0  0  0  0  0  0  0  0
    3.7512    3.5007   -6.1937 C   0  0  0  0  0  0  0  0  0  0  0  0
    5.0139    3.1281   -6.5867 C   0  0  0  0  0  0  0  0  0  0  0  0
    6.0231    2.4725   -5.7498 C   0  0  0  0  0  0  0  0  0  0  0  0
    6.0147    2.3470   -4.5375 O   0  0  0  0  0  0  0  0  0  0  0  0
    7.0612    1.9770   -6.6732 C   0  0  0  0  0  0  0  0  0  0  0  0
    8.1944    1.2371   -6.3478 C   0  0  0  0  0  0  0  0  0  0  0  0
    8.9676    0.8923   -7.4311 C   0  0  0  0  0  0  0  0  0  0  0  0
    8.6385    1.2578   -8.7424 C   0  0  0  0  0  0  0  0  0  0  0  0
    7.5245    1.9915   -9.0768 C   0  0  0  0  0  0  0  0  0  0  0  0
    6.7245    2.3511   -7.9899 C   0  0  0  0  0  0  0  0  0  0  0  0
    5.4807    3.1184   -7.9521 C   0  0  0  0  0  0  0  0  0  0  0  0
    4.8757    3.7057   -9.0372 C   0  0  0  0  0  0  0  0  0  0  0  0
    3.7559    4.5561   -8.9875 C   0  0  0  0  0  0  0  0  0  0  0  0
    2.8640    5.2799   -9.0524 N   0  0  0  0  0  0  0  0  0  0  0  0
    5.2981    3.5634  -10.3731 C   0  0  0  0  0  0  0  0  0  0  0  0
    5.5452    3.4820  -11.4924 N   0  0  0  0  0  0  0  0  0  0  0  0
    9.8520    0.5758   -9.3227 C   0  0  0  0  0  0  0  0  0  0  0  0
   11.0491    1.4634   -9.7430 C   0  0  0  0  0  0  0  0  0  0  0  0
   10.9835    2.7048   -8.8885 C   0  0  0  0  0  0  0  0  0  0  0  0
   11.2964    2.3588   -7.6469 C   0  0  0  0  0  0  0  0  0  0  0  0
   11.5788    0.8769   -7.6395 C   0  0  0  0  0  0  0  0  0  0  0  0
   12.1899    0.7105   -9.0401 C   0  0  0  0  0  0  0  0  0  0  0  0
   10.2196    0.1687   -7.8609 C   0  0  0  0  0  0  0  0  0  0  0  0
   -2.9220   -5.4234    5.7019 H   0  0  0  0  0  0  0  0  0  0  0  0
   -7.8783   -7.0969    2.2305 H   0  0  0  0  0  0  0  0  0  0  0  0
   -5.8584  -10.0654    5.8022 H   0  0  0  0  0  0  0  0  0  0  0  0
   -8.0213  -11.8544    3.8457 H   0  0  0  0  0  0  0  0  0  0  0  0
   -9.2165  -11.3229    6.1663 H   0  0  0  0  0  0  0  0  0  0  0  0
  -10.8235  -12.8215    4.7250 H   0  0  0  0  0  0  0  0  0  0  0  0
  -11.9152  -11.2939    2.8459 H   0  0  0  0  0  0  0  0  0  0  0  0
  -10.9816   -8.8543    3.1306 H   0  0  0  0  0  0  0  0  0  0  0  0
  -11.0793   -9.5022    5.6948 H   0  0  0  0  0  0  0  0  0  0  0  0
   -9.4904   -8.7737    5.3643 H   0  0  0  0  0  0  0  0  0  0  0  0
   -9.0910  -10.3582    2.0042 H   0  0  0  0  0  0  0  0  0  0  0  0
   -0.3809   -1.8000    7.7567 H   0  0  0  0  0  0  0  0  0  0  0  0
    2.0052   -1.2253    7.7690 H   0  0  0  0  0  0  0  0  0  0  0  0
    4.1161   -1.0480    6.6147 H   0  0  0  0  0  0  0  0  0  0  0  0
    4.4477   -2.7249    6.1832 H   0  0  0  0  0  0  0  0  0  0  0  0
    4.2333   -1.5271    4.9129 H   0  0  0  0  0  0  0  0  0  0  0  0
    2.4865   -3.1306    3.9807 H   0  0  0  0  0  0  0  0  0  0  0  0
    0.1153   -3.7260    3.9738 H   0  0  0  0  0  0  0  0  0  0  0  0
   -4.1466   -2.7068    6.6213 H   0  0  0  0  0  0  0  0  0  0  0  0
   -5.2099   -3.4859    8.6878 H   0  0  0  0  0  0  0  0  0  0  0  0
   -3.5292   -4.6889   11.5547 H   0  0  0  0  0  0  0  0  0  0  0  0
   -4.1588   -6.0719   10.6687 H   0  0  0  0  0  0  0  0  0  0  0  0
   -5.1194   -4.5933   10.7849 H   0  0  0  0  0  0  0  0  0  0  0  0
   -1.5589   -5.3479    9.8708 H   0  0  0  0  0  0  0  0  0  0  0  0
   -0.4959   -4.5969    7.7947 H   0  0  0  0  0  0  0  0  0  0  0  0
   -5.1860   -2.3600   -1.0888 H   0  0  0  0  0  0  0  0  0  0  0  0
   -7.5543   -2.8983   -0.7499 H   0  0  0  0  0  0  0  0  0  0  0  0
   -9.1714   -3.1557    2.0230 H   0  0  0  0  0  0  0  0  0  0  0  0
   -9.6710   -1.4731    1.8665 H   0  0  0  0  0  0  0  0  0  0  0  0
   -9.6308   -2.5240    0.4412 H   0  0  0  0  0  0  0  0  0  0  0  0
   -7.5078   -0.8079    2.9662 H   0  0  0  0  0  0  0  0  0  0  0  0
   -5.1448   -0.2417    2.6203 H   0  0  0  0  0  0  0  0  0  0  0  0
   -4.6806    0.4227   -1.3781 H   0  0  0  0  0  0  0  0  0  0  0  0
   -3.6527    0.8306   -3.5770 H   0  0  0  0  0  0  0  0  0  0  0  0
   -0.4492   -0.7394   -4.7094 H   0  0  0  0  0  0  0  0  0  0  0  0
   -2.0067   -0.1899   -5.3415 H   0  0  0  0  0  0  0  0  0  0  0  0
   -0.9462    0.9451   -4.5110 H   0  0  0  0  0  0  0  0  0  0  0  0
   -0.4239   -1.7519   -2.5593 H   0  0  0  0  0  0  0  0  0  0  0  0
   -1.4252   -2.1263   -0.3286 H   0  0  0  0  0  0  0  0  0  0  0  0
   -0.6479    2.0711    3.2625 H   0  0  0  0  0  0  0  0  0  0  0  0
    1.8805    3.4846    5.5948 H   0  0  0  0  0  0  0  0  0  0  0  0
    3.3689    3.1485    4.6661 H   0  0  0  0  0  0  0  0  0  0  0  0
    1.2581    1.0479    5.3946 H   0  0  0  0  0  0  0  0  0  0  0  0
    2.7877    0.7411    4.5805 H   0  0  0  0  0  0  0  0  0  0  0  0
    2.7812    1.2920    6.2619 H   0  0  0  0  0  0  0  0  0  0  0  0
    2.6185    5.2943    4.3893 H   0  0  0  0  0  0  0  0  0  0  0  0
    2.2513    7.3878    3.2010 H   0  0  0  0  0  0  0  0  0  0  0  0
    0.9177    7.4602    1.1654 H   0  0  0  0  0  0  0  0  0  0  0  0
   -1.2707    6.1684   -1.4312 H   0  0  0  0  0  0  0  0  0  0  0  0
   -0.7875    7.2820   -0.1333 H   0  0  0  0  0  0  0  0  0  0  0  0
    0.5159    7.6883   -2.2243 H   0  0  0  0  0  0  0  0  0  0  0  0
    1.6050    7.1231   -0.9518 H   0  0  0  0  0  0  0  0  0  0  0  0
    1.0748    6.0104   -2.2129 H   0  0  0  0  0  0  0  0  0  0  0  0
    2.4327    0.3738   -1.9137 H   0  0  0  0  0  0  0  0  0  0  0  0
    1.6563   -1.8712   -1.3914 H   0  0  0  0  0  0  0  0  0  0  0  0
    2.1052   -4.0987   -0.5861 H   0  0  0  0  0  0  0  0  0  0  0  0
    0.3974   -3.8025   -1.0492 H   0  0  0  0  0  0  0  0  0  0  0  0
    0.8064   -5.1314    0.0543 H   0  0  0  0  0  0  0  0  0  0  0  0
    1.5734   -0.8740    2.7663 H   0  0  0  0  0  0  0  0  0  0  0  0
    2.3371    1.3915    2.2349 H   0  0  0  0  0  0  0  0  0  0  0  0
    4.5964    1.6110    1.5704 H   0  0  0  0  0  0  0  0  0  0  0  0
    5.9262    3.0893    2.9623 H   0  0  0  0  0  0  0  0  0  0  0  0
    8.1186    5.7860    4.1911 H   0  0  0  0  0  0  0  0  0  0  0  0
    7.0547    4.4030    4.5181 H   0  0  0  0  0  0  0  0  0  0  0  0
    7.9212    4.5228    2.9537 H   0  0  0  0  0  0  0  0  0  0  0  0
    4.3122    6.4790    0.9225 H   0  0  0  0  0  0  0  0  0  0  0  0
    2.9177    4.9875   -0.4416 H   0  0  0  0  0  0  0  0  0  0  0  0
    1.8271    1.2124   -6.2352 H   0  0  0  0  0  0  0  0  0  0  0  0
    2.3051    0.2045   -8.4334 H   0  0  0  0  0  0  0  0  0  0  0  0
    2.4635    3.3103  -11.8108 H   0  0  0  0  0  0  0  0  0  0  0  0
    0.9172    2.7195  -12.5042 H   0  0  0  0  0  0  0  0  0  0  0  0
    2.4692    2.1081  -13.1185 H   0  0  0  0  0  0  0  0  0  0  0  0
    0.5089    3.5727  -10.3599 H   0  0  0  0  0  0  0  0  0  0  0  0
    0.0842    4.5941   -8.1877 H   0  0  0  0  0  0  0  0  0  0  0  0
    0.5777    5.9814   -4.6281 H   0  0  0  0  0  0  0  0  0  0  0  0
   -1.5264    7.1739   -4.1345 H   0  0  0  0  0  0  0  0  0  0  0  0
   -5.5157    5.5197   -6.3106 H   0  0  0  0  0  0  0  0  0  0  0  0
   -5.5903    4.6613   -4.7354 H   0  0  0  0  0  0  0  0  0  0  0  0
   -6.4802    6.1807   -4.9735 H   0  0  0  0  0  0  0  0  0  0  0  0
   -3.7313    4.0372   -6.0324 H   0  0  0  0  0  0  0  0  0  0  0  0
   -1.6507    2.8569   -6.5031 H   0  0  0  0  0  0  0  0  0  0  0  0
    3.1167    3.8984   -6.9753 H   0  0  0  0  0  0  0  0  0  0  0  0
    8.4099    0.9742   -5.3238 H   0  0  0  0  0  0  0  0  0  0  0  0
    7.2822    2.2619  -10.0912 H   0  0  0  0  0  0  0  0  0  0  0  0
    9.6542   -0.2195  -10.0389 H   0  0  0  0  0  0  0  0  0  0  0  0
   11.1388    1.6224  -10.8144 H   0  0  0  0  0  0  0  0  0  0  0  0
   10.6693    3.6657   -9.2518 H   0  0  0  0  0  0  0  0  0  0  0  0
   11.2953    2.9727   -6.7653 H   0  0  0  0  0  0  0  0  0  0  0  0
   12.1519    0.5013   -6.7956 H   0  0  0  0  0  0  0  0  0  0  0  0
   12.2811   -0.3288   -9.3530 H   0  0  0  0  0  0  0  0  0  0  0  0
   13.1516    1.2112   -9.1425 H   0  0  0  0  0  0  0  0  0  0  0  0
   10.2617   -0.8929   -7.6238 H   0  0  0  0  0  0  0  0  0  0  0  0
  1  2  2  0  0  0  0
  2  3  1  0  0  0  0
  3  4  2  0  0  0  0
  3  5  1  0  0  0  0
  5  6  2  0  0  0  0
  6  7  1  0  0  0  0
  7  8  2  0  0  0  0
  8  9  1  0  0  0  0
  9 10  2  0  0  0  0
 10 11  1  0  0  0  0
 11 12  2  0  0  0  0
 12 13  1  0  0  0  0
 13 14  3  0  0  0  0
 12 15  1  0  0  0  0
 15 16  3  0  0  0  0
  8 17  1  0  0  0  0
 17 18  1  0  0  0  0
 18 19  1  0  0  0  0
 19 20  2  0  0  0  0
 20 21  1  0  0  0  0
 21 22  1  0  0  0  0
 21 23  1  0  0  0  0
  1 24  1  0  0  0  0
 24 25  2  0  0  0  0
 25 26  1  0  0  0  0
 26 27  1  0  0  0  0
 27 28  2  0  0  0  0
 28 29  1  0  0  0  0
 29 30  2  0  0  0  0
 30 31  1  0  0  0  0
 30 32  1  0  0  0  0
 32 33  2  0  0  0  0
 26 34  1  0  0  0  0
 34 35  2  0  0  0  0
 35 36  1  0  0  0  0
 36 37  2  0  0  0  0
 37 38  1  0  0  0  0
 37 39  1  0  0  0  0
 39 40  2  0  0  0  0
 25 41  1  0  0  0  0
 41 42  1  0  0  0  0
 42 43  1  0  0  0  0
 43 44  2  0  0  0  0
 44 45  1  0  0  0  0
 45 46  1  0  0  0  0
 46 47  2  0  0  0  0
 47 48  1  0  0  0  0
 48 49  2  0  0  0  0
 49 50  1  0  0  0  0
 49 51  1  0  0  0  0
 51 52  2  0  0  0  0
 45 53  1  0  0  0  0
 53 54  2  0  0  0  0
 54 55  1  0  0  0  0
 55 56  2  0  0  0  0
 56 57  1  0  0  0  0
 56 58  1  0  0  0  0
 58 59  2  0  0  0  0
 44 60  1  0  0  0  0
 60 61  1  0  0  0  0
 43 62  1  0  0  0  0
 62 63  2  0  0  0  0
 63 64  1  0  0  0  0
 64 65  1  0  0  0  0
 65 66  2  0  0  0  0
 66 67  1  0  0  0  0
 67 68  1  0  0  0  0
 68 69  1  0  0  0  0
 66 70  1  0  0  0  0
 70 71  2  0  0  0  0
 71 72  1  0  0  0  0
 72 73  2  0  0  0  0
 73 74  1  0  0  0  0
 74 75  1  0  0  0  0
 75 76  1  0  0  0  0
 64 77  2  0  0  0  0
 77 78  1  0  0  0  0
 77 79  1  0  0  0  0
 79 80  2  0  0  0  0
 80 81  1  0  0  0  0
 81 82  1  0  0  0  0
 82 83  2  0  0  0  0
 83 84  1  0  0  0  0
 84 85  2  0  0  0  0
 85 86  1  0  0  0  0
 86 87  1  0  0  0  0
 85 88  1  0  0  0  0
 88 89  2  0  0  0  0
 81 90  1  0  0  0  0
 90 91  2  0  0  0  0
 91 92  1  0  0  0  0
 92 93  2  0  0  0  0
 93 94  1  0  0  0  0
 94 95  1  0  0  0  0
 93 96  1  0  0  0  0
 96 97  2  0  0  0  0
 80 98  1  0  0  0  0
 98 99  1  0  0  0  0
 99100  1  0  0  0  0
100101  2  0  0  0  0
101102  1  0  0  0  0
102103  1  0  0  0  0
103104  2  0  0  0  0
104105  1  0  0  0  0
105106  2  0  0  0  0
106107  1  0  0  0  0
107108  1  0  0  0  0
106109  1  0  0  0  0
109110  2  0  0  0  0
102111  1  0  0  0  0
111112  2  0  0  0  0
112113  1  0  0  0  0
113114  2  0  0  0  0
114115  1  0  0  0  0
115116  1  0  0  0  0
114117  1  0  0  0  0
117118  2  0  0  0  0
101119  1  0  0  0  0
119120  1  0  0  0  0
100121  1  0  0  0  0
121122  2  0  0  0  0
122123  1  0  0  0  0
123124  2  0  0  0  0
123125  1  0  0  0  0
125126  2  0  0  0  0
126127  1  0  0  0  0
127128  2  0  0  0  0
128129  1  0  0  0  0
129130  2  0  0  0  0
130131  1  0  0  0  0
131132  2  0  0  0  0
132133  1  0  0  0  0
133134  3  0  0  0  0
132135  1  0  0  0  0
135136  3  0  0  0  0
128137  1  0  0  0  0
137138  1  0  0  0  0
138139  1  0  0  0  0
139140  2  0  0  0  0
140141  1  0  0  0  0
141142  1  0  0  0  0
141143  1  0  0  0  0
 11  2  1  0  0  0  0
 23 17  1  0  0  0  0
 61 24  1  0  0  0  0
 78 62  1  0  0  0  0
120 79  1  0  0  0  0
131122  1  0  0  0  0
143137  1  0  0  0  0
 10  5  1  0  0  0  0
 22 18  1  0  0  0  0
 33 27  1  0  0  0  0
 40 34  1  0  0  0  0
 60 41  2  0  0  0  0
 73 65  1  0  0  0  0
 89 82  1  0  0  0  0
 97 90  1  0  0  0  0
119 98  2  0  0  0  0
130125  1  0  0  0  0
142138  1  0  0  0  0
 23  7  1  0  0  0  0
 52 46  1  0  0  0  0
 59 53  1  0  0  0  0
110103  1  0  0  0  0
118111  1  0  0  0  0
143127  1  0  0  0  0
  1144  1  0  0  0  0
  6145  1  0  0  0  0
  9146  1  0  0  0  0
 17147  1  0  0  0  0
 18148  1  0  0  0  0
 19149  1  0  0  0  0
 20150  1  0  0  0  0
 21151  1  0  0  0  0
 22152  1  0  0  0  0
 22153  1  0  0  0  0
 23154  1  0  0  0  0
 28155  1  0  0  0  0
 29156  1  0  0  0  0
 31157  1  0  0  0  0
 31158  1  0  0  0  0
 31159  1  0  0  0  0
 32160  1  0  0  0  0
 33161  1  0  0  0  0
 35162  1  0  0  0  0
 36163  1  0  0  0  0
 38164  1  0  0  0  0
 38165  1  0  0  0  0
 38166  1  0  0  0  0
 39167  1  0  0  0  0
 40168  1  0  0  0  0
 47169  1  0  0  0  0
 48170  1  0  0  0  0
 50171  1  0  0  0  0
 50172  1  0  0  0  0
 50173  1  0  0  0  0
 51174  1  0  0  0  0
 52175  1  0  0  0  0
 54176  1  0  0  0  0
 55177  1  0  0  0  0
 57178  1  0  0  0  0
 57179  1  0  0  0  0
 57180  1  0  0  0  0
 58181  1  0  0  0  0
 59182  1  0  0  0  0
 63183  1  0  0  0  0
 68184  1  0  0  0  0
 68185  1  0  0  0  0
 69186  1  0  0  0  0
 69187  1  0  0  0  0
 69188  1  0  0  0  0
 70189  1  0  0  0  0
 71190  1  0  0  0  0
 72191  1  0  0  0  0
 75192  1  0  0  0  0
 75193  1  0  0  0  0
 76194  1  0  0  0  0
 76195  1  0  0  0  0
 76196  1  0  0  0  0
 83197  1  0  0  0  0
 84198  1  0  0  0  0
 87199  1  0  0  0  0
 87200  1  0  0  0  0
 87201  1  0  0  0  0
 88202  1  0  0  0  0
 89203  1  0  0  0  0
 91204  1  0  0  0  0
 92205  1  0  0  0  0
 95206  1  0  0  0  0
 95207  1  0  0  0  0
 95208  1  0  0  0  0
 96209  1  0  0  0  0
 97210  1  0  0  0  0
104211  1  0  0  0  0
105212  1  0  0  0  0
108213  1  0  0  0  0
108214  1  0  0  0  0
108215  1  0  0  0  0
109216  1  0  0  0  0
110217  1  0  0  0  0
112218  1  0  0  0  0
113219  1  0  0  0  0
116220  1  0  0  0  0
116221  1  0  0  0  0
116222  1  0  0  0  0
117223  1  0  0  0  0
118224  1  0  0  0  0
121225  1  0  0  0  0
126226  1  0  0  0  0
129227  1  0  0  0  0
137228  1  0  0  0  0
138229  1  0  0  0  0
139230  1  0  0  0  0
140231  1  0  0  0  0
141232  1  0  0  0  0
142233  1  0  0  0  0
142234  1  0  0  0  0
143235  1  0  0  0  0
M  END
