
  xtb     02142205563D
 energy: -349.675864250366 gnorm: 0.000420518681 xtb: 6.4.1 (unknown)
218241  0     0  0            999 V2000
   -1.3983   -8.9523   -1.4936 C   0  0  0  0  0  0  0  0  0  0  0  0
   -2.3893   -9.4582   -0.6773 C   0  0  0  0  0  0  0  0  0  0  0  0
   -2.7594   -8.8694    0.6186 C   0  0  0  0  0  0  0  0  0  0  0  0
   -2.2910   -7.8736    1.1413 O   0  0  0  0  0  0  0  0  0  0  0  0
   -3.7223   -9.8111    1.2275 C   0  0  0  0  0  0  0  0  0  0  0  0
   -4.3531   -9.6859    2.4613 C   0  0  0  0  0  0  0  0  0  0  0  0
   -5.2162  -10.7151    2.7554 C   0  0  0  0  0  0  0  0  0  0  0  0
   -5.4197  -11.8008    1.8962 C   0  0  0  0  0  0  0  0  0  0  0  0
   -4.7932  -11.9421    0.6800 C   0  0  0  0  0  0  0  0  0  0  0  0
   -3.9276  -10.8958    0.3544 C   0  0  0  0  0  0  0  0  0  0  0  0
   -3.1239  -10.6785   -0.8477 C   0  0  0  0  0  0  0  0  0  0  0  0
   -3.1954  -11.4151   -2.0063 C   0  0  0  0  0  0  0  0  0  0  0  0
   -2.5021  -11.0902   -3.1883 C   0  0  0  0  0  0  0  0  0  0  0  0
   -1.9902  -10.8684   -4.1928 N   0  0  0  0  0  0  0  0  0  0  0  0
   -4.0327  -12.5295   -2.1894 C   0  0  0  0  0  0  0  0  0  0  0  0
   -4.7108  -13.4319   -2.4070 N   0  0  0  0  0  0  0  0  0  0  0  0
   -6.4172  -12.4519    2.8233 C   0  0  0  0  0  0  0  0  0  0  0  0
   -7.9047  -12.3162    2.4353 C   0  0  0  0  0  0  0  0  0  0  0  0
   -8.6437  -12.6004    3.7229 C   0  0  0  0  0  0  0  0  0  0  0  0
   -8.4556  -11.5662    4.5327 C   0  0  0  0  0  0  0  0  0  0  0  0
   -7.5856  -10.5661    3.8062 C   0  0  0  0  0  0  0  0  0  0  0  0
   -8.0675  -10.7925    2.3675 C   0  0  0  0  0  0  0  0  0  0  0  0
   -6.1952  -11.2360    3.7791 C   0  0  0  0  0  0  0  0  0  0  0  0
   -0.9783   -7.6218   -1.5258 C   0  0  0  0  0  0  0  0  0  0  0  0
   -1.6400   -6.4284   -1.1649 C   0  0  0  0  0  0  0  0  0  0  0  0
   -2.9606   -6.2710   -0.8799 N   0  0  0  0  0  0  0  0  0  0  0  0
   -3.3723   -5.0925   -0.2065 C   0  0  0  0  0  0  0  0  0  0  0  0
   -2.8323   -4.7672    1.0319 C   0  0  0  0  0  0  0  0  0  0  0  0
   -3.2072   -3.5912    1.6528 C   0  0  0  0  0  0  0  0  0  0  0  0
   -4.1162   -2.7261    1.0566 C   0  0  0  0  0  0  0  0  0  0  0  0
   -4.4681   -1.4183    1.6944 C   0  0  0  0  0  0  0  0  0  0  0  0
   -4.6762   -3.0841   -0.1649 C   0  0  0  0  0  0  0  0  0  0  0  0
   -4.3159   -4.2582   -0.7941 C   0  0  0  0  0  0  0  0  0  0  0  0
   -3.9660   -7.1715   -1.2529 C   0  0  0  0  0  0  0  0  0  0  0  0
   -3.9581   -7.8147   -2.4900 C   0  0  0  0  0  0  0  0  0  0  0  0
   -4.9477   -8.7221   -2.8054 C   0  0  0  0  0  0  0  0  0  0  0  0
   -5.9703   -9.0183   -1.9072 C   0  0  0  0  0  0  0  0  0  0  0  0
   -6.9937  -10.0586   -2.2374 C   0  0  0  0  0  0  0  0  0  0  0  0
   -5.9991   -8.3346   -0.6990 C   0  0  0  0  0  0  0  0  0  0  0  0
   -5.0164   -7.4205   -0.3716 C   0  0  0  0  0  0  0  0  0  0  0  0
   -0.7497   -5.3285   -1.2454 C   0  0  0  0  0  0  0  0  0  0  0  0
   -0.9229   -3.6374   -0.9393 S   0  0  0  0  0  0  0  0  0  0  0  0
    0.7501   -3.3672   -1.3940 C   0  0  0  0  0  0  0  0  0  0  0  0
    1.3733   -4.5194   -1.8707 C   0  0  0  0  0  0  0  0  0  0  0  0
    2.6084   -4.5767   -2.4846 N   0  0  0  0  0  0  0  0  0  0  0  0
    3.3322   -5.7822   -2.3987 C   0  0  0  0  0  0  0  0  0  0  0  0
    3.4733   -6.4180   -1.1686 C   0  0  0  0  0  0  0  0  0  0  0  0
    4.1718   -7.6058   -1.0765 C   0  0  0  0  0  0  0  0  0  0  0  0
    4.7499   -8.1851   -2.1983 C   0  0  0  0  0  0  0  0  0  0  0  0
    5.4863   -9.4853   -2.1025 C   0  0  0  0  0  0  0  0  0  0  0  0
    4.6061   -7.5411   -3.4225 C   0  0  0  0  0  0  0  0  0  0  0  0
    3.9053   -6.3575   -3.5293 C   0  0  0  0  0  0  0  0  0  0  0  0
    3.0494   -3.5569   -3.3439 C   0  0  0  0  0  0  0  0  0  0  0  0
    2.1551   -2.7403   -4.0294 C   0  0  0  0  0  0  0  0  0  0  0  0
    2.6215   -1.7365   -4.8551 C   0  0  0  0  0  0  0  0  0  0  0  0
    3.9820   -1.5218   -5.0343 C   0  0  0  0  0  0  0  0  0  0  0  0
    4.4864   -0.4205   -5.9158 C   0  0  0  0  0  0  0  0  0  0  0  0
    4.8699   -2.3525   -4.3615 C   0  0  0  0  0  0  0  0  0  0  0  0
    4.4172   -3.3537   -3.5273 C   0  0  0  0  0  0  0  0  0  0  0  0
    0.5112   -5.6349   -1.7420 C   0  0  0  0  0  0  0  0  0  0  0  0
    0.6596   -7.3115   -2.1285 S   0  0  0  0  0  0  0  0  0  0  0  0
    1.2201   -2.0367   -1.1969 C   0  0  0  0  0  0  0  0  0  0  0  0
    0.4503   -0.8861   -1.2592 C   0  0  0  0  0  0  0  0  0  0  0  0
    1.2569    0.2182   -0.8608 C   0  0  0  0  0  0  0  0  0  0  0  0
    2.5669   -0.2810   -0.5352 C   0  0  0  0  0  0  0  0  0  0  0  0
    3.5715    0.2518   -0.1091 O   0  0  0  0  0  0  0  0  0  0  0  0
    2.4799   -1.6732   -0.7779 N   0  0  0  0  0  0  0  0  0  0  0  0
    3.5088   -2.5536   -0.2943 C   0  0  0  0  0  0  0  0  0  0  0  0
    0.4819    1.3645   -0.9100 C   0  0  0  0  0  0  0  0  0  0  0  0
   -0.7765    0.9990   -1.3377 N   0  0  0  0  0  0  0  0  0  0  0  0
   -1.9676    1.8010   -1.2717 C   0  0  0  0  0  0  0  0  0  0  0  0
   -0.8701   -0.3952   -1.5487 C   0  0  0  0  0  0  0  0  0  0  0  0
   -1.9079   -0.9473   -1.8596 O   0  0  0  0  0  0  0  0  0  0  0  0
    0.8484    2.6722   -0.4784 C   0  0  0  0  0  0  0  0  0  0  0  0
    0.4828    3.9269   -0.9599 C   0  0  0  0  0  0  0  0  0  0  0  0
   -0.1748    4.1769   -2.1445 N   0  0  0  0  0  0  0  0  0  0  0  0
   -0.8609    5.4073   -2.2565 C   0  0  0  0  0  0  0  0  0  0  0  0
   -1.7971    5.7651   -1.2914 C   0  0  0  0  0  0  0  0  0  0  0  0
   -2.4228    6.9938   -1.3567 C   0  0  0  0  0  0  0  0  0  0  0  0
   -2.1357    7.8884   -2.3797 C   0  0  0  0  0  0  0  0  0  0  0  0
   -2.7648    9.2461   -2.3996 C   0  0  0  0  0  0  0  0  0  0  0  0
   -1.2233    7.5081   -3.3560 C   0  0  0  0  0  0  0  0  0  0  0  0
   -0.5896    6.2832   -3.3015 C   0  0  0  0  0  0  0  0  0  0  0  0
    0.0206    3.3992   -3.2966 C   0  0  0  0  0  0  0  0  0  0  0  0
   -0.9842    3.3580   -4.2631 C   0  0  0  0  0  0  0  0  0  0  0  0
   -0.8224    2.6070   -5.4087 C   0  0  0  0  0  0  0  0  0  0  0  0
    0.3366    1.8721   -5.6272 C   0  0  0  0  0  0  0  0  0  0  0  0
    0.4895    1.0427   -6.8655 C   0  0  0  0  0  0  0  0  0  0  0  0
    1.3367    1.9244   -4.6646 C   0  0  0  0  0  0  0  0  0  0  0  0
    1.1915    2.6799   -3.5175 C   0  0  0  0  0  0  0  0  0  0  0  0
    0.9617    4.9519   -0.1060 C   0  0  0  0  0  0  0  0  0  0  0  0
    0.8260    6.6760   -0.1259 S   0  0  0  0  0  0  0  0  0  0  0  0
    1.7682    6.7746    1.3637 C   0  0  0  0  0  0  0  0  0  0  0  0
    2.2576    5.5041    1.7679 C   0  0  0  0  0  0  0  0  0  0  0  0
    3.1117    5.2742    2.8072 N   0  0  0  0  0  0  0  0  0  0  0  0
    4.1293    6.1729    3.1791 C   0  0  0  0  0  0  0  0  0  0  0  0
    4.4856    6.2927    4.5201 C   0  0  0  0  0  0  0  0  0  0  0  0
    5.4860    7.1678    4.8925 C   0  0  0  0  0  0  0  0  0  0  0  0
    6.1474    7.9467    3.9505 C   0  0  0  0  0  0  0  0  0  0  0  0
    7.2009    8.9205    4.3798 C   0  0  0  0  0  0  0  0  0  0  0  0
    5.7976    7.8044    2.6125 C   0  0  0  0  0  0  0  0  0  0  0  0
    4.8086    6.9237    2.2229 C   0  0  0  0  0  0  0  0  0  0  0  0
    3.0645    4.0226    3.4576 C   0  0  0  0  0  0  0  0  0  0  0  0
    4.2307    3.2980    3.6804 C   0  0  0  0  0  0  0  0  0  0  0  0
    4.1683    2.0709    4.3079 C   0  0  0  0  0  0  0  0  0  0  0  0
    2.9536    1.5397    4.7278 C   0  0  0  0  0  0  0  0  0  0  0  0
    2.8962    0.1905    5.3742 C   0  0  0  0  0  0  0  0  0  0  0  0
    1.7971    2.2787    4.5131 C   0  0  0  0  0  0  0  0  0  0  0  0
    1.8453    3.5087    3.8872 C   0  0  0  0  0  0  0  0  0  0  0  0
    1.7372    4.4840    0.9485 C   0  0  0  0  0  0  0  0  0  0  0  0
    1.9101    2.7597    0.9197 S   0  0  0  0  0  0  0  0  0  0  0  0
    1.8844    7.9195    2.1469 C   0  0  0  0  0  0  0  0  0  0  0  0
    1.4377    9.2042    1.9235 C   0  0  0  0  0  0  0  0  0  0  0  0
    0.8504    9.7177    0.6859 C   0  0  0  0  0  0  0  0  0  0  0  0
    0.5830    9.1000   -0.3325 O   0  0  0  0  0  0  0  0  0  0  0  0
    0.6519   11.1647    0.8914 C   0  0  0  0  0  0  0  0  0  0  0  0
    0.1149   12.0758   -0.0145 C   0  0  0  0  0  0  0  0  0  0  0  0
    0.0379   13.3618    0.4645 C   0  0  0  0  0  0  0  0  0  0  0  0
    0.4627   13.7144    1.7512 C   0  0  0  0  0  0  0  0  0  0  0  0
    0.9957   12.8246    2.6545 C   0  0  0  0  0  0  0  0  0  0  0  0
    1.0862   11.5112    2.1857 C   0  0  0  0  0  0  0  0  0  0  0  0
    1.5632   10.2991    2.8541 C   0  0  0  0  0  0  0  0  0  0  0  0
    2.0121   10.2384    4.1528 C   0  0  0  0  0  0  0  0  0  0  0  0
    2.3298    9.0625    4.8583 C   0  0  0  0  0  0  0  0  0  0  0  0
    2.5685    8.1562    5.5253 N   0  0  0  0  0  0  0  0  0  0  0  0
    2.1881   11.3574    4.9900 C   0  0  0  0  0  0  0  0  0  0  0  0
    2.3792   12.2181    5.7271 N   0  0  0  0  0  0  0  0  0  0  0  0
    0.0922   15.1651    1.5635 C   0  0  0  0  0  0  0  0  0  0  0  0
    1.2520   16.1445    1.2871 C   0  0  0  0  0  0  0  0  0  0  0  0
    0.5711   17.3500    0.6804 C   0  0  0  0  0  0  0  0  0  0  0  0
    0.1712   17.0159   -0.5399 C   0  0  0  0  0  0  0  0  0  0  0  0
    0.5750   15.5788   -0.7783 C   0  0  0  0  0  0  0  0  0  0  0  0
    1.8798   15.5341    0.0273 C   0  0  0  0  0  0  0  0  0  0  0  0
   -0.3798   14.7720    0.1269 C   0  0  0  0  0  0  0  0  0  0  0  0
   -0.8588   -9.6336   -2.1406 H   0  0  0  0  0  0  0  0  0  0  0  0
   -4.1617   -8.8374    3.0998 H   0  0  0  0  0  0  0  0  0  0  0  0
   -4.9473  -12.7908    0.0345 H   0  0  0  0  0  0  0  0  0  0  0  0
   -6.1585  -13.4472    3.1795 H   0  0  0  0  0  0  0  0  0  0  0  0
   -8.2018  -12.8914    1.5626 H   0  0  0  0  0  0  0  0  0  0  0  0
   -9.1627  -13.5185    3.9270 H   0  0  0  0  0  0  0  0  0  0  0  0
   -8.7856  -11.4483    5.5483 H   0  0  0  0  0  0  0  0  0  0  0  0
   -7.5933   -9.5466    4.1829 H   0  0  0  0  0  0  0  0  0  0  0  0
   -7.4434  -10.3177    1.6127 H   0  0  0  0  0  0  0  0  0  0  0  0
   -9.1054  -10.4934    2.2280 H   0  0  0  0  0  0  0  0  0  0  0  0
   -5.7931  -11.4218    4.7735 H   0  0  0  0  0  0  0  0  0  0  0  0
   -2.1335   -5.4486    1.4920 H   0  0  0  0  0  0  0  0  0  0  0  0
   -2.7804   -3.3389    2.6128 H   0  0  0  0  0  0  0  0  0  0  0  0
   -5.5231   -1.1900    1.5592 H   0  0  0  0  0  0  0  0  0  0  0  0
   -4.2389   -1.4251    2.7572 H   0  0  0  0  0  0  0  0  0  0  0  0
   -3.8899   -0.6221    1.2247 H   0  0  0  0  0  0  0  0  0  0  0  0
   -5.3905   -2.4260   -0.6364 H   0  0  0  0  0  0  0  0  0  0  0  0
   -4.7442   -4.5255   -1.7489 H   0  0  0  0  0  0  0  0  0  0  0  0
   -3.1748   -7.6045   -3.2027 H   0  0  0  0  0  0  0  0  0  0  0  0
   -4.9219   -9.2189   -3.7645 H   0  0  0  0  0  0  0  0  0  0  0  0
   -7.3370   -9.9501   -3.2640 H   0  0  0  0  0  0  0  0  0  0  0  0
   -7.8477   -9.9928   -1.5683 H   0  0  0  0  0  0  0  0  0  0  0  0
   -6.5592  -11.0542   -2.1393 H   0  0  0  0  0  0  0  0  0  0  0  0
   -6.7958   -8.5268    0.0052 H   0  0  0  0  0  0  0  0  0  0  0  0
   -5.0438   -6.9059    0.5771 H   0  0  0  0  0  0  0  0  0  0  0  0
    3.0311   -5.9787   -0.2862 H   0  0  0  0  0  0  0  0  0  0  0  0
    4.2709   -8.0881   -0.1150 H   0  0  0  0  0  0  0  0  0  0  0  0
    5.8554   -9.6508   -1.0932 H   0  0  0  0  0  0  0  0  0  0  0  0
    6.3248   -9.5083   -2.7949 H   0  0  0  0  0  0  0  0  0  0  0  0
    4.8182  -10.3083   -2.3580 H   0  0  0  0  0  0  0  0  0  0  0  0
    5.0417   -7.9799   -4.3083 H   0  0  0  0  0  0  0  0  0  0  0  0
    3.7915   -5.8750   -4.4886 H   0  0  0  0  0  0  0  0  0  0  0  0
    1.0916   -2.8940   -3.9287 H   0  0  0  0  0  0  0  0  0  0  0  0
    1.9072   -1.1168   -5.3754 H   0  0  0  0  0  0  0  0  0  0  0  0
    3.7623   -0.1796   -6.6908 H   0  0  0  0  0  0  0  0  0  0  0  0
    4.6678    0.4787   -5.3252 H   0  0  0  0  0  0  0  0  0  0  0  0
    5.4248   -0.7026   -6.3880 H   0  0  0  0  0  0  0  0  0  0  0  0
    5.9334   -2.2110   -4.4875 H   0  0  0  0  0  0  0  0  0  0  0  0
    5.1265   -3.9903   -3.0174 H   0  0  0  0  0  0  0  0  0  0  0  0
    4.1305   -1.9685    0.3852 H   0  0  0  0  0  0  0  0  0  0  0  0
    4.1378   -2.9256   -1.1021 H   0  0  0  0  0  0  0  0  0  0  0  0
    3.0653   -3.3944    0.2403 H   0  0  0  0  0  0  0  0  0  0  0  0
   -2.8106    1.1084   -1.2527 H   0  0  0  0  0  0  0  0  0  0  0  0
   -2.0716    2.4478   -2.1423 H   0  0  0  0  0  0  0  0  0  0  0  0
   -1.9646    2.4086   -0.3652 H   0  0  0  0  0  0  0  0  0  0  0  0
   -2.0170    5.0823   -0.4834 H   0  0  0  0  0  0  0  0  0  0  0  0
   -3.1379    7.2673   -0.5945 H   0  0  0  0  0  0  0  0  0  0  0  0
   -3.7954    9.2057   -2.0532 H   0  0  0  0  0  0  0  0  0  0  0  0
   -2.2106    9.9044   -1.7302 H   0  0  0  0  0  0  0  0  0  0  0  0
   -2.7413    9.6755   -3.3982 H   0  0  0  0  0  0  0  0  0  0  0  0
   -0.9886    8.1891   -4.1608 H   0  0  0  0  0  0  0  0  0  0  0  0
    0.1327    6.0051   -4.0549 H   0  0  0  0  0  0  0  0  0  0  0  0
   -1.8910    3.9272   -4.1145 H   0  0  0  0  0  0  0  0  0  0  0  0
   -1.6131    2.5883   -6.1446 H   0  0  0  0  0  0  0  0  0  0  0  0
   -0.0295    1.5017   -7.7040 H   0  0  0  0  0  0  0  0  0  0  0  0
    0.0586    0.0526   -6.7093 H   0  0  0  0  0  0  0  0  0  0  0  0
    1.5386    0.9224   -7.1262 H   0  0  0  0  0  0  0  0  0  0  0  0
    2.2539    1.3742   -4.8129 H   0  0  0  0  0  0  0  0  0  0  0  0
    1.9987    2.7202   -2.8024 H   0  0  0  0  0  0  0  0  0  0  0  0
    3.9669    5.7097    5.2645 H   0  0  0  0  0  0  0  0  0  0  0  0
    5.7439    7.2613    5.9365 H   0  0  0  0  0  0  0  0  0  0  0  0
    7.9211    8.4399    5.0395 H   0  0  0  0  0  0  0  0  0  0  0  0
    6.7452    9.7434    4.9307 H   0  0  0  0  0  0  0  0  0  0  0  0
    7.7283    9.3306    3.5222 H   0  0  0  0  0  0  0  0  0  0  0  0
    6.3119    8.3857    1.8607 H   0  0  0  0  0  0  0  0  0  0  0  0
    4.5549    6.8183    1.1783 H   0  0  0  0  0  0  0  0  0  0  0  0
    5.1777    3.6977    3.3502 H   0  0  0  0  0  0  0  0  0  0  0  0
    5.0774    1.5099    4.4665 H   0  0  0  0  0  0  0  0  0  0  0  0
    1.9981    0.0842    5.9776 H   0  0  0  0  0  0  0  0  0  0  0  0
    3.7679    0.0242    6.0032 H   0  0  0  0  0  0  0  0  0  0  0  0
    2.8840   -0.5838    4.6066 H   0  0  0  0  0  0  0  0  0  0  0  0
    0.8451    1.8888    4.8429 H   0  0  0  0  0  0  0  0  0  0  0  0
    0.9425    4.0814    3.7325 H   0  0  0  0  0  0  0  0  0  0  0  0
    2.3874    7.7566    3.0913 H   0  0  0  0  0  0  0  0  0  0  0  0
   -0.2037   11.7597   -0.9959 H   0  0  0  0  0  0  0  0  0  0  0  0
    1.3139   13.1130    3.6422 H   0  0  0  0  0  0  0  0  0  0  0  0
   -0.6422   15.5612    2.2623 H   0  0  0  0  0  0  0  0  0  0  0  0
    1.9059   16.3267    2.1355 H   0  0  0  0  0  0  0  0  0  0  0  0
    0.4057   18.2730    1.2046 H   0  0  0  0  0  0  0  0  0  0  0  0
   -0.3949   17.6040   -1.2385 H   0  0  0  0  0  0  0  0  0  0  0  0
    0.6129   15.2464   -1.8124 H   0  0  0  0  0  0  0  0  0  0  0  0
    2.6500   16.1739   -0.4004 H   0  0  0  0  0  0  0  0  0  0  0  0
    2.2775   14.5314    0.1719 H   0  0  0  0  0  0  0  0  0  0  0  0
   -1.4284   14.9088   -0.1317 H   0  0  0  0  0  0  0  0  0  0  0  0
  1  2  2  0  0  0  0
  2  3  1  0  0  0  0
  3  4  2  0  0  0  0
  3  5  1  0  0  0  0
  5  6  2  0  0  0  0
  6  7  1  0  0  0  0
  7  8  2  0  0  0  0
  8  9  1  0  0  0  0
  9 10  2  0  0  0  0
 10 11  1  0  0  0  0
 11 12  2  0  0  0  0
 12 13  1  0  0  0  0
 13 14  3  0  0  0  0
 12 15  1  0  0  0  0
 15 16  3  0  0  0  0
  8 17  1  0  0  0  0
 17 18  1  0  0  0  0
 18 19  1  0  0  0  0
 19 20  2  0  0  0  0
 20 21  1  0  0  0  0
 21 22  1  0  0  0  0
 21 23  1  0  0  0  0
  1 24  1  0  0  0  0
 24 25  2  0  0  0  0
 25 26  1  0  0  0  0
 26 27  1  0  0  0  0
 27 28  2  0  0  0  0
 28 29  1  0  0  0  0
 29 30  2  0  0  0  0
 30 31  1  0  0  0  0
 30 32  1  0  0  0  0
 32 33  2  0  0  0  0
 26 34  1  0  0  0  0
 34 35  2  0  0  0  0
 35 36  1  0  0  0  0
 36 37  2  0  0  0  0
 37 38  1  0  0  0  0
 37 39  1  0  0  0  0
 39 40  2  0  0  0  0
 25 41  1  0  0  0  0
 41 42  1  0  0  0  0
 42 43  1  0  0  0  0
 43 44  2  0  0  0  0
 44 45  1  0  0  0  0
 45 46  1  0  0  0  0
 46 47  2  0  0  0  0
 47 48  1  0  0  0  0
 48 49  2  0  0  0  0
 49 50  1  0  0  0  0
 49 51  1  0  0  0  0
 51 52  2  0  0  0  0
 45 53  1  0  0  0  0
 53 54  2  0  0  0  0
 54 55  1  0  0  0  0
 55 56  2  0  0  0  0
 56 57  1  0  0  0  0
 56 58  1  0  0  0  0
 58 59  2  0  0  0  0
 44 60  1  0  0  0  0
 60 61  1  0  0  0  0
 43 62  1  0  0  0  0
 62 63  2  0  0  0  0
 63 64  1  0  0  0  0
 64 65  1  0  0  0  0
 65 66  2  0  0  0  0
 65 67  1  0  0  0  0
 67 68  1  0  0  0  0
 64 69  2  0  0  0  0
 69 70  1  0  0  0  0
 70 71  1  0  0  0  0
 70 72  1  0  0  0  0
 72 73  2  0  0  0  0
 69 74  1  0  0  0  0
 74 75  2  0  0  0  0
 75 76  1  0  0  0  0
 76 77  1  0  0  0  0
 77 78  2  0  0  0  0
 78 79  1  0  0  0  0
 79 80  2  0  0  0  0
 80 81  1  0  0  0  0
 80 82  1  0  0  0  0
 82 83  2  0  0  0  0
 76 84  1  0  0  0  0
 84 85  2  0  0  0  0
 85 86  1  0  0  0  0
 86 87  2  0  0  0  0
 87 88  1  0  0  0  0
 87 89  1  0  0  0  0
 89 90  2  0  0  0  0
 75 91  1  0  0  0  0
 91 92  1  0  0  0  0
 92 93  1  0  0  0  0
 93 94  2  0  0  0  0
 94 95  1  0  0  0  0
 95 96  1  0  0  0  0
 96 97  2  0  0  0  0
 97 98  1  0  0  0  0
 98 99  2  0  0  0  0
 99100  1  0  0  0  0
 99101  1  0  0  0  0
101102  2  0  0  0  0
 95103  1  0  0  0  0
103104  2  0  0  0  0
104105  1  0  0  0  0
105106  2  0  0  0  0
106107  1  0  0  0  0
106108  1  0  0  0  0
108109  2  0  0  0  0
 94110  1  0  0  0  0
110111  1  0  0  0  0
 93112  1  0  0  0  0
112113  2  0  0  0  0
113114  1  0  0  0  0
114115  2  0  0  0  0
114116  1  0  0  0  0
116117  2  0  0  0  0
117118  1  0  0  0  0
118119  2  0  0  0  0
119120  1  0  0  0  0
120121  2  0  0  0  0
121122  1  0  0  0  0
122123  2  0  0  0  0
123124  1  0  0  0  0
124125  3  0  0  0  0
123126  1  0  0  0  0
126127  3  0  0  0  0
119128  1  0  0  0  0
128129  1  0  0  0  0
129130  1  0  0  0  0
130131  2  0  0  0  0
131132  1  0  0  0  0
132133  1  0  0  0  0
132134  1  0  0  0  0
 11  2  1  0  0  0  0
 23 17  1  0  0  0  0
 61 24  1  0  0  0  0
 67 62  1  0  0  0  0
111 74  1  0  0  0  0
122113  1  0  0  0  0
134128  1  0  0  0  0
 10  5  1  0  0  0  0
 22 18  1  0  0  0  0
 33 27  1  0  0  0  0
 40 34  1  0  0  0  0
 60 41  2  0  0  0  0
 72 63  1  0  0  0  0
 83 77  1  0  0  0  0
 90 84  1  0  0  0  0
110 91  2  0  0  0  0
121116  1  0  0  0  0
133129  1  0  0  0  0
 23  7  1  0  0  0  0
 52 46  1  0  0  0  0
 59 53  1  0  0  0  0
102 96  1  0  0  0  0
109103  1  0  0  0  0
134118  1  0  0  0  0
  1135  1  0  0  0  0
  6136  1  0  0  0  0
  9137  1  0  0  0  0
 17138  1  0  0  0  0
 18139  1  0  0  0  0
 19140  1  0  0  0  0
 20141  1  0  0  0  0
 21142  1  0  0  0  0
 22143  1  0  0  0  0
 22144  1  0  0  0  0
 23145  1  0  0  0  0
 28146  1  0  0  0  0
 29147  1  0  0  0  0
 31148  1  0  0  0  0
 31149  1  0  0  0  0
 31150  1  0  0  0  0
 32151  1  0  0  0  0
 33152  1  0  0  0  0
 35153  1  0  0  0  0
 36154  1  0  0  0  0
 38155  1  0  0  0  0
 38156  1  0  0  0  0
 38157  1  0  0  0  0
 39158  1  0  0  0  0
 40159  1  0  0  0  0
 47160  1  0  0  0  0
 48161  1  0  0  0  0
 50162  1  0  0  0  0
 50163  1  0  0  0  0
 50164  1  0  0  0  0
 51165  1  0  0  0  0
 52166  1  0  0  0  0
 54167  1  0  0  0  0
 55168  1  0  0  0  0
 57169  1  0  0  0  0
 57170  1  0  0  0  0
 57171  1  0  0  0  0
 58172  1  0  0  0  0
 59173  1  0  0  0  0
 68174  1  0  0  0  0
 68175  1  0  0  0  0
 68176  1  0  0  0  0
 71177  1  0  0  0  0
 71178  1  0  0  0  0
 71179  1  0  0  0  0
 78180  1  0  0  0  0
 79181  1  0  0  0  0
 81182  1  0  0  0  0
 81183  1  0  0  0  0
 81184  1  0  0  0  0
 82185  1  0  0  0  0
 83186  1  0  0  0  0
 85187  1  0  0  0  0
 86188  1  0  0  0  0
 88189  1  0  0  0  0
 88190  1  0  0  0  0
 88191  1  0  0  0  0
 89192  1  0  0  0  0
 90193  1  0  0  0  0
 97194  1  0  0  0  0
 98195  1  0  0  0  0
100196  1  0  0  0  0
100197  1  0  0  0  0
100198  1  0  0  0  0
101199  1  0  0  0  0
102200  1  0  0  0  0
104201  1  0  0  0  0
105202  1  0  0  0  0
107203  1  0  0  0  0
107204  1  0  0  0  0
107205  1  0  0  0  0
108206  1  0  0  0  0
109207  1  0  0  0  0
112208  1  0  0  0  0
117209  1  0  0  0  0
120210  1  0  0  0  0
128211  1  0  0  0  0
129212  1  0  0  0  0
130213  1  0  0  0  0
131214  1  0  0  0  0
132215  1  0  0  0  0
133216  1  0  0  0  0
133217  1  0  0  0  0
134218  1  0  0  0  0
M  END
