
  xtb     02152201073D
 energy: -289.483968352775 gnorm: 0.000814800565 xtb: 6.4.1 (unknown)
166182  0     0  0            999 V2000
   -0.2246    4.5932   -4.1110 C   0  0  0  0  0  0  0  0  0  0  0  0
   -0.8489    5.7381   -3.7454 C   0  0  0  0  0  0  0  0  0  0  0  0
   -1.3417    6.7006   -4.7737 C   0  0  0  0  0  0  0  0  0  0  0  0
   -1.0446    6.7194   -5.9457 O   0  0  0  0  0  0  0  0  0  0  0  0
   -2.3055    7.5600   -4.0612 C   0  0  0  0  0  0  0  0  0  0  0  0
   -3.1611    8.5124   -4.6140 C   0  0  0  0  0  0  0  0  0  0  0  0
   -3.9738    9.1344   -3.6971 C   0  0  0  0  0  0  0  0  0  0  0  0
   -3.9497    8.8300   -2.3283 C   0  0  0  0  0  0  0  0  0  0  0  0
   -3.1088    7.9001   -1.7663 C   0  0  0  0  0  0  0  0  0  0  0  0
   -2.2679    7.2630   -2.6822 C   0  0  0  0  0  0  0  0  0  0  0  0
   -1.2567    6.2393   -2.4518 C   0  0  0  0  0  0  0  0  0  0  0  0
   -0.6209    6.0003   -1.2630 C   0  0  0  0  0  0  0  0  0  0  0  0
   -0.9020    6.7031   -0.0736 C   0  0  0  0  0  0  0  0  0  0  0  0
   -1.0643    7.2803    0.9055 N   0  0  0  0  0  0  0  0  0  0  0  0
    0.4737    5.1230   -1.1262 C   0  0  0  0  0  0  0  0  0  0  0  0
    1.3909    4.4501   -0.9696 N   0  0  0  0  0  0  0  0  0  0  0  0
   -5.0368    9.8243   -2.0062 C   0  0  0  0  0  0  0  0  0  0  0  0
   -4.5854   11.1516   -1.3610 C   0  0  0  0  0  0  0  0  0  0  0  0
   -5.7493   12.0852   -1.6029 C   0  0  0  0  0  0  0  0  0  0  0  0
   -5.7691   12.3781   -2.8969 C   0  0  0  0  0  0  0  0  0  0  0  0
   -4.6187   11.6475   -3.5515 C   0  0  0  0  0  0  0  0  0  0  0  0
   -3.5977   11.6846   -2.4070 C   0  0  0  0  0  0  0  0  0  0  0  0
   -5.0600   10.1686   -3.5302 C   0  0  0  0  0  0  0  0  0  0  0  0
   -0.1310    3.3892   -3.3547 C   0  0  0  0  0  0  0  0  0  0  0  0
   -1.1032    2.8246   -2.5417 C   0  0  0  0  0  0  0  0  0  0  0  0
   -2.3728    3.3873   -2.2973 N   0  0  0  0  0  0  0  0  0  0  0  0
   -2.6852    3.8815   -1.0266 C   0  0  0  0  0  0  0  0  0  0  0  0
   -3.8092    4.6940   -0.8739 C   0  0  0  0  0  0  0  0  0  0  0  0
   -4.1175    5.2363    0.3567 C   0  0  0  0  0  0  0  0  0  0  0  0
   -3.3160    5.0047    1.4690 C   0  0  0  0  0  0  0  0  0  0  0  0
   -3.6168    5.6402    2.7899 C   0  0  0  0  0  0  0  0  0  0  0  0
   -2.1944    4.2031    1.3084 C   0  0  0  0  0  0  0  0  0  0  0  0
   -1.8759    3.6474    0.0838 C   0  0  0  0  0  0  0  0  0  0  0  0
   -3.3995    2.8805   -3.1285 C   0  0  0  0  0  0  0  0  0  0  0  0
   -3.2525    2.9332   -4.5105 C   0  0  0  0  0  0  0  0  0  0  0  0
   -4.2446    2.4373   -5.3355 C   0  0  0  0  0  0  0  0  0  0  0  0
   -5.4000    1.8754   -4.8107 C   0  0  0  0  0  0  0  0  0  0  0  0
   -6.4723    1.3250   -5.7001 C   0  0  0  0  0  0  0  0  0  0  0  0
   -5.5321    1.8147   -3.4272 C   0  0  0  0  0  0  0  0  0  0  0  0
   -4.5474    2.3017   -2.5928 C   0  0  0  0  0  0  0  0  0  0  0  0
   -0.7159    1.5415   -2.1086 C   0  0  0  0  0  0  0  0  0  0  0  0
   -1.4744    0.3389   -1.1334 S   0  0  0  0  0  0  0  0  0  0  0  0
   -0.0255   -0.6460   -1.2090 C   0  0  0  0  0  0  0  0  0  0  0  0
    0.9615   -0.1039   -2.0238 C   0  0  0  0  0  0  0  0  0  0  0  0
    2.1343   -0.7315   -2.3764 N   0  0  0  0  0  0  0  0  0  0  0  0
    3.2805    0.0439   -2.6030 C   0  0  0  0  0  0  0  0  0  0  0  0
    3.5048    1.2055   -1.8669 C   0  0  0  0  0  0  0  0  0  0  0  0
    4.6256    1.9751   -2.1077 C   0  0  0  0  0  0  0  0  0  0  0  0
    5.5571    1.6050   -3.0696 C   0  0  0  0  0  0  0  0  0  0  0  0
    6.7628    2.4509   -3.3407 C   0  0  0  0  0  0  0  0  0  0  0  0
    5.3315    0.4377   -3.7913 C   0  0  0  0  0  0  0  0  0  0  0  0
    4.2078   -0.3333   -3.5716 C   0  0  0  0  0  0  0  0  0  0  0  0
    2.1918   -2.1331   -2.4589 C   0  0  0  0  0  0  0  0  0  0  0  0
    3.3059   -2.8308   -2.0037 C   0  0  0  0  0  0  0  0  0  0  0  0
    3.3386   -4.2107   -2.0603 C   0  0  0  0  0  0  0  0  0  0  0  0
    2.2658   -4.9329   -2.5637 C   0  0  0  0  0  0  0  0  0  0  0  0
    2.2889   -6.4289   -2.6189 C   0  0  0  0  0  0  0  0  0  0  0  0
    1.1635   -4.2286   -3.0374 C   0  0  0  0  0  0  0  0  0  0  0  0
    1.1243   -2.8506   -2.9957 C   0  0  0  0  0  0  0  0  0  0  0  0
    0.5494    1.1532   -2.5321 C   0  0  0  0  0  0  0  0  0  0  0  0
    1.2485    2.3356   -3.5760 S   0  0  0  0  0  0  0  0  0  0  0  0
    0.0525   -1.8567   -0.4340 C   0  0  0  0  0  0  0  0  0  0  0  0
   -1.0076   -2.7408   -0.3326 C   0  0  0  0  0  0  0  0  0  0  0  0
   -2.1437   -2.5057   -1.0113 F   0  0  0  0  0  0  0  0  0  0  0  0
   -0.9349   -3.9059    0.4335 C   0  0  0  0  0  0  0  0  0  0  0  0
   -2.0050   -4.7164    0.4495 F   0  0  0  0  0  0  0  0  0  0  0  0
    0.2152   -4.2736    1.1102 C   0  0  0  0  0  0  0  0  0  0  0  0
    1.3259   -3.3835    1.0364 C   0  0  0  0  0  0  0  0  0  0  0  0
    2.4478   -3.6608    1.7179 N   0  0  0  0  0  0  0  0  0  0  0  0
    3.4277   -2.7920    1.7430 C   0  0  0  0  0  0  0  0  0  0  0  0
    4.6706   -3.2289    2.4556 C   0  0  0  0  0  0  0  0  0  0  0  0
    5.5684   -4.0537    1.5281 C   0  0  0  0  0  0  0  0  0  0  0  0
    3.2617   -1.5070    1.1470 C   0  0  0  0  0  0  0  0  0  0  0  0
    2.1885   -1.2422    0.4429 N   0  0  0  0  0  0  0  0  0  0  0  0
    1.2250   -2.1676    0.3166 C   0  0  0  0  0  0  0  0  0  0  0  0
    4.2057   -0.3589    1.3517 C   0  0  0  0  0  0  0  0  0  0  0  0
    5.4837   -0.4457    0.5169 C   0  0  0  0  0  0  0  0  0  0  0  0
    0.2595   -5.4427    1.9507 C   0  0  0  0  0  0  0  0  0  0  0  0
   -1.0426   -5.7923    3.0309 S   0  0  0  0  0  0  0  0  0  0  0  0
   -0.1898   -7.1415    3.7629 C   0  0  0  0  0  0  0  0  0  0  0  0
    1.0511   -7.2843    3.1351 C   0  0  0  0  0  0  0  0  0  0  0  0
    2.3373   -8.4166    3.3440 S   0  0  0  0  0  0  0  0  0  0  0  0
    3.2164   -7.6753    2.0248 C   0  0  0  0  0  0  0  0  0  0  0  0
    4.5054   -8.2682    1.6539 C   0  0  0  0  0  0  0  0  0  0  0  0
    4.9695   -9.2373    2.2004 O   0  0  0  0  0  0  0  0  0  0  0  0
    5.0827   -7.6131    0.6398 O   0  0  0  0  0  0  0  0  0  0  0  0
    6.3436   -8.1154    0.1937 C   0  0  0  0  0  0  0  0  0  0  0  0
    7.4865   -7.6187    1.0666 C   0  0  0  0  0  0  0  0  0  0  0  0
    2.5493   -6.6134    1.4786 C   0  0  0  0  0  0  0  0  0  0  0  0
    1.3101   -6.3421    2.1131 C   0  0  0  0  0  0  0  0  0  0  0  0
    2.9900   -5.9435    0.4196 F   0  0  0  0  0  0  0  0  0  0  0  0
   -0.6198   -7.9786    4.7981 C   0  0  0  0  0  0  0  0  0  0  0  0
   -1.8053   -7.9774    5.4911 C   0  0  0  0  0  0  0  0  0  0  0  0
   -2.9101   -7.0415    5.2639 C   0  0  0  0  0  0  0  0  0  0  0  0
   -2.9463   -6.1185    4.4684 O   0  0  0  0  0  0  0  0  0  0  0  0
   -3.9790   -7.4316    6.1988 C   0  0  0  0  0  0  0  0  0  0  0  0
   -5.2294   -6.8670    6.3654 C   0  0  0  0  0  0  0  0  0  0  0  0
   -6.0781   -7.4128    7.3151 C   0  0  0  0  0  0  0  0  0  0  0  0
   -5.6449   -8.4994    8.0602 C   0  0  0  0  0  0  0  0  0  0  0  0
   -6.4792   -9.0173    8.9753 F   0  0  0  0  0  0  0  0  0  0  0  0
   -4.3928   -9.0819    7.9107 C   0  0  0  0  0  0  0  0  0  0  0  0
   -3.5486   -8.5327    6.9605 C   0  0  0  0  0  0  0  0  0  0  0  0
   -2.1875   -8.8887    6.5505 C   0  0  0  0  0  0  0  0  0  0  0  0
   -1.4373   -9.8952    7.0987 C   0  0  0  0  0  0  0  0  0  0  0  0
   -1.8860  -10.7417    8.1353 C   0  0  0  0  0  0  0  0  0  0  0  0
   -2.1869  -11.4626    8.9760 N   0  0  0  0  0  0  0  0  0  0  0  0
   -0.1173  -10.2320    6.7294 C   0  0  0  0  0  0  0  0  0  0  0  0
    0.9559  -10.5657    6.4946 N   0  0  0  0  0  0  0  0  0  0  0  0
    0.1567    4.5547   -5.1268 H   0  0  0  0  0  0  0  0  0  0  0  0
   -3.1584    8.7128   -5.6740 H   0  0  0  0  0  0  0  0  0  0  0  0
   -3.1042    7.6558   -0.7168 H   0  0  0  0  0  0  0  0  0  0  0  0
   -5.9363    9.4137   -1.5514 H   0  0  0  0  0  0  0  0  0  0  0  0
   -4.2317   11.0623   -0.3377 H   0  0  0  0  0  0  0  0  0  0  0  0
   -6.4482   12.3825   -0.8433 H   0  0  0  0  0  0  0  0  0  0  0  0
   -6.4880   12.9688   -3.4339 H   0  0  0  0  0  0  0  0  0  0  0  0
   -4.2969   12.0130   -4.5229 H   0  0  0  0  0  0  0  0  0  0  0  0
   -3.2680   12.6975   -2.1826 H   0  0  0  0  0  0  0  0  0  0  0  0
   -2.7306   11.0458   -2.5638 H   0  0  0  0  0  0  0  0  0  0  0  0
   -5.9755    9.9898   -4.0912 H   0  0  0  0  0  0  0  0  0  0  0  0
   -4.4336    4.8995   -1.7314 H   0  0  0  0  0  0  0  0  0  0  0  0
   -4.9938    5.8622    0.4511 H   0  0  0  0  0  0  0  0  0  0  0  0
   -4.6571    5.9510    2.8475 H   0  0  0  0  0  0  0  0  0  0  0  0
   -3.4050    4.9540    3.6071 H   0  0  0  0  0  0  0  0  0  0  0  0
   -2.9858    6.5202    2.9180 H   0  0  0  0  0  0  0  0  0  0  0  0
   -1.5508    4.0124    2.1546 H   0  0  0  0  0  0  0  0  0  0  0  0
   -0.9937    3.0325   -0.0032 H   0  0  0  0  0  0  0  0  0  0  0  0
   -2.3645    3.3702   -4.9413 H   0  0  0  0  0  0  0  0  0  0  0  0
   -4.1145    2.4930   -6.4067 H   0  0  0  0  0  0  0  0  0  0  0  0
   -7.4513    1.6847   -5.3887 H   0  0  0  0  0  0  0  0  0  0  0  0
   -6.4846    0.2365   -5.6430 H   0  0  0  0  0  0  0  0  0  0  0  0
   -6.3052    1.6123   -6.7350 H   0  0  0  0  0  0  0  0  0  0  0  0
   -6.4160    1.3664   -2.9970 H   0  0  0  0  0  0  0  0  0  0  0  0
   -4.6591    2.2300   -1.5211 H   0  0  0  0  0  0  0  0  0  0  0  0
    2.8055    1.4969   -1.0989 H   0  0  0  0  0  0  0  0  0  0  0  0
    4.7780    2.8757   -1.5320 H   0  0  0  0  0  0  0  0  0  0  0  0
    6.5541    3.1438   -4.1564 H   0  0  0  0  0  0  0  0  0  0  0  0
    7.0323    3.0354   -2.4644 H   0  0  0  0  0  0  0  0  0  0  0  0
    7.6118    1.8365   -3.6325 H   0  0  0  0  0  0  0  0  0  0  0  0
    6.0426    0.1323   -4.5454 H   0  0  0  0  0  0  0  0  0  0  0  0
    4.0405   -1.2298   -4.1501 H   0  0  0  0  0  0  0  0  0  0  0  0
    4.1441   -2.2862   -1.5958 H   0  0  0  0  0  0  0  0  0  0  0  0
    4.2062   -4.7351   -1.6898 H   0  0  0  0  0  0  0  0  0  0  0  0
    1.3859   -6.8394   -2.1698 H   0  0  0  0  0  0  0  0  0  0  0  0
    3.1524   -6.8209   -2.0892 H   0  0  0  0  0  0  0  0  0  0  0  0
    2.3293   -6.7687   -3.6539 H   0  0  0  0  0  0  0  0  0  0  0  0
    0.3248   -4.7695   -3.4516 H   0  0  0  0  0  0  0  0  0  0  0  0
    0.2639   -2.3228   -3.3805 H   0  0  0  0  0  0  0  0  0  0  0  0
    5.2209   -2.3667    2.8316 H   0  0  0  0  0  0  0  0  0  0  0  0
    4.3745   -3.8550    3.2990 H   0  0  0  0  0  0  0  0  0  0  0  0
    5.0531   -4.9514    1.2020 H   0  0  0  0  0  0  0  0  0  0  0  0
    6.4744   -4.3406    2.0574 H   0  0  0  0  0  0  0  0  0  0  0  0
    5.8465   -3.4839    0.6443 H   0  0  0  0  0  0  0  0  0  0  0  0
    4.4671   -0.2953    2.4108 H   0  0  0  0  0  0  0  0  0  0  0  0
    3.6686    0.5483    1.0733 H   0  0  0  0  0  0  0  0  0  0  0  0
    6.0844   -1.3068    0.7941 H   0  0  0  0  0  0  0  0  0  0  0  0
    6.0788    0.4505    0.6741 H   0  0  0  0  0  0  0  0  0  0  0  0
    5.2431   -0.5060   -0.5412 H   0  0  0  0  0  0  0  0  0  0  0  0
    6.3101   -9.2097    0.2030 H   0  0  0  0  0  0  0  0  0  0  0  0
    6.4422   -7.7524   -0.8313 H   0  0  0  0  0  0  0  0  0  0  0  0
    7.5052   -6.5317    1.0804 H   0  0  0  0  0  0  0  0  0  0  0  0
    8.4289   -7.9862    0.6713 H   0  0  0  0  0  0  0  0  0  0  0  0
    7.3646   -7.9868    2.0823 H   0  0  0  0  0  0  0  0  0  0  0  0
    0.1160   -8.7294    5.0629 H   0  0  0  0  0  0  0  0  0  0  0  0
   -5.5263   -6.0224    5.7637 H   0  0  0  0  0  0  0  0  0  0  0  0
   -7.0650   -7.0134    7.4868 H   0  0  0  0  0  0  0  0  0  0  0  0
   -4.1246   -9.9252    8.5249 H   0  0  0  0  0  0  0  0  0  0  0  0
  1  2  2  0  0  0  0
  2  3  1  0  0  0  0
  3  4  2  0  0  0  0
  3  5  1  0  0  0  0
  5  6  2  0  0  0  0
  6  7  1  0  0  0  0
  7  8  2  0  0  0  0
  8  9  1  0  0  0  0
  9 10  2  0  0  0  0
 10 11  1  0  0  0  0
 11 12  2  0  0  0  0
 12 13  1  0  0  0  0
 13 14  3  0  0  0  0
 12 15  1  0  0  0  0
 15 16  3  0  0  0  0
  8 17  1  0  0  0  0
 17 18  1  0  0  0  0
 18 19  1  0  0  0  0
 19 20  2  0  0  0  0
 20 21  1  0  0  0  0
 21 22  1  0  0  0  0
 21 23  1  0  0  0  0
  1 24  1  0  0  0  0
 24 25  2  0  0  0  0
 25 26  1  0  0  0  0
 26 27  1  0  0  0  0
 27 28  2  0  0  0  0
 28 29  1  0  0  0  0
 29 30  2  0  0  0  0
 30 31  1  0  0  0  0
 30 32  1  0  0  0  0
 32 33  2  0  0  0  0
 26 34  1  0  0  0  0
 34 35  2  0  0  0  0
 35 36  1  0  0  0  0
 36 37  2  0  0  0  0
 37 38  1  0  0  0  0
 37 39  1  0  0  0  0
 39 40  2  0  0  0  0
 25 41  1  0  0  0  0
 41 42  1  0  0  0  0
 42 43  1  0  0  0  0
 43 44  2  0  0  0  0
 44 45  1  0  0  0  0
 45 46  1  0  0  0  0
 46 47  2  0  0  0  0
 47 48  1  0  0  0  0
 48 49  2  0  0  0  0
 49 50  1  0  0  0  0
 49 51  1  0  0  0  0
 51 52  2  0  0  0  0
 45 53  1  0  0  0  0
 53 54  2  0  0  0  0
 54 55  1  0  0  0  0
 55 56  2  0  0  0  0
 56 57  1  0  0  0  0
 56 58  1  0  0  0  0
 58 59  2  0  0  0  0
 44 60  1  0  0  0  0
 60 61  1  0  0  0  0
 43 62  1  0  0  0  0
 62 63  2  0  0  0  0
 63 64  1  0  0  0  0
 63 65  1  0  0  0  0
 65 66  1  0  0  0  0
 65 67  2  0  0  0  0
 67 68  1  0  0  0  0
 68 69  2  0  0  0  0
 69 70  1  0  0  0  0
 70 71  1  0  0  0  0
 71 72  1  0  0  0  0
 70 73  2  0  0  0  0
 73 74  1  0  0  0  0
 74 75  2  0  0  0  0
 73 76  1  0  0  0  0
 76 77  1  0  0  0  0
 67 78  1  0  0  0  0
 78 79  1  0  0  0  0
 79 80  1  0  0  0  0
 80 81  2  0  0  0  0
 81 82  1  0  0  0  0
 82 83  1  0  0  0  0
 83 84  1  0  0  0  0
 84 85  2  0  0  0  0
 84 86  1  0  0  0  0
 86 87  1  0  0  0  0
 87 88  1  0  0  0  0
 83 89  2  0  0  0  0
 89 90  1  0  0  0  0
 89 91  1  0  0  0  0
 80 92  1  0  0  0  0
 92 93  2  0  0  0  0
 93 94  1  0  0  0  0
 94 95  2  0  0  0  0
 94 96  1  0  0  0  0
 96 97  2  0  0  0  0
 97 98  1  0  0  0  0
 98 99  2  0  0  0  0
 99100  1  0  0  0  0
 99101  1  0  0  0  0
101102  2  0  0  0  0
102103  1  0  0  0  0
103104  2  0  0  0  0
104105  1  0  0  0  0
105106  3  0  0  0  0
104107  1  0  0  0  0
107108  3  0  0  0  0
 11  2  1  0  0  0  0
 23 17  1  0  0  0  0
 61 24  1  0  0  0  0
 75 62  1  0  0  0  0
 90 78  2  0  0  0  0
103 93  1  0  0  0  0
 10  5  1  0  0  0  0
 22 18  1  0  0  0  0
 33 27  1  0  0  0  0
 40 34  1  0  0  0  0
 60 41  2  0  0  0  0
 75 68  1  0  0  0  0
 90 81  1  0  0  0  0
102 96  1  0  0  0  0
 23  7  1  0  0  0  0
 52 46  1  0  0  0  0
 59 53  1  0  0  0  0
  1109  1  0  0  0  0
  6110  1  0  0  0  0
  9111  1  0  0  0  0
 17112  1  0  0  0  0
 18113  1  0  0  0  0
 19114  1  0  0  0  0
 20115  1  0  0  0  0
 21116  1  0  0  0  0
 22117  1  0  0  0  0
 22118  1  0  0  0  0
 23119  1  0  0  0  0
 28120  1  0  0  0  0
 29121  1  0  0  0  0
 31122  1  0  0  0  0
 31123  1  0  0  0  0
 31124  1  0  0  0  0
 32125  1  0  0  0  0
 33126  1  0  0  0  0
 35127  1  0  0  0  0
 36128  1  0  0  0  0
 38129  1  0  0  0  0
 38130  1  0  0  0  0
 38131  1  0  0  0  0
 39132  1  0  0  0  0
 40133  1  0  0  0  0
 47134  1  0  0  0  0
 48135  1  0  0  0  0
 50136  1  0  0  0  0
 50137  1  0  0  0  0
 50138  1  0  0  0  0
 51139  1  0  0  0  0
 52140  1  0  0  0  0
 54141  1  0  0  0  0
 55142  1  0  0  0  0
 57143  1  0  0  0  0
 57144  1  0  0  0  0
 57145  1  0  0  0  0
 58146  1  0  0  0  0
 59147  1  0  0  0  0
 71148  1  0  0  0  0
 71149  1  0  0  0  0
 72150  1  0  0  0  0
 72151  1  0  0  0  0
 72152  1  0  0  0  0
 76153  1  0  0  0  0
 76154  1  0  0  0  0
 77155  1  0  0  0  0
 77156  1  0  0  0  0
 77157  1  0  0  0  0
 87158  1  0  0  0  0
 87159  1  0  0  0  0
 88160  1  0  0  0  0
 88161  1  0  0  0  0
 88162  1  0  0  0  0
 92163  1  0  0  0  0
 97164  1  0  0  0  0
 98165  1  0  0  0  0
101166  1  0  0  0  0
M  END
