254

C          2.03050        4.20320        6.98830
C          3.23830        3.76110        7.48940
C          4.22390        3.02230        6.69170
O          4.12150        2.66670        5.52820
C          5.42870        2.91140        7.53660
C          6.62970        2.29120        7.20860
C          7.57170        2.33120        8.20940
C          7.33850        2.95060        9.44270
C          6.15580        3.56880        9.77770
C          5.18490        3.53390        8.77610
C          3.81710        4.05160        8.76960
C          3.14800        4.57880        9.84770
C          1.78610        4.93760        9.82750
N          0.67450        5.22150        9.89110
C          3.70860        4.75540       11.12520
N          4.10200        4.90680       12.19450
C          8.71820        2.62390        9.95830
C          9.77220        3.75840        9.97280
C          9.37620        4.72640        8.88600
C          9.59630        4.13660        7.71860
C         10.14500        2.75870        7.99530
C         10.94000        3.03720        9.28080
C          8.97690        1.92970        8.58390
C          1.35580        3.62810        5.91110
C          1.40200        2.31590        5.38720
N          1.90350        1.21890        6.00940
C          2.16340        1.16400        7.38990
C          3.34080        0.57190        7.83820
C          3.62780        0.53220        9.19030
C          2.75010        1.06390       10.12480
C          3.07230        1.06120       11.58560
C          1.55220        1.61130        9.66880
C          1.25770        1.66490        8.32310
C          2.16100        0.03110        5.28170
C          1.62470       -1.17150        5.73150
C          1.87920       -2.33820        5.03980
C          2.67380       -2.33380        3.89740
C          2.93480       -3.61130        3.16240
C          3.22670       -1.13120        3.47740
C          2.97350        0.04570        4.15610
C          0.70390        2.26040        4.15570
S          0.44770        1.03210        2.96490
C         -0.52140        2.13350        2.00450
C         -0.67070        3.36540        2.59400
N         -1.54340        4.36740        2.12550
C         -1.05180        5.48510        1.45040
C         -1.91040        6.25000        0.66130
C         -1.43390        7.34430       -0.02870
C         -0.09080        7.69890        0.01290
C          0.42820        8.86360       -0.77280
C          0.75890        6.92800        0.79340
C          0.29040        5.84570        1.51350
C         -2.80260        4.39230        2.75710
C         -3.51030        3.20930        2.94860
C         -4.73930        3.22450        3.58130
C         -5.29690        4.40890        4.04060
C         -6.62490        4.43140        4.73390
C         -4.57730        5.58540        3.85850
C         -3.34670        5.58300        3.23570
C          0.04610        3.43340        3.81270
S          0.26510        4.67430        4.98520
C         -1.03320        1.65770        0.74390
C         -0.64190        2.05300       -0.51590
N          0.39520        2.96460       -0.72240
C          1.62800        2.61230       -0.14350
C          2.47150        3.56330        0.42140
C          3.64860        3.18700        1.04010
C          4.01950        1.84990        1.08490
S          5.52000        1.26030        1.80670
C          6.07070        2.62430        2.86840
C          3.19470        0.89810        0.49050
C          2.01270        1.27090       -0.10640
C          0.23170        4.02750       -1.60030
C         -1.04730        4.51350       -1.86330
C         -1.23640        5.58410       -2.71240
C         -0.14600        6.19530       -3.31220
S         -0.27370        7.57980       -4.41190
C         -1.88100        8.30810       -3.98130
C          1.13150        5.69520       -3.07920
C          1.32080        4.62060       -2.24070
C         -1.22590        1.23290       -1.51680
S         -1.05550        1.10440       -3.23540
C         -1.88590       -0.44790       -3.22090
C         -2.31610       -0.79350       -1.95830
N         -2.92500       -2.00600       -1.64270
C         -2.44960       -2.65300       -0.50200
C         -1.08890       -2.56470       -0.19440
C         -0.61100       -3.03160        1.01040
C         -1.48130       -3.63290        1.90510
S         -0.89140       -4.13250        3.51410
C         -1.50370       -2.69060        4.43970
C         -2.81560       -3.80980        1.57170
C         -3.30390       -3.31450        0.37980
C         -4.05640       -2.43090       -2.34810
C         -4.94440       -1.50090       -2.88090
C         -6.09100       -1.91230       -3.53190
C         -6.36780       -3.26600       -3.66400
S         -7.82320       -3.90680       -4.42770
C         -8.70310       -2.43030       -5.01080
C         -5.45980       -4.20100       -3.16880
C         -4.31600       -3.79020       -2.52180
C         -1.97060        0.18740       -0.99910
S         -2.08170        0.25290        0.72260
C         -1.81840       -1.42180       -4.28460
C         -2.44220       -1.54040       -5.50780
N         -3.38020       -0.66810       -6.02120
C         -4.47050       -1.17090       -6.74710
C         -4.98100       -2.43940       -6.47900
C         -6.03760       -2.93670       -7.21600
C         -6.63830       -2.18060       -8.21380
C         -7.78760       -2.72270       -9.00750
C         -6.13150       -0.91120       -8.46840
C         -5.05720       -0.41310       -7.75890
C         -3.19990        0.71910       -5.88820
C         -1.96200        1.29550       -6.15750
C         -1.81020        2.66710       -6.10310
C         -2.88130        3.49300       -5.78540
C         -2.73070        4.98100       -5.81710
C         -4.10410        2.90580       -5.48230
C         -4.26710        1.53570       -5.52840
C         -2.05870       -2.74820       -6.15220
S         -2.38340       -3.41400       -7.70370
C         -1.45330       -4.86310       -7.30820
C         -0.83850       -4.76660       -6.04460
N          0.05340       -5.64580       -5.48290
C          0.25600       -5.62530       -4.07720
C         -0.81620       -5.71470       -3.19540
C         -0.58890       -5.77440       -1.83300
C          0.70040       -5.75130       -1.31790
C          0.95760       -5.90300        0.14750
C          1.76260       -5.62300       -2.20720
C          1.54980       -5.55710       -3.56850
C          0.94340       -6.43070       -6.23360
C          1.38420       -7.65010       -5.71680
C          2.26310       -8.43730       -6.43330
C          2.71030       -8.05240       -7.69120
C          3.63600       -8.91790       -8.48660
C          2.28590       -6.82490       -8.19040
C          1.42730       -6.01730       -7.47310
C         -1.21030       -3.55590       -5.41290
S         -0.78680       -2.80640       -3.91760
C         -1.44670       -5.85860       -8.29710
C         -1.18190       -7.19820       -8.18740
C         -0.70280       -7.95750       -9.37300
O         -0.64410       -7.57540      -10.51960
C         -0.26270       -9.23420       -8.80530
S          0.50900      -10.64320       -9.39210
C          0.44900      -11.32040       -7.79180
Br         1.18680      -13.01220       -7.47080
C         -0.14230      -10.51380       -6.85920
C         -0.54020       -9.30270       -7.44880
C         -1.19230       -8.06870       -7.04280
C         -1.88260       -7.88710       -5.86640
C         -1.78070       -8.79870       -4.80020
N         -1.66620       -9.51120       -3.90690
C         -2.79010       -6.83790       -5.65060
N         -3.57420       -6.02270       -5.44580
H          1.58410        5.09580        7.40940
H          6.76870        1.82030        6.24760
H          5.99140        4.04640       10.72940
H          8.75970        2.00960       10.85570
H          9.95910        4.18810       10.95330
H          8.93590        5.68850        9.07220
H          9.37620        4.50790        6.73470
H         10.67230        2.27810        7.17510
H         11.79750        3.68740        9.11370
H         11.25920        2.13320        9.79780
H          9.18570        0.86130        8.58460
H          4.03160        0.15470        7.12090
H          4.55640        0.08910        9.51960
H          3.94120        0.44180       11.79190
H          3.28580        2.07460       11.92690
H          2.22770        0.69130       12.16390
H          0.84350        2.00730       10.38120
H          0.32520        2.09700        7.99210
H          1.00790       -1.18010        6.61890
H          1.45340       -3.26940        5.38230
H          3.32630       -3.41460        2.16700
H          2.02000       -4.19640        3.08440
H          3.66650       -4.21150        3.70310
H          3.87960       -1.10970        2.61820
H          3.41990        0.97540        3.84280
H         -2.95470        5.98200        0.59910
H         -2.12510        7.93660       -0.61240
H         -0.33460        9.63170       -0.88230
H          1.29860        9.30080       -0.28920
H          0.72800        8.53800       -1.76980
H          1.80580        7.19170        0.85530
H          0.96470        5.28470        2.14240
H         -3.10140        2.27260        2.60030
H         -5.27260        2.29400        3.71510
H         -7.27350        5.18840        4.29600
H         -6.49500        4.67550        5.78820
H         -7.11730        3.46480        4.66320
H         -4.98290        6.51780        4.22400
H         -2.79470        6.50440        3.12490
H          2.19990        4.60510        0.37260
H          4.26930        3.94870        1.48450
H          6.96410        2.25750        3.36490
H          5.30480        2.84970        3.60590
H          6.32190        3.49410        2.26840
H          3.49340       -0.13820        0.49350
H          1.38380        0.51770       -0.55740
H         -1.90070        4.05520       -1.38650
H         -2.23900        5.93780       -2.88820
H         -2.69050        7.70830       -4.38610
H         -1.89130        9.29290       -4.43770
H         -1.95510        8.39440       -2.90240
H          1.97510        6.15750       -3.56910
H          2.31510        4.23250       -2.08310
H         -0.41310       -2.10470       -0.90000
H          0.43020       -2.91750        1.26830
H         -1.28430       -2.86930        5.48660
H         -2.57540       -2.59830        4.28970
H         -0.98770       -1.79940        4.09220
H         -3.47830       -4.30850        2.26310
H         -4.35260       -3.40920        0.14200
H         -4.74330       -0.44500       -2.77050
H         -6.76290       -1.16550       -3.92290
H         -9.59200       -2.80050       -5.51220
H         -8.99070       -1.80970       -4.16700
H         -8.08110       -1.88590       -5.71610
H         -5.65870       -5.25210       -3.30710
H         -3.61500       -4.51800       -2.14250
H         -4.55570       -3.04330       -5.69270
H         -6.40440       -3.92840       -6.99780
H         -8.26790       -3.54370       -8.48070
H         -7.43380       -3.09740       -9.96830
H         -8.52490       -1.94640       -9.20390
H         -6.57670       -0.30600       -9.24530
H         -4.66600        0.56640       -7.99030
H         -1.12800        0.66340       -6.42640
H         -0.84830        3.10550       -6.32440
H         -3.48430        5.45690       -5.19360
H         -2.85950        5.34450       -6.83760
H         -1.73980        5.27520       -5.48150
H         -4.94410        3.53040       -5.21310
H         -5.22420        1.08750       -5.30490
H         -1.82490       -5.75040       -3.57720
H         -1.42820       -5.85920       -1.15850
H          1.74520       -5.22800        0.47410
H          1.28560       -6.92130        0.35770
H          0.06050       -5.70900        0.72840
H          2.77290       -5.58130       -1.82710
H          2.38530       -5.46340       -4.24690
H          1.02860       -7.98190       -4.75220
H          2.59230       -9.37580       -6.01170
H          3.68070       -9.92380       -8.07610
H          3.31320       -8.97120       -9.52480
H          4.64280       -8.50020       -8.47410
H          2.63600       -6.49450       -9.15700
H          1.13550       -5.05850       -7.87330
H         -1.63180       -5.51020       -9.30870
H         -0.26260      -10.78040       -5.82530
