224

C         -0.74850        8.65210        0.55530
C         -1.46410        9.40680       -0.35540
C         -1.90370        8.90780       -1.66150
O         -1.77820        7.77910       -2.11290
C         -2.41710       10.08300       -2.39280
C         -2.91310       10.11300       -3.69170
C         -3.30960       11.36110       -4.11100
C         -3.21070       12.49770       -3.30080
C         -2.72190       12.48050       -2.01450
C         -2.31980       11.22090       -1.56940
C         -1.75660       10.80860       -0.28420
C         -1.66810       11.58680        0.84550
C         -2.08050       12.92860        0.92050
N         -2.41880       14.01940        1.05200
C         -1.23140       11.10810        2.09570
N         -0.91290       10.77940        3.14990
C         -3.75690       13.40770       -4.37330
C         -2.75040       14.28930       -5.15330
C         -1.42520       13.56980       -5.11150
C         -1.52510       12.49190       -5.87770
C         -2.92020       12.46320       -6.45140
C         -3.18580       13.97030       -6.59260
C         -3.87320       12.13820       -5.27470
C         -0.76890        7.26250        0.63860
C         -1.74590        6.32570        0.22800
N         -3.04060        6.59120       -0.06870
C         -3.69330        7.78970        0.26910
C         -3.53190        8.36510        1.52870
C         -4.15770        9.55490        1.83270
C         -4.95810       10.20890        0.89820
C         -5.58280       11.52780        1.22740
C         -5.14970        9.60590       -0.33660
C         -4.53600        8.40680       -0.65040
C         -3.85000        5.60370       -0.70580
C         -3.84930        5.48360       -2.08770
C         -4.70230        4.58170       -2.69520
C         -5.54350        3.77020       -1.94180
C         -6.47380        2.81050       -2.61600
C         -5.51940        3.89000       -0.55830
C         -4.69240        4.80940        0.06000
C         -1.21570        5.01660        0.28340
S         -1.77330        3.46870       -0.24810
C         -0.26270        2.71260        0.25800
C          0.60710        3.62610        0.84180
N          1.85670        3.35150        1.37700
C          2.83510        2.66220        0.65420
C          3.88040        2.02760        1.32080
C          4.88070        1.40080        0.60600
C          4.84640        1.34400       -0.78110
C          5.92210        0.64770       -1.55800
C          3.78420        1.95430       -1.43770
C          2.79930        2.62020       -0.73730
C          2.19170        4.05360        2.55070
C          3.41650        4.69790        2.69390
C          3.69590        5.40330        3.84750
C          2.76850        5.49670        4.87810
C          3.05930        6.29810        6.10920
C          1.54790        4.84950        4.72670
C          1.26020        4.13260        3.58330
C          0.05700        4.92800        0.82820
S          0.67080        6.46700        1.30490
C         -0.14140        1.30250        0.12530
C         -0.87500        0.50210       -0.74140
N         -1.65090        0.96910       -1.79970
C         -1.10870        1.89300       -2.69550
C         -1.92510        2.85500       -3.29120
C         -1.37380        3.84860       -4.07050
C         -0.00270        3.89320       -4.26930
S          0.72000        5.25990       -5.16250
C          0.73370        6.46100       -3.79310
C          0.80730        2.90050       -3.74240
C          0.25980        1.90330       -2.95920
C         -2.94540        0.46380       -1.94460
C         -3.71090        0.18010       -0.81290
C         -4.98360       -0.32560       -0.94410
C         -5.52630       -0.55580       -2.20630
S         -7.18060       -1.17750       -2.24770
C         -7.60030       -1.19120       -4.01320
C         -4.76510       -0.28530       -3.33510
C         -3.48530        0.21650       -3.20330
C         -0.69860       -0.86590       -0.45180
S         -1.39840       -2.31210       -1.08510
C         -0.43120       -3.27120        0.02270
C          0.34340       -2.49810        0.87310
N          1.09240       -2.98650        1.93460
C          2.38250       -2.48120        2.14480
C          2.88280       -2.35840        3.43730
C          4.17050       -1.90940        3.65450
C          4.98120       -1.58110        2.57690
S          6.65400       -1.03130        2.73010
C          6.99430       -1.12890        4.50890
C          4.47830       -1.68740        1.28210
C          3.19130       -2.12420        1.06690
C          0.65540       -4.12020        2.63450
C          1.54740       -5.12400        3.00650
C          1.09170       -6.31500        3.53670
C         -0.26970       -6.52430        3.70710
S         -0.98360       -8.05620        4.22070
C          0.43510       -9.17600        4.36970
C         -1.15700       -5.48680        3.43060
C         -0.70200       -4.29810        2.90570
C          0.19170       -1.11940        0.58030
S          0.84810        0.34820        1.22650
C         -0.53800       -4.70010        0.02050
S          0.92370       -5.67580        0.00140
C         -0.02060       -7.09550        0.25180
C          0.12070       -8.45600        0.50620
C         -1.19690       -8.96220        0.68080
N         -2.10830       -7.94580        0.54520
C         -3.53910       -8.06830        0.64490
C         -4.16820       -8.43120       -0.69860
C         -1.40300       -6.80710        0.27350
C         -1.68800       -5.44590        0.11290
C         -1.22000      -10.31470        0.95930
C          0.06450      -10.86890        1.00330
S          1.32680       -9.66590        0.70800
C          0.26180      -12.23790        1.22060
C          1.41520      -12.98140        1.26160
C          2.77930      -12.45870        1.13960
O          3.12330      -11.29290        1.04020
C          3.67630      -13.62640        1.17490
C          5.06440      -13.62010        1.05960
C          5.63350      -14.87020        1.10200
C          4.87730      -16.03960        1.25420
C          3.50800      -16.05810        1.37760
C          2.90700      -14.79640        1.33170
C          1.49520      -14.41950        1.41160
C          0.45400      -15.29590        1.59250
C         -0.91080      -14.95280        1.67650
N         -2.04260      -14.76840        1.75710
C          0.59740      -16.69200        1.72940
N          0.63060      -17.83400        1.84780
C          6.09370      -16.93000        1.19310
C          6.33730      -17.67010       -0.13920
C          7.79760      -18.05610       -0.07720
C          8.51420      -16.94870       -0.22100
C          7.55030      -15.79550       -0.38270
C          6.41520      -16.50400       -1.13320
C          6.93700      -15.62560        1.02370
H         -0.05830        9.15790        1.21980
H         -2.96660        9.21640       -4.29000
H         -2.64200       13.36450       -1.40370
H         -4.67140       13.94390       -4.12650
H         -2.73880       15.33380       -4.85340
H         -0.59580       13.87740       -4.50200
H         -0.79610       11.71890       -6.03630
H         -3.06360       11.84470       -7.33380
H         -2.54940       14.44210       -7.34000
H         -4.22920       14.21020       -6.79360
H         -4.86520       11.84390       -5.61320
H         -2.90950        7.88130        2.26630
H         -4.01660        9.99160        2.81050
H         -6.30400       11.81790        0.46780
H         -4.81810       12.30290        1.28700
H         -6.08290       11.48500        2.19320
H         -5.77920       10.08370       -1.07330
H         -4.69730        7.95410       -1.61660
H         -3.18240        6.10710       -2.66260
H         -4.72180        4.50940       -3.77370
H         -5.99630        2.35640       -3.48210
H         -6.78380        2.02470       -1.93230
H         -7.36520        3.33690       -2.95920
H         -6.16250        3.26310        0.04130
H         -4.69280        4.91250        1.13520
H          3.91010        2.03980        2.39980
H          5.70380        0.94870        1.13770
H          6.70820        0.29160       -0.89670
H          6.36250        1.32300       -2.29040
H          5.50980       -0.20340       -2.10040
H          3.74240        1.92680       -2.51750
H          2.00370        3.12460       -1.26560
H          4.14130        4.65210        1.89490
H          4.64890        5.90340        3.94200
H          2.62310        5.83000        6.98920
H          2.62770        7.29480        6.01170
H          4.13050        6.40690        6.26000
H          0.81350        4.90630        5.51720
H          0.31020        3.62780        3.47970
H         -2.98550        2.83860       -3.09630
H         -2.00070        4.61000       -4.50750
H          1.14600        7.38100       -4.19450
H          1.36880        6.08510       -2.99530
H         -0.27500        6.63070       -3.42750
H          1.86820        2.92130       -3.93940
H          0.89440        1.14020       -2.53290
H         -3.30210        0.37370        0.16740
H         -5.57960       -0.53970       -0.06990
H         -8.63760       -1.50750       -4.06380
H         -7.49900       -0.19120       -4.42450
H         -6.97310       -1.90320       -4.54170
H         -5.15050       -0.47040       -4.32490
H         -2.89420        0.41260       -4.08540
H          2.25760       -2.62520        4.27650
H          4.52630       -1.82440        4.66860
H          6.85460       -2.14810        4.85730
H          8.03440       -0.83930        4.62320
H          6.35780       -0.43390        5.04920
H          5.11390       -1.44450        0.44630
H          2.81500       -2.22110        0.05950
H          2.60390       -4.99190        2.82920
H          1.80900       -7.08290        3.77540
H          0.97760       -9.21870        3.42970
H          0.01460      -10.15090        4.59700
H          1.07870       -8.85360        5.18320
H         -2.21070       -5.63540        3.61120
H         -1.40060       -3.50870        2.67150
H         -3.76260       -8.83810        1.38800
H         -3.93730       -7.11540        1.00240
H         -5.24580       -8.51900       -0.59330
H         -3.94970       -7.66340       -1.43720
H         -3.77350       -9.37900       -1.05660
H         -2.66670       -5.00190        0.12440
H         -2.10150      -10.90800        1.12430
H         -0.66740      -12.77940        1.34980
H          5.60620      -12.69430        0.94500
H          2.94420      -16.96780        1.49680
H          6.27020      -17.55540        2.06610
H          5.62900      -18.46560       -0.35380
H          8.14670      -19.05380        0.11410
H          9.58150      -16.83640       -0.17380
H          7.94740      -14.88320       -0.81980
H          5.49930      -15.92060       -1.20620
H          6.71930      -16.82970       -2.12660
H          7.67650      -15.38080        1.78400
