272

C         -5.42280       -4.26700        6.03330
C         -6.69670       -3.89080        6.40950
C         -7.29160       -2.56710        6.23960
O         -6.80930       -1.58770        5.69050
C         -8.59940       -2.61050        6.92120
C         -9.53180       -1.58090        7.01500
C        -10.67710       -1.92330        7.69350
C        -10.87680       -3.19570        8.24160
C         -9.95990       -4.21820        8.16330
C         -8.78850       -3.89100        7.47580
C         -7.61190       -4.70660        7.16590
C         -7.44950       -6.02620        7.51970
C         -6.38550       -6.85790        7.12260
N         -5.57860       -7.62070        6.82190
C         -8.34960       -6.75310        8.32220
N         -9.02530       -7.40440        8.98560
C        -12.24910       -2.84460        8.76210
C        -13.45010       -3.37840        7.95320
C        -14.60120       -2.50420        8.39560
C        -14.41240       -1.29660        7.87920
C        -13.13060       -1.33460        7.07870
C        -13.18240       -2.77970        6.56620
C        -12.02550       -1.42370        8.15210
C         -4.50180       -3.60950        5.22670
C         -3.19300       -4.08810        4.95680
N         -2.56360       -5.09810        5.61900
C         -1.50870       -5.79210        4.98790
C         -1.66250       -6.29810        3.70090
C         -0.61940       -6.97020        3.09220
C          0.58820       -7.16120        3.75070
C          1.71500       -7.90390        3.10300
C          0.72530       -6.66480        5.04350
C         -0.30590       -5.98720        5.66030
C         -2.81980       -5.41250        6.97090
C         -3.01010       -4.40850        7.91550
C         -3.26450       -4.74220        9.23060
C         -3.31840       -6.07040        9.63810
C         -3.62550       -6.43540       11.05780
C         -3.09050       -7.06260        8.69180
C         -2.84480       -6.74530        7.37090
C         -2.60670       -3.35630        3.90820
S         -1.07290       -3.44000        3.11770
C         -1.47570       -2.01940        2.16220
C         -2.77150       -1.57420        2.37360
N         -3.39750       -0.59210        1.63400
C         -2.97280       -0.27910        0.33050
C         -2.96080        1.05210       -0.07630
C         -2.50610        1.39050       -1.33550
C         -2.03460        0.42040       -2.21430
C         -1.46120        0.81590       -3.54080
C         -2.10010       -0.90920       -1.82040
C         -2.58090       -1.26190       -0.57350
C         -4.61210       -0.02070        2.06650
C         -5.69720        0.03580        1.19710
C         -6.89820        0.56840        1.62230
C         -7.05070        1.05560        2.91440
C         -8.36760        1.57970        3.39750
C         -5.95420        1.02260        3.76570
C         -4.74750        0.49550        3.35040
C         -3.39330       -2.32590        3.40670
S         -4.89460       -2.19000        4.25040
C         -0.46690       -1.54250        1.25780
C          0.16550       -0.31540        1.19080
N         -0.01950        0.71850        2.09230
C          0.36000        2.03090        1.77710
C          0.08700        2.58320        0.52620
C          0.50590        3.86020        0.22280
C          1.19950        4.62040        1.16050
S          1.72140        6.22830        0.64900
C          2.43570        6.96410        2.14500
C          1.44730        4.08660        2.41840
C          1.03210        2.80490        2.72040
C         -0.45520        0.43950        3.39870
C         -1.40850        1.25570        3.99930
C         -1.92410        0.93560        5.24110
C         -1.51190       -0.22160        5.88820
S         -2.21800       -0.77330        7.41270
C         -3.92190       -0.14420        7.33180
C         -0.49010       -0.98720        5.33550
C          0.04390       -0.65120        4.11060
C          1.10260       -0.29840        0.12300
S          2.13260        0.90490       -0.55590
C          2.75990       -0.25120       -1.72490
C          2.15320       -1.48480       -1.62600
N          2.36350       -2.53480       -2.50680
C          2.09240       -3.85330       -2.12410
C          2.39830       -4.30300       -0.83910
C          2.08780       -5.58890       -0.45580
C          1.47270       -6.46290       -1.34720
S          1.09180       -8.07850       -0.73800
C          0.42250       -8.95190       -2.17990
C          1.18800       -6.03140       -2.63520
C          1.49170       -4.73930       -3.01610
C          2.63610       -2.25310       -3.85600
C          3.57220       -3.01520       -4.55350
C          3.84020       -2.74290       -5.87760
C          3.18810       -1.69950       -6.53220
S          3.62050       -1.42130       -8.22240
C          2.30490       -0.32560       -8.82390
C          2.25360       -0.94030       -5.84270
C          1.97370       -1.22570       -4.52090
C          1.22410       -1.50100       -0.55300
S          0.17890       -2.70240        0.10140
C          3.75280        0.22590       -2.65290
C          5.08700       -0.11080       -2.75700
N          5.73870       -1.07400       -2.00610
C          5.33830       -1.33990       -0.68850
C          4.95170       -0.30810        0.16220
C          4.47550       -0.58850        1.42880
C          4.40610       -1.89360        1.89570
C          3.84320       -2.21450        3.24680
C          4.86620       -2.91250        1.06740
C          5.31610       -2.64800       -0.21090
C          6.82150       -1.76930       -2.56310
C          6.82810       -2.11940       -3.91030
C          7.90640       -2.79470       -4.44980
C          8.99830       -3.14460       -3.66880
C         10.17120       -3.87620       -4.24680
C          8.98280       -2.79440       -2.32220
C          7.91710       -2.11350       -1.77270
C          5.73260        0.70340       -3.72670
S          7.35520        0.87700       -4.29120
C          6.89890        2.21800       -5.33660
C          5.55510        2.47480       -5.28020
N          4.81500        3.38770       -6.05050
C          3.91960        4.19880       -5.33950
C          4.28820        4.66840       -4.07730
C          3.42330        5.44910       -3.34020
C          2.17370        5.80570       -3.83340
C          1.26540        6.68020       -3.02760
C          1.80540        5.32080       -5.08090
C          2.65390        4.52000       -5.82180
C          4.70340        3.16380       -7.42770
C          4.99520        1.91350       -7.97060
C          4.94300        1.70880       -9.33640
C          4.58300        2.73060      -10.20300
C          4.50900        2.51060      -11.68330
C          4.28780        3.97590       -9.65780
C          4.35070        4.19940       -8.29780
C          4.90860        1.62610       -4.33570
S          3.30460        1.55940       -3.71460
C          8.08450        2.89770       -5.96930
C          8.75040        3.67750       -4.87040
C          8.38320        4.93130       -4.58790
C          7.37360        5.61980       -5.35090
C          6.59080        6.62510       -4.81360
C          6.65240        6.94030       -3.38400
O          7.35510        6.36630       -2.57350
N          5.83160        7.97060       -2.93530
C          5.97190        8.34450       -1.53130
C          5.06730        7.53760       -0.61090
C          4.89600        8.60180       -3.69900
S          3.81380        9.65110       -3.02550
N          4.89190        8.35150       -5.03760
C          5.66550        7.37800       -5.65920
O          5.54990        7.22780       -6.86260
C          4.03390        9.14580       -5.91080
C          2.66240        8.51690       -6.10320
C          7.21890        5.18840       -6.76960
C          7.87340        3.85630       -7.14190
H         -5.08710       -5.22710        6.40220
H         -9.33590       -0.61410        6.57760
H        -10.12890       -5.19030        8.59510
H        -12.38760       -2.93380        9.83800
H        -13.59910       -4.45290        8.01490
H        -15.37860       -2.82770        9.06270
H        -15.00050       -0.41000        8.02890
H        -12.99000       -0.54680        6.34310
H        -14.01150       -2.94390        5.87970
H        -12.25630       -3.12080        6.10720
H        -12.01310       -0.56630        8.82300
H         -2.60300       -6.16670        3.18620
H         -0.74420       -7.35370        2.09050
H          2.65660       -7.37800        3.25060
H          1.53940       -8.02810        2.03760
H          1.81540       -8.89290        3.55020
H          1.65760       -6.80650        5.57110
H         -0.18730       -5.59870        6.66120
H         -2.95660       -3.37250        7.61770
H         -3.41340       -3.95360        9.95410
H         -2.92540       -7.18500       11.42200
H         -3.57680       -5.56340       11.70530
H         -4.62810       -6.85850       11.12450
H         -3.12320       -8.09990        8.98890
H         -2.68750       -7.52500        6.64220
H         -3.29860        1.81770        0.60670
H         -2.49840        2.42870       -1.63660
H         -0.48500        1.28440       -3.40200
H         -2.10460        1.53850       -4.03960
H         -1.34030       -0.05090       -4.18660
H         -1.77330       -1.68620       -2.49720
H         -2.65440       -2.30310       -0.29750
H         -5.59650       -0.35060        0.19310
H         -7.73630        0.59110        0.94030
H         -9.05400        1.74130        2.56990
H         -8.81550        0.85830        4.08080
H         -8.23780        2.51590        3.93760
H         -6.05030        1.40390        4.77140
H         -3.89740        0.48030        4.01180
H         -0.46580        2.00890       -0.19930
H          0.30140        4.27770       -0.75100
H          1.69680        6.97480        2.94090
H          2.69740        7.98130        1.87100
H          3.32840        6.41960        2.43920
H          1.97660        4.65050        3.16960
H          1.24080        2.39280        3.69720
H         -1.76170        2.13310        3.47750
H         -2.66050        1.58340        5.69130
H         -4.37820       -0.42330        6.38620
H         -3.93700        0.93190        7.47790
H         -4.45000       -0.62780        8.14820
H         -0.13040       -1.85440        5.86810
H          0.83570       -1.24830        3.68460
H          2.89010       -3.63910       -0.14710
H          2.31530       -5.92660        0.54330
H          0.22660       -9.96520       -1.84310
H         -0.50430       -8.48530       -2.50140
H          1.15800       -8.96410       -2.97910
H          0.71470       -6.68340       -3.35180
H          1.24860       -4.41070       -4.01590
H          4.08550       -3.81970       -4.04820
H          4.56530       -3.33110       -6.41940
H          2.44230       -0.26340       -9.89880
H          1.33680       -0.76260       -8.59770
H          2.41040        0.66350       -8.38730
H          1.73690       -0.12260       -6.31870
H          1.23340       -0.64180       -3.99520
H          5.01720        0.71510       -0.17690
H          4.15100        0.22610        2.06090
H          3.58260       -1.30640        3.78540
H          2.94780       -2.82950        3.14500
H          4.56300       -2.77680        3.84000
H          4.84950       -3.93340        1.42270
H          5.63540       -3.45560       -0.85340
H          5.98110       -1.87060       -4.53150
H          7.89080       -3.05680       -5.49790
H         11.07120       -3.26640       -4.17340
H         10.00190       -4.11800       -5.29290
H         10.35190       -4.80070       -3.69970
H          9.82580       -3.05270       -1.69730
H          7.92620       -1.83930       -0.72800
H          5.25260        4.40010       -3.66940
H          3.71570        5.78420       -2.35730
H          1.72140        7.65680       -2.86280
H          1.08860        6.24490       -2.04550
H          0.31130        6.82350       -3.52890
H          0.82970        5.56070       -5.47990
H          2.32380        4.12850       -6.77240
H          5.26380        1.09300       -7.32200
H          5.17860        0.72890       -9.72600
H          3.48850        2.65360      -12.03880
H          5.14410        3.22360      -12.20730
H          4.82820        1.50420      -11.94240
H          4.01470        4.79110      -10.31200
H          4.13990        5.18560       -7.91230
H          8.75950        2.09930       -6.29990
H          9.49460        3.17250       -4.27330
H          8.82340        5.44500       -3.74810
H          5.74310        9.40840       -1.44810
H          7.01660        8.16940       -1.26600
H          4.02130        7.69720       -0.86190
H          5.23160        7.85600        0.41500
H          5.30220        6.47890       -0.68780
H          4.54850        9.21450       -6.87160
H          3.93830       10.14000       -5.47110
H          2.08510        9.12050       -6.79780
H          2.13160        8.46590       -5.15740
H          2.76280        7.51220       -6.50540
H          6.15790        5.16160       -7.00690
H          7.61990        5.98100       -7.40870
H          7.27940        3.37530       -7.91920
H          8.86650        4.04720       -7.55580
