143

C         -1.64020        3.04360        5.56300
C         -2.20740        4.28120        5.53580
C         -2.57930        4.99550        6.78400
O         -2.29110        4.67480        7.91550
C         -3.40340        6.14190        6.34850
C         -4.07290        7.05890        7.15630
C         -4.77040        8.01640        6.45860
C         -4.82010        8.05210        5.05830
C         -4.16610        7.15540        4.24770
C         -3.43220        6.18750        4.93870
C         -2.57540        5.12500        4.42170
C         -1.99610        5.12140        3.17660
C         -2.24130        6.08950        2.18740
N         -2.36680        6.85470        1.33880
C         -0.96350        4.24660        2.78610
N         -0.07170        3.61790        2.42360
C         -5.70320        9.27430        5.04010
C         -5.01310       10.61200        4.69870
C         -5.97240       11.65750        5.21980
C         -5.91940       11.62850        6.54540
C         -4.92330       10.56280        6.94240
C         -3.92850       10.68660        5.78110
C         -5.64190        9.23970        6.60090
C         -1.59590        2.14070        4.47160
C         -2.56660        1.94670        3.50540
C         -2.25230        1.03660        2.50020
C         -0.97250        0.50930        2.56460
Se        -0.08120        1.09070        4.11110
C         -0.28230       -0.30720        1.63320
C         -0.57300       -0.67040        0.32000
N         -1.71420       -0.41670       -0.42300
C         -2.30460        0.83510       -0.58280
C         -3.63020        0.89850       -1.02280
C         -4.23840        2.11480       -1.22620
C         -3.54420        3.29970       -0.98900
S         -4.41260        4.80510       -1.30230
C         -3.08180        5.99430       -1.63420
C         -2.23900        3.24270       -0.51800
C         -1.62210        2.02180       -0.32050
C         -2.06670       -1.47370       -1.29720
C         -2.25830       -2.74770       -0.76400
C         -2.43760       -3.82730       -1.59830
C         -2.42170       -3.65700       -2.98190
S         -2.57170       -5.11300       -3.96030
C         -1.94280       -4.60260       -5.58260
C         -2.29540       -2.37880       -3.51270
C         -2.12230       -1.29420       -2.67540
C          0.47720       -1.45290       -0.22300
S          0.74590       -2.15210       -1.77820
C          2.31650       -2.76220       -1.27340
C          2.58380       -2.47550        0.06750
N          3.66620       -2.90560        0.80840
C          4.18000       -4.20140        0.68610
C          3.37920       -5.26450        0.26640
C          3.91730       -6.52210        0.11880
C          5.26370       -6.75710        0.39370
S          5.83510       -8.40870        0.15830
C          7.61970       -8.30570        0.47420
C          6.05940       -5.70770        0.83410
C          5.52200       -4.44340        0.97410
C          4.09670       -2.07770        1.86280
C          4.28730       -0.71400        1.63710
C          4.65300        0.11540        2.67270
C          4.84330       -0.39830        3.95450
S          5.29080        0.76030        5.20480
C          5.18080       -0.19570        6.74460
C          4.68290       -1.76050        4.17550
C          4.30860       -2.59120        3.13790
C          1.54130       -1.69470        0.62770
S          1.27510       -0.94220        2.16290
C          3.05140       -3.41170       -2.29130
C          4.40010       -3.75460       -2.32000
C          4.81780       -4.34110       -3.49670
C          3.86060       -4.48640       -4.51030
Se         2.19720       -3.81980       -3.91350
C          4.20260       -5.04230       -5.74650
C          3.45850       -5.20030       -6.89460
C          2.07420       -4.77020       -7.06710
O          1.34740       -4.28470       -6.20660
C          1.72750       -5.03720       -8.46840
C          0.54190       -4.76690       -9.15690
O         -0.45400       -4.16430       -8.48320
C         -1.63500       -3.82630       -9.17260
C          0.48640       -5.13950      -10.50580
C          1.56810       -5.74170      -11.12050
C          2.75230       -5.99830      -10.44070
C          2.82660       -5.63970       -9.10720
C          3.92240       -5.76070       -8.14150
C          5.15120       -6.31060       -8.40870
C          5.53660       -6.83600       -9.65920
N          5.92540       -7.27830      -10.64530
C          6.21330       -6.44060       -7.49030
N          7.13080       -6.58940       -6.81420
H         -1.22790        2.71910        6.51400
H         -4.02020        6.99300        8.23160
H         -4.22070        7.18060        3.17150
H         -6.66960        9.15640        4.55360
H         -4.69620       10.70900        3.66390
H         -6.61020       12.25240        4.59280
H         -6.50400       12.19430        7.24680
H         -4.52480       10.61730        7.95190
H         -3.41330       11.64570        5.78160
H         -3.19760        9.88150        5.73360
H         -6.56760        9.10290        7.15680
H         -3.52560        2.43640        3.56150
H         -2.95590        0.76600        1.73450
H         -4.17240       -0.01670       -1.20930
H         -5.25850        2.16420       -1.57430
H         -2.64800        6.34310       -0.70010
H         -3.55180        6.82480       -2.15160
H         -2.33770        5.52790       -2.27210
H         -1.68970        4.14620       -0.30390
H         -0.60410        1.99500        0.03620
H         -2.23290       -2.88260        0.30770
H         -2.56750       -4.81870       -1.19260
H         -2.63680       -3.90900       -6.04780
H         -0.94990       -4.17340       -5.48040
H         -1.88630       -5.51220       -6.17200
H         -2.30060       -2.22010       -4.57840
H         -1.99370       -0.30530       -3.08960
H          2.33230       -5.10200        0.06040
H          3.29830       -7.34290       -0.20920
H          8.00590       -9.30250        0.28520
H          7.80210       -8.03150        1.50930
H          8.07640       -7.59790       -0.21100
H          7.10220       -5.85570        1.06340
H          6.15110       -3.62880        1.30250
H          4.13660       -0.31240        0.64590
H          4.79030        1.17210        2.50460
H          4.19040       -0.63190        6.83460
H          5.95460       -0.95740        6.77240
H          5.34320        0.52030        7.54410
H          4.83390       -2.18770        5.15340
H          4.16630       -3.64640        3.31870
H          5.07580       -3.55540       -1.50740
H          5.83630       -4.65920       -3.65280
H          5.23350       -5.37600       -5.79280
H         -2.16460       -4.71730       -9.52420
H         -1.43090       -3.16370      -10.01920
H         -2.25600       -3.30110       -8.45000
H         -0.40640       -4.96110      -11.08370
H          1.49010       -6.01660      -12.16150
H          3.57730       -6.46140      -10.95390
