
  xtb     02122200343D
 energy: -417.502832813032 gnorm: 0.000297643886 xtb: 6.4.1 (unknown)
257281  0     0  0            999 V2000
   -2.1615   -3.3293   -7.8842 C   0  0  0  0  0  0  0  0  0  0  0  0
   -1.7466   -2.6388   -9.0044 C   0  0  0  0  0  0  0  0  0  0  0  0
   -0.8021   -1.5124   -8.9586 C   0  0  0  0  0  0  0  0  0  0  0  0
   -0.3205   -0.9811   -7.9738 O   0  0  0  0  0  0  0  0  0  0  0  0
   -0.4502   -1.2246  -10.3628 C   0  0  0  0  0  0  0  0  0  0  0  0
    0.4345   -0.2518  -10.8183 C   0  0  0  0  0  0  0  0  0  0  0  0
    0.5674   -0.2173  -12.1863 C   0  0  0  0  0  0  0  0  0  0  0  0
   -0.1184   -1.0932  -13.0360 C   0  0  0  0  0  0  0  0  0  0  0  0
   -0.9966   -2.0572  -12.5964 C   0  0  0  0  0  0  0  0  0  0  0  0
   -1.1530   -2.1026  -11.2094 C   0  0  0  0  0  0  0  0  0  0  0  0
   -1.9908   -2.9682  -10.3793 C   0  0  0  0  0  0  0  0  0  0  0  0
   -2.9515   -3.8388  -10.8350 C   0  0  0  0  0  0  0  0  0  0  0  0
   -3.2460   -4.0582  -12.1922 C   0  0  0  0  0  0  0  0  0  0  0  0
   -3.5468   -4.2672  -13.2818 N   0  0  0  0  0  0  0  0  0  0  0  0
   -3.8157   -4.5661   -9.9939 C   0  0  0  0  0  0  0  0  0  0  0  0
   -4.5688   -5.1718   -9.3723 N   0  0  0  0  0  0  0  0  0  0  0  0
    0.5142   -0.5116  -14.2772 C   0  0  0  0  0  0  0  0  0  0  0  0
    1.6617   -1.3240  -14.9136 C   0  0  0  0  0  0  0  0  0  0  0  0
    2.3821   -0.3157  -15.7796 C   0  0  0  0  0  0  0  0  0  0  0  0
    3.0261    0.5202  -14.9752 C   0  0  0  0  0  0  0  0  0  0  0  0
    2.7519    0.0908  -13.5522 C   0  0  0  0  0  0  0  0  0  0  0  0
    2.6545   -1.4276  -13.7486 C   0  0  0  0  0  0  0  0  0  0  0  0
    1.2731    0.4710  -13.3287 C   0  0  0  0  0  0  0  0  0  0  0  0
   -2.1465   -2.8146   -6.5869 C   0  0  0  0  0  0  0  0  0  0  0  0
   -2.1920   -1.4748   -6.1375 C   0  0  0  0  0  0  0  0  0  0  0  0
   -2.6800   -0.4321   -6.8521 N   0  0  0  0  0  0  0  0  0  0  0  0
   -2.4897    0.9070   -6.4409 C   0  0  0  0  0  0  0  0  0  0  0  0
   -1.2188    1.4191   -6.2130 C   0  0  0  0  0  0  0  0  0  0  0  0
   -1.0784    2.7494   -5.8724 C   0  0  0  0  0  0  0  0  0  0  0  0
   -2.1797    3.5859   -5.7381 C   0  0  0  0  0  0  0  0  0  0  0  0
   -1.9972    5.0214   -5.3495 C   0  0  0  0  0  0  0  0  0  0  0  0
   -3.4440    3.0588   -5.9693 C   0  0  0  0  0  0  0  0  0  0  0  0
   -3.6020    1.7339   -6.3255 C   0  0  0  0  0  0  0  0  0  0  0  0
   -3.4364   -0.6080   -8.0286 C   0  0  0  0  0  0  0  0  0  0  0  0
   -4.4905   -1.5164   -8.0829 C   0  0  0  0  0  0  0  0  0  0  0  0
   -5.1993   -1.6824   -9.2541 C   0  0  0  0  0  0  0  0  0  0  0  0
   -4.8805   -0.9552  -10.3987 C   0  0  0  0  0  0  0  0  0  0  0  0
   -5.6232   -1.1847  -11.6771 C   0  0  0  0  0  0  0  0  0  0  0  0
   -3.8520   -0.0255  -10.3232 C   0  0  0  0  0  0  0  0  0  0  0  0
   -3.1394    0.1569   -9.1520 C   0  0  0  0  0  0  0  0  0  0  0  0
   -1.8360   -1.4077   -4.7664 C   0  0  0  0  0  0  0  0  0  0  0  0
   -1.4900   -0.1311   -3.6459 S   0  0  0  0  0  0  0  0  0  0  0  0
   -1.1597   -1.2985   -2.3779 C   0  0  0  0  0  0  0  0  0  0  0  0
   -1.3385   -2.5924   -2.7967 C   0  0  0  0  0  0  0  0  0  0  0  0
   -1.2271   -3.7262   -1.9702 N   0  0  0  0  0  0  0  0  0  0  0  0
   -2.4475   -4.3867   -1.7317 C   0  0  0  0  0  0  0  0  0  0  0  0
   -2.5883   -5.7645   -1.8764 C   0  0  0  0  0  0  0  0  0  0  0  0
   -3.8154   -6.3623   -1.6652 C   0  0  0  0  0  0  0  0  0  0  0  0
   -4.9359   -5.6134   -1.3230 C   0  0  0  0  0  0  0  0  0  0  0  0
   -6.2739   -6.2641   -1.1441 C   0  0  0  0  0  0  0  0  0  0  0  0
   -4.7890   -4.2384   -1.1870 C   0  0  0  0  0  0  0  0  0  0  0  0
   -3.5654   -3.6305   -1.3849 C   0  0  0  0  0  0  0  0  0  0  0  0
    0.0111   -4.3518   -1.8356 C   0  0  0  0  0  0  0  0  0  0  0  0
    1.0686   -4.0388   -2.6861 C   0  0  0  0  0  0  0  0  0  0  0  0
    2.2944   -4.6581   -2.5374 C   0  0  0  0  0  0  0  0  0  0  0  0
    2.5062   -5.6089   -1.5502 C   0  0  0  0  0  0  0  0  0  0  0  0
    3.8186   -6.3174   -1.4163 C   0  0  0  0  0  0  0  0  0  0  0  0
    1.4527   -5.9033   -0.6911 C   0  0  0  0  0  0  0  0  0  0  0  0
    0.2283   -5.2807   -0.8175 C   0  0  0  0  0  0  0  0  0  0  0  0
   -1.6963   -2.6489   -4.1631 C   0  0  0  0  0  0  0  0  0  0  0  0
   -1.9537   -3.9579   -5.2484 S   0  0  0  0  0  0  0  0  0  0  0  0
   -0.7981   -0.8870   -1.0385 C   0  0  0  0  0  0  0  0  0  0  0  0
    0.4581   -0.6443   -0.5364 C   0  0  0  0  0  0  0  0  0  0  0  0
    1.6376   -0.7873   -1.2644 N   0  0  0  0  0  0  0  0  0  0  0  0
    1.7846   -0.0733   -2.4599 C   0  0  0  0  0  0  0  0  0  0  0  0
    2.3446   -0.6639   -3.5921 C   0  0  0  0  0  0  0  0  0  0  0  0
    2.5253    0.0727   -4.7422 C   0  0  0  0  0  0  0  0  0  0  0  0
    2.1629    1.4156   -4.7808 C   0  0  0  0  0  0  0  0  0  0  0  0
    2.4867    2.3090   -6.2760 S   0  0  0  0  0  0  0  0  0  0  0  0
    2.8217    3.9872   -5.6510 C   0  0  0  0  0  0  0  0  0  0  0  0
    1.5676    1.9980   -3.6704 C   0  0  0  0  0  0  0  0  0  0  0  0
    1.3765    1.2570   -2.5221 C   0  0  0  0  0  0  0  0  0  0  0  0
    2.6457   -1.6034   -0.7533 C   0  0  0  0  0  0  0  0  0  0  0  0
    2.3368   -2.6264    0.1450 C   0  0  0  0  0  0  0  0  0  0  0  0
    3.3300   -3.4357    0.6461 C   0  0  0  0  0  0  0  0  0  0  0  0
    4.6566   -3.2468    0.2728 C   0  0  0  0  0  0  0  0  0  0  0  0
    5.8440   -4.3463    0.9875 S   0  0  0  0  0  0  0  0  0  0  0  0
    7.3365   -4.0694   -0.0069 C   0  0  0  0  0  0  0  0  0  0  0  0
    4.9739   -2.2217   -0.6054 C   0  0  0  0  0  0  0  0  0  0  0  0
    3.9783   -1.4083   -1.1097 C   0  0  0  0  0  0  0  0  0  0  0  0
    0.4006   -0.2789    0.8338 C   0  0  0  0  0  0  0  0  0  0  0  0
    1.5514    0.3005    1.9790 S   0  0  0  0  0  0  0  0  0  0  0  0
    0.2857    0.4904    3.1976 C   0  0  0  0  0  0  0  0  0  0  0  0
   -0.9572    0.1254    2.7178 C   0  0  0  0  0  0  0  0  0  0  0  0
   -2.1552    0.1606    3.4128 N   0  0  0  0  0  0  0  0  0  0  0  0
   -3.1180   -0.8156    3.1137 C   0  0  0  0  0  0  0  0  0  0  0  0
   -4.4801   -0.5130    3.1116 C   0  0  0  0  0  0  0  0  0  0  0  0
   -5.4077   -1.4844    2.8054 C   0  0  0  0  0  0  0  0  0  0  0  0
   -5.0022   -2.7762    2.4767 C   0  0  0  0  0  0  0  0  0  0  0  0
   -6.2648   -3.9512    2.1002 S   0  0  0  0  0  0  0  0  0  0  0  0
   -5.4029   -5.5437    2.2370 C   0  0  0  0  0  0  0  0  0  0  0  0
   -3.6483   -3.0757    2.4497 C   0  0  0  0  0  0  0  0  0  0  0  0
   -2.7202   -2.1072    2.7740 C   0  0  0  0  0  0  0  0  0  0  0  0
   -2.4289    1.1998    4.3068 C   0  0  0  0  0  0  0  0  0  0  0  0
   -3.2015    0.9716    5.4451 C   0  0  0  0  0  0  0  0  0  0  0  0
   -3.4683    2.0004    6.3218 C   0  0  0  0  0  0  0  0  0  0  0  0
   -2.9489    3.2744    6.1000 C   0  0  0  0  0  0  0  0  0  0  0  0
   -3.2915    4.4993    7.3280 S   0  0  0  0  0  0  0  0  0  0  0  0
   -2.9302    6.0657    6.4816 C   0  0  0  0  0  0  0  0  0  0  0  0
   -2.1815    3.5071    4.9675 C   0  0  0  0  0  0  0  0  0  0  0  0
   -1.9400    2.4835    4.0732 C   0  0  0  0  0  0  0  0  0  0  0  0
   -0.8749   -0.2905    1.3626 C   0  0  0  0  0  0  0  0  0  0  0  0
   -2.0566   -0.6956    0.1694 S   0  0  0  0  0  0  0  0  0  0  0  0
    0.6547    1.1261    4.4358 C   0  0  0  0  0  0  0  0  0  0  0  0
    0.5365    0.7115    5.7534 C   0  0  0  0  0  0  0  0  0  0  0  0
    0.0219   -0.4956    6.1736 N   0  0  0  0  0  0  0  0  0  0  0  0
   -0.3899   -0.6405    7.5154 C   0  0  0  0  0  0  0  0  0  0  0  0
    0.0130   -1.7432    8.2625 C   0  0  0  0  0  0  0  0  0  0  0  0
   -0.3648   -1.8596    9.5853 C   0  0  0  0  0  0  0  0  0  0  0  0
   -1.1463   -0.8889   10.1990 C   0  0  0  0  0  0  0  0  0  0  0  0
   -1.5092   -0.9864   11.6482 C   0  0  0  0  0  0  0  0  0  0  0  0
   -1.5581    0.1995    9.4414 C   0  0  0  0  0  0  0  0  0  0  0  0
   -1.1874    0.3277    8.1177 C   0  0  0  0  0  0  0  0  0  0  0  0
    0.1580   -1.6519    5.3891 C   0  0  0  0  0  0  0  0  0  0  0  0
    1.2855   -1.8626    4.5988 C   0  0  0  0  0  0  0  0  0  0  0  0
    1.4013   -3.0114    3.8448 C   0  0  0  0  0  0  0  0  0  0  0  0
    0.4156   -3.9925    3.8738 C   0  0  0  0  0  0  0  0  0  0  0  0
    0.5629   -5.2324    3.0467 C   0  0  0  0  0  0  0  0  0  0  0  0
   -0.6912   -3.7888    4.6879 C   0  0  0  0  0  0  0  0  0  0  0  0
   -0.8292   -2.6311    5.4301 C   0  0  0  0  0  0  0  0  0  0  0  0
    1.0798    1.6789    6.6412 C   0  0  0  0  0  0  0  0  0  0  0  0
    1.3449    1.7023    8.3478 S   0  0  0  0  0  0  0  0  0  0  0  0
    2.1465    3.2710    8.2173 C   0  0  0  0  0  0  0  0  0  0  0  0
    2.2612    3.6941    6.8653 C   0  0  0  0  0  0  0  0  0  0  0  0
    2.9069    4.8200    6.4321 N   0  0  0  0  0  0  0  0  0  0  0  0
    2.4196    5.4739    5.2852 C   0  0  0  0  0  0  0  0  0  0  0  0
    3.2855    5.9214    4.2938 C   0  0  0  0  0  0  0  0  0  0  0  0
    2.7845    6.5671    3.1801 C   0  0  0  0  0  0  0  0  0  0  0  0
    1.4211    6.7809    3.0261 C   0  0  0  0  0  0  0  0  0  0  0  0
    0.8713    7.4762    1.8193 C   0  0  0  0  0  0  0  0  0  0  0  0
    0.5638    6.3341    4.0267 C   0  0  0  0  0  0  0  0  0  0  0  0
    1.0506    5.6900    5.1445 C   0  0  0  0  0  0  0  0  0  0  0  0
    4.1030    5.2770    7.0169 C   0  0  0  0  0  0  0  0  0  0  0  0
    5.0452    4.3734    7.5019 C   0  0  0  0  0  0  0  0  0  0  0  0
    6.2101    4.8352    8.0809 C   0  0  0  0  0  0  0  0  0  0  0  0
    6.4747    6.1968    8.1758 C   0  0  0  0  0  0  0  0  0  0  0  0
    7.7270    6.7024    8.8218 C   0  0  0  0  0  0  0  0  0  0  0  0
    5.5405    7.0886    7.6615 C   0  0  0  0  0  0  0  0  0  0  0  0
    4.3648    6.6429    7.0918 C   0  0  0  0  0  0  0  0  0  0  0  0
    1.6212    2.7887    6.0051 C   0  0  0  0  0  0  0  0  0  0  0  0
    1.4753    2.6797    4.2855 S   0  0  0  0  0  0  0  0  0  0  0  0
    2.5120    4.0680    9.2946 C   0  0  0  0  0  0  0  0  0  0  0  0
    2.4867    3.8113   10.6519 C   0  0  0  0  0  0  0  0  0  0  0  0
    2.1708    2.5332   11.2855 C   0  0  0  0  0  0  0  0  0  0  0  0
    1.7788    1.5038   10.7658 O   0  0  0  0  0  0  0  0  0  0  0  0
    2.4483    2.7197   12.7280 C   0  0  0  0  0  0  0  0  0  0  0  0
    2.3238    1.8074   13.7532 C   0  0  0  0  0  0  0  0  0  0  0  0
    2.6532    2.2133   15.0422 C   0  0  0  0  0  0  0  0  0  0  0  0
    2.5099    1.1038   16.3481 Cl  0  0  0  0  0  0  0  0  0  0  0  0
    3.0977    3.5169   15.2661 C   0  0  0  0  0  0  0  0  0  0  0  0
    3.5513    4.0673   17.0186 Br  0  0  0  0  0  0  0  0  0  0  0  0
    3.2205    4.4371   14.2308 C   0  0  0  0  0  0  0  0  0  0  0  0
    2.8923    4.0344   12.9480 C   0  0  0  0  0  0  0  0  0  0  0  0
    2.8921    4.7478   11.6699 C   0  0  0  0  0  0  0  0  0  0  0  0
    3.1958    6.0797   11.5119 C   0  0  0  0  0  0  0  0  0  0  0  0
    3.0588    6.8153   10.3199 C   0  0  0  0  0  0  0  0  0  0  0  0
    2.9411    7.5006    9.4038 N   0  0  0  0  0  0  0  0  0  0  0  0
    3.6585    6.9110   12.5510 C   0  0  0  0  0  0  0  0  0  0  0  0
    4.0564    7.6363   13.3477 N   0  0  0  0  0  0  0  0  0  0  0  0
   -2.4483   -4.3690   -7.9848 H   0  0  0  0  0  0  0  0  0  0  0  0
    0.9466    0.4004  -10.1277 H   0  0  0  0  0  0  0  0  0  0  0  0
   -1.5153   -2.7279  -13.2613 H   0  0  0  0  0  0  0  0  0  0  0  0
   -0.1732   -0.0991  -15.0136 H   0  0  0  0  0  0  0  0  0  0  0  0
    1.3533   -2.2491  -15.3932 H   0  0  0  0  0  0  0  0  0  0  0  0
    2.3062   -0.2816  -16.8507 H   0  0  0  0  0  0  0  0  0  0  0  0
    3.5953    1.3921  -15.2401 H   0  0  0  0  0  0  0  0  0  0  0  0
    3.4359    0.4547  -12.7901 H   0  0  0  0  0  0  0  0  0  0  0  0
    2.2685   -1.9624  -12.8828 H   0  0  0  0  0  0  0  0  0  0  0  0
    3.6036   -1.8651  -14.0542 H   0  0  0  0  0  0  0  0  0  0  0  0
    1.0876    1.5389  -13.4303 H   0  0  0  0  0  0  0  0  0  0  0  0
   -0.3572    0.7846   -6.3498 H   0  0  0  0  0  0  0  0  0  0  0  0
   -0.0893    3.1521   -5.7313 H   0  0  0  0  0  0  0  0  0  0  0  0
   -1.7608    5.0935   -4.2875 H   0  0  0  0  0  0  0  0  0  0  0  0
   -1.1768    5.4698   -5.9070 H   0  0  0  0  0  0  0  0  0  0  0  0
   -2.9016    5.5945   -5.5362 H   0  0  0  0  0  0  0  0  0  0  0  0
   -4.3147    3.6914   -5.8766 H   0  0  0  0  0  0  0  0  0  0  0  0
   -4.5863    1.3323   -6.5179 H   0  0  0  0  0  0  0  0  0  0  0  0
   -4.7513   -2.0927   -7.2079 H   0  0  0  0  0  0  0  0  0  0  0  0
   -6.0115   -2.3931   -9.2839 H   0  0  0  0  0  0  0  0  0  0  0  0
   -5.5683   -0.3112  -12.3221 H   0  0  0  0  0  0  0  0  0  0  0  0
   -6.6668   -1.4195  -11.4813 H   0  0  0  0  0  0  0  0  0  0  0  0
   -5.1896   -2.0283  -12.2162 H   0  0  0  0  0  0  0  0  0  0  0  0
   -3.5964    0.5608  -11.1939 H   0  0  0  0  0  0  0  0  0  0  0  0
   -2.3433    0.8850   -9.1041 H   0  0  0  0  0  0  0  0  0  0  0  0
   -1.7397   -6.3624   -2.1731 H   0  0  0  0  0  0  0  0  0  0  0  0
   -3.9082   -7.4321   -1.7874 H   0  0  0  0  0  0  0  0  0  0  0  0
   -6.9105   -5.6677   -0.4946 H   0  0  0  0  0  0  0  0  0  0  0  0
   -6.7709   -6.3576   -2.1102 H   0  0  0  0  0  0  0  0  0  0  0  0
   -6.1703   -7.2630   -0.7252 H   0  0  0  0  0  0  0  0  0  0  0  0
   -5.6424   -3.6338   -0.9169 H   0  0  0  0  0  0  0  0  0  0  0  0
   -3.4747   -2.5604   -1.2703 H   0  0  0  0  0  0  0  0  0  0  0  0
    0.9208   -3.3202   -3.4786 H   0  0  0  0  0  0  0  0  0  0  0  0
    3.0983   -4.4060   -3.2151 H   0  0  0  0  0  0  0  0  0  0  0  0
    4.5790   -5.8406   -2.0300 H   0  0  0  0  0  0  0  0  0  0  0  0
    3.7215   -7.3551   -1.7369 H   0  0  0  0  0  0  0  0  0  0  0  0
    4.1542   -6.3179   -0.3812 H   0  0  0  0  0  0  0  0  0  0  0  0
    1.5978   -6.6338    0.0924 H   0  0  0  0  0  0  0  0  0  0  0  0
   -0.5756   -5.5152   -0.1348 H   0  0  0  0  0  0  0  0  0  0  0  0
    2.6504   -1.6979   -3.5541 H   0  0  0  0  0  0  0  0  0  0  0  0
    2.9558   -0.3822   -5.6209 H   0  0  0  0  0  0  0  0  0  0  0  0
    3.3346    4.5075   -6.4536 H   0  0  0  0  0  0  0  0  0  0  0  0
    1.8979    4.5078   -5.4133 H   0  0  0  0  0  0  0  0  0  0  0  0
    3.4635    3.9215   -4.7782 H   0  0  0  0  0  0  0  0  0  0  0  0
    1.2616    3.0320   -3.6820 H   0  0  0  0  0  0  0  0  0  0  0  0
    0.9235    1.7155   -1.6553 H   0  0  0  0  0  0  0  0  0  0  0  0
    1.3112   -2.8015    0.4314 H   0  0  0  0  0  0  0  0  0  0  0  0
    3.0872   -4.2400    1.3228 H   0  0  0  0  0  0  0  0  0  0  0  0
    8.0377   -4.8426    0.2912 H   0  0  0  0  0  0  0  0  0  0  0  0
    7.7567   -3.0909    0.2079 H   0  0  0  0  0  0  0  0  0  0  0  0
    7.0964   -4.1725   -1.0608 H   0  0  0  0  0  0  0  0  0  0  0  0
    5.9944   -2.0352   -0.9002 H   0  0  0  0  0  0  0  0  0  0  0  0
    4.2417   -0.6059   -1.7823 H   0  0  0  0  0  0  0  0  0  0  0  0
   -4.8083    0.4876    3.3494 H   0  0  0  0  0  0  0  0  0  0  0  0
   -6.4610   -1.2494    2.8096 H   0  0  0  0  0  0  0  0  0  0  0  0
   -6.1782   -6.3025    2.2035 H   0  0  0  0  0  0  0  0  0  0  0  0
   -4.7227   -5.6755    1.4001 H   0  0  0  0  0  0  0  0  0  0  0  0
   -4.8804   -5.5897    3.1878 H   0  0  0  0  0  0  0  0  0  0  0  0
   -3.2987   -4.0569    2.1728 H   0  0  0  0  0  0  0  0  0  0  0  0
   -1.6717   -2.3602    2.7650 H   0  0  0  0  0  0  0  0  0  0  0  0
   -3.5856   -0.0177    5.6412 H   0  0  0  0  0  0  0  0  0  0  0  0
   -4.0685    1.8231    7.2011 H   0  0  0  0  0  0  0  0  0  0  0  0
   -3.3295    6.8444    7.1241 H   0  0  0  0  0  0  0  0  0  0  0  0
   -3.4344    6.0833    5.5201 H   0  0  0  0  0  0  0  0  0  0  0  0
   -1.8585    6.2024    6.3694 H   0  0  0  0  0  0  0  0  0  0  0  0
   -1.7694    4.4815    4.7629 H   0  0  0  0  0  0  0  0  0  0  0  0
   -1.3677    2.6865    3.1805 H   0  0  0  0  0  0  0  0  0  0  0  0
    0.6352   -2.4997    7.8070 H   0  0  0  0  0  0  0  0  0  0  0  0
   -0.0304   -2.7146   10.1550 H   0  0  0  0  0  0  0  0  0  0  0  0
   -2.5415   -0.6831   11.8116 H   0  0  0  0  0  0  0  0  0  0  0  0
   -1.3742   -1.9992   12.0195 H   0  0  0  0  0  0  0  0  0  0  0  0
   -0.8696   -0.3200   12.2272 H   0  0  0  0  0  0  0  0  0  0  0  0
   -2.1700    0.9661    9.8939 H   0  0  0  0  0  0  0  0  0  0  0  0
   -1.5095    1.1836    7.5461 H   0  0  0  0  0  0  0  0  0  0  0  0
    2.0838   -1.1357    4.5942 H   0  0  0  0  0  0  0  0  0  0  0  0
    2.2812   -3.1529    3.2355 H   0  0  0  0  0  0  0  0  0  0  0  0
   -0.2757   -5.9072    3.2013 H   0  0  0  0  0  0  0  0  0  0  0  0
    1.4819   -5.7559    3.3084 H   0  0  0  0  0  0  0  0  0  0  0  0
    0.6168   -4.9773    1.9887 H   0  0  0  0  0  0  0  0  0  0  0  0
   -1.4664   -4.5402    4.7357 H   0  0  0  0  0  0  0  0  0  0  0  0
   -1.6999   -2.4813    6.0510 H   0  0  0  0  0  0  0  0  0  0  0  0
    4.3472    5.7556    4.3982 H   0  0  0  0  0  0  0  0  0  0  0  0
    3.4676    6.9055    2.4148 H   0  0  0  0  0  0  0  0  0  0  0  0
    0.3094    8.3618    2.1136 H   0  0  0  0  0  0  0  0  0  0  0  0
    1.6692    7.7790    1.1466 H   0  0  0  0  0  0  0  0  0  0  0  0
    0.1926    6.8167    1.2794 H   0  0  0  0  0  0  0  0  0  0  0  0
   -0.4983    6.5079    3.9244 H   0  0  0  0  0  0  0  0  0  0  0  0
    0.3851    5.3516    5.9258 H   0  0  0  0  0  0  0  0  0  0  0  0
    4.8580    3.3122    7.4273 H   0  0  0  0  0  0  0  0  0  0  0  0
    6.9299    4.1229    8.4575 H   0  0  0  0  0  0  0  0  0  0  0  0
    8.4115    5.8869    9.0407 H   0  0  0  0  0  0  0  0  0  0  0  0
    8.2292    7.4192    8.1745 H   0  0  0  0  0  0  0  0  0  0  0  0
    7.4865    7.2116    9.7550 H   0  0  0  0  0  0  0  0  0  0  0  0
    5.7269    8.1499    7.7248 H   0  0  0  0  0  0  0  0  0  0  0  0
    3.6409    7.3483    6.7158 H   0  0  0  0  0  0  0  0  0  0  0  0
    2.8776    5.0477    9.0144 H   0  0  0  0  0  0  0  0  0  0  0  0
    1.9809    0.8037   13.5583 H   0  0  0  0  0  0  0  0  0  0  0  0
    3.5676    5.4340   14.4496 H   0  0  0  0  0  0  0  0  0  0  0  0
  1  2  2  0  0  0  0
  2  3  1  0  0  0  0
  3  4  2  0  0  0  0
  3  5  1  0  0  0  0
  5  6  2  0  0  0  0
  6  7  1  0  0  0  0
  7  8  2  0  0  0  0
  8  9  1  0  0  0  0
  9 10  2  0  0  0  0
 10 11  1  0  0  0  0
 11 12  2  0  0  0  0
 12 13  1  0  0  0  0
 13 14  3  0  0  0  0
 12 15  1  0  0  0  0
 15 16  3  0  0  0  0
  8 17  1  0  0  0  0
 17 18  1  0  0  0  0
 18 19  1  0  0  0  0
 19 20  2  0  0  0  0
 20 21  1  0  0  0  0
 21 22  1  0  0  0  0
 21 23  1  0  0  0  0
  1 24  1  0  0  0  0
 24 25  2  0  0  0  0
 25 26  1  0  0  0  0
 26 27  1  0  0  0  0
 27 28  2  0  0  0  0
 28 29  1  0  0  0  0
 29 30  2  0  0  0  0
 30 31  1  0  0  0  0
 30 32  1  0  0  0  0
 32 33  2  0  0  0  0
 26 34  1  0  0  0  0
 34 35  2  0  0  0  0
 35 36  1  0  0  0  0
 36 37  2  0  0  0  0
 37 38  1  0  0  0  0
 37 39  1  0  0  0  0
 39 40  2  0  0  0  0
 25 41  1  0  0  0  0
 41 42  1  0  0  0  0
 42 43  1  0  0  0  0
 43 44  2  0  0  0  0
 44 45  1  0  0  0  0
 45 46  1  0  0  0  0
 46 47  2  0  0  0  0
 47 48  1  0  0  0  0
 48 49  2  0  0  0  0
 49 50  1  0  0  0  0
 49 51  1  0  0  0  0
 51 52  2  0  0  0  0
 45 53  1  0  0  0  0
 53 54  2  0  0  0  0
 54 55  1  0  0  0  0
 55 56  2  0  0  0  0
 56 57  1  0  0  0  0
 56 58  1  0  0  0  0
 58 59  2  0  0  0  0
 44 60  1  0  0  0  0
 60 61  1  0  0  0  0
 43 62  1  0  0  0  0
 62 63  2  0  0  0  0
 63 64  1  0  0  0  0
 64 65  1  0  0  0  0
 65 66  2  0  0  0  0
 66 67  1  0  0  0  0
 67 68  2  0  0  0  0
 68 69  1  0  0  0  0
 69 70  1  0  0  0  0
 68 71  1  0  0  0  0
 71 72  2  0  0  0  0
 64 73  1  0  0  0  0
 73 74  2  0  0  0  0
 74 75  1  0  0  0  0
 75 76  2  0  0  0  0
 76 77  1  0  0  0  0
 77 78  1  0  0  0  0
 76 79  1  0  0  0  0
 79 80  2  0  0  0  0
 63 81  1  0  0  0  0
 81 82  1  0  0  0  0
 82 83  1  0  0  0  0
 83 84  2  0  0  0  0
 84 85  1  0  0  0  0
 85 86  1  0  0  0  0
 86 87  2  0  0  0  0
 87 88  1  0  0  0  0
 88 89  2  0  0  0  0
 89 90  1  0  0  0  0
 90 91  1  0  0  0  0
 89 92  1  0  0  0  0
 92 93  2  0  0  0  0
 85 94  1  0  0  0  0
 94 95  2  0  0  0  0
 95 96  1  0  0  0  0
 96 97  2  0  0  0  0
 97 98  1  0  0  0  0
 98 99  1  0  0  0  0
 97100  1  0  0  0  0
100101  2  0  0  0  0
 84102  1  0  0  0  0
102103  1  0  0  0  0
 83104  1  0  0  0  0
104105  2  0  0  0  0
105106  1  0  0  0  0
106107  1  0  0  0  0
107108  2  0  0  0  0
108109  1  0  0  0  0
109110  2  0  0  0  0
110111  1  0  0  0  0
110112  1  0  0  0  0
112113  2  0  0  0  0
106114  1  0  0  0  0
114115  2  0  0  0  0
115116  1  0  0  0  0
116117  2  0  0  0  0
117118  1  0  0  0  0
117119  1  0  0  0  0
119120  2  0  0  0  0
105121  1  0  0  0  0
121122  1  0  0  0  0
122123  1  0  0  0  0
123124  2  0  0  0  0
124125  1  0  0  0  0
125126  1  0  0  0  0
126127  2  0  0  0  0
127128  1  0  0  0  0
128129  2  0  0  0  0
129130  1  0  0  0  0
129131  1  0  0  0  0
131132  2  0  0  0  0
125133  1  0  0  0  0
133134  2  0  0  0  0
134135  1  0  0  0  0
135136  2  0  0  0  0
136137  1  0  0  0  0
136138  1  0  0  0  0
138139  2  0  0  0  0
124140  1  0  0  0  0
140141  1  0  0  0  0
123142  1  0  0  0  0
142143  2  0  0  0  0
143144  1  0  0  0  0
144145  2  0  0  0  0
144146  1  0  0  0  0
146147  2  0  0  0  0
147148  1  0  0  0  0
148149  1  0  0  0  0
148150  2  0  0  0  0
150151  1  0  0  0  0
150152  1  0  0  0  0
152153  2  0  0  0  0
153154  1  0  0  0  0
154155  2  0  0  0  0
155156  1  0  0  0  0
156157  3  0  0  0  0
155158  1  0  0  0  0
158159  3  0  0  0  0
 11  2  1  0  0  0  0
 23 17  1  0  0  0  0
 61 24  1  0  0  0  0
103 62  1  0  0  0  0
141104  1  0  0  0  0
154143  1  0  0  0  0
 10  5  1  0  0  0  0
 22 18  1  0  0  0  0
 33 27  1  0  0  0  0
 40 34  1  0  0  0  0
 60 41  2  0  0  0  0
 72 65  1  0  0  0  0
 80 73  1  0  0  0  0
102 81  2  0  0  0  0
113107  1  0  0  0  0
120114  1  0  0  0  0
140121  2  0  0  0  0
153146  1  0  0  0  0
 23  7  1  0  0  0  0
 52 46  1  0  0  0  0
 59 53  1  0  0  0  0
 93 86  1  0  0  0  0
101 94  1  0  0  0  0
132126  1  0  0  0  0
139133  1  0  0  0  0
  1160  1  0  0  0  0
  6161  1  0  0  0  0
  9162  1  0  0  0  0
 17163  1  0  0  0  0
 18164  1  0  0  0  0
 19165  1  0  0  0  0
 20166  1  0  0  0  0
 21167  1  0  0  0  0
 22168  1  0  0  0  0
 22169  1  0  0  0  0
 23170  1  0  0  0  0
 28171  1  0  0  0  0
 29172  1  0  0  0  0
 31173  1  0  0  0  0
 31174  1  0  0  0  0
 31175  1  0  0  0  0
 32176  1  0  0  0  0
 33177  1  0  0  0  0
 35178  1  0  0  0  0
 36179  1  0  0  0  0
 38180  1  0  0  0  0
 38181  1  0  0  0  0
 38182  1  0  0  0  0
 39183  1  0  0  0  0
 40184  1  0  0  0  0
 47185  1  0  0  0  0
 48186  1  0  0  0  0
 50187  1  0  0  0  0
 50188  1  0  0  0  0
 50189  1  0  0  0  0
 51190  1  0  0  0  0
 52191  1  0  0  0  0
 54192  1  0  0  0  0
 55193  1  0  0  0  0
 57194  1  0  0  0  0
 57195  1  0  0  0  0
 57196  1  0  0  0  0
 58197  1  0  0  0  0
 59198  1  0  0  0  0
 66199  1  0  0  0  0
 67200  1  0  0  0  0
 70201  1  0  0  0  0
 70202  1  0  0  0  0
 70203  1  0  0  0  0
 71204  1  0  0  0  0
 72205  1  0  0  0  0
 74206  1  0  0  0  0
 75207  1  0  0  0  0
 78208  1  0  0  0  0
 78209  1  0  0  0  0
 78210  1  0  0  0  0
 79211  1  0  0  0  0
 80212  1  0  0  0  0
 87213  1  0  0  0  0
 88214  1  0  0  0  0
 91215  1  0  0  0  0
 91216  1  0  0  0  0
 91217  1  0  0  0  0
 92218  1  0  0  0  0
 93219  1  0  0  0  0
 95220  1  0  0  0  0
 96221  1  0  0  0  0
 99222  1  0  0  0  0
 99223  1  0  0  0  0
 99224  1  0  0  0  0
100225  1  0  0  0  0
101226  1  0  0  0  0
108227  1  0  0  0  0
109228  1  0  0  0  0
111229  1  0  0  0  0
111230  1  0  0  0  0
111231  1  0  0  0  0
112232  1  0  0  0  0
113233  1  0  0  0  0
115234  1  0  0  0  0
116235  1  0  0  0  0
118236  1  0  0  0  0
118237  1  0  0  0  0
118238  1  0  0  0  0
119239  1  0  0  0  0
120240  1  0  0  0  0
127241  1  0  0  0  0
128242  1  0  0  0  0
130243  1  0  0  0  0
130244  1  0  0  0  0
130245  1  0  0  0  0
131246  1  0  0  0  0
132247  1  0  0  0  0
134248  1  0  0  0  0
135249  1  0  0  0  0
137250  1  0  0  0  0
137251  1  0  0  0  0
137252  1  0  0  0  0
138253  1  0  0  0  0
139254  1  0  0  0  0
142255  1  0  0  0  0
147256  1  0  0  0  0
152257  1  0  0  0  0
M  END
