
  xtb     02112218503D
 energy: -427.906353085241 gnorm: 0.000795707586 xtb: 6.4.1 (unknown)
270297  0     0  0            999 V2000
   -3.2265   -7.2281   -5.2201 C   0  0  0  0  0  0  0  0  0  0  0  0
   -2.5191   -8.2595   -5.8101 C   0  0  0  0  0  0  0  0  0  0  0  0
   -1.0782   -8.4642   -5.6358 C   0  0  0  0  0  0  0  0  0  0  0  0
   -0.2895   -7.7630   -5.0200 O   0  0  0  0  0  0  0  0  0  0  0  0
   -0.7793   -9.7756   -6.2459 C   0  0  0  0  0  0  0  0  0  0  0  0
    0.4581  -10.4082   -6.3134 C   0  0  0  0  0  0  0  0  0  0  0  0
    0.4279  -11.6322   -6.9392 C   0  0  0  0  0  0  0  0  0  0  0  0
   -0.7482  -12.1898   -7.4529 C   0  0  0  0  0  0  0  0  0  0  0  0
   -1.9768  -11.5724   -7.3962 C   0  0  0  0  0  0  0  0  0  0  0  0
   -1.9649  -10.3255   -6.7691 C   0  0  0  0  0  0  0  0  0  0  0  0
   -3.0532   -9.3772   -6.5311 C   0  0  0  0  0  0  0  0  0  0  0  0
   -4.3274   -9.4678   -7.0388 C   0  0  0  0  0  0  0  0  0  0  0  0
   -5.3062   -8.4664   -6.8895 C   0  0  0  0  0  0  0  0  0  0  0  0
   -6.1431   -7.6808   -6.8349 N   0  0  0  0  0  0  0  0  0  0  0  0
   -4.7935  -10.5293   -7.8339 C   0  0  0  0  0  0  0  0  0  0  0  0
   -5.2286  -11.3572   -8.5025 N   0  0  0  0  0  0  0  0  0  0  0  0
   -0.0468  -13.4429   -7.9177 C   0  0  0  0  0  0  0  0  0  0  0  0
   -0.2316  -14.7014   -7.0439 C   0  0  0  0  0  0  0  0  0  0  0  0
    0.9160  -15.5970   -7.4517 C   0  0  0  0  0  0  0  0  0  0  0  0
    2.0327  -15.0666   -6.9698 C   0  0  0  0  0  0  0  0  0  0  0  0
    1.6584  -13.8038   -6.2282 C   0  0  0  0  0  0  0  0  0  0  0  0
    0.2843  -14.2149   -5.6835 C   0  0  0  0  0  0  0  0  0  0  0  0
    1.2673  -12.8176   -7.3489 C   0  0  0  0  0  0  0  0  0  0  0  0
   -2.6783   -6.0134   -4.8203 C   0  0  0  0  0  0  0  0  0  0  0  0
   -1.5109   -5.3444   -5.2624 C   0  0  0  0  0  0  0  0  0  0  0  0
   -0.8984   -5.5452   -6.4506 N   0  0  0  0  0  0  0  0  0  0  0  0
    0.3715   -4.9815   -6.7410 C   0  0  0  0  0  0  0  0  0  0  0  0
    0.4826   -4.0899   -7.8017 C   0  0  0  0  0  0  0  0  0  0  0  0
    1.7207   -3.5856   -8.1468 C   0  0  0  0  0  0  0  0  0  0  0  0
    2.8667   -3.9802   -7.4650 C   0  0  0  0  0  0  0  0  0  0  0  0
    4.2074   -3.4323   -7.8453 C   0  0  0  0  0  0  0  0  0  0  0  0
    2.7403   -4.8848   -6.4188 C   0  0  0  0  0  0  0  0  0  0  0  0
    1.5039   -5.3740   -6.0435 C   0  0  0  0  0  0  0  0  0  0  0  0
   -1.4813   -6.2720   -7.5075 C   0  0  0  0  0  0  0  0  0  0  0  0
   -2.7981   -6.0491   -7.9032 C   0  0  0  0  0  0  0  0  0  0  0  0
   -3.3441   -6.7885   -8.9308 C   0  0  0  0  0  0  0  0  0  0  0  0
   -2.6022   -7.7679   -9.5884 C   0  0  0  0  0  0  0  0  0  0  0  0
   -3.2288   -8.5974  -10.6643 C   0  0  0  0  0  0  0  0  0  0  0  0
   -1.2792   -7.9546   -9.2125 C   0  0  0  0  0  0  0  0  0  0  0  0
   -0.7161   -7.2116   -8.1909 C   0  0  0  0  0  0  0  0  0  0  0  0
   -1.1800   -4.2985   -4.3652 C   0  0  0  0  0  0  0  0  0  0  0  0
    0.1781   -3.2382   -4.1686 S   0  0  0  0  0  0  0  0  0  0  0  0
   -0.5751   -2.4944   -2.7701 C   0  0  0  0  0  0  0  0  0  0  0  0
   -1.8168   -3.0228   -2.5004 C   0  0  0  0  0  0  0  0  0  0  0  0
   -2.6698   -2.5513   -1.4968 N   0  0  0  0  0  0  0  0  0  0  0  0
   -3.9582   -2.1908   -1.9182 C   0  0  0  0  0  0  0  0  0  0  0  0
   -5.0934   -2.4986   -1.1741 C   0  0  0  0  0  0  0  0  0  0  0  0
   -6.3475   -2.1866   -1.6636 C   0  0  0  0  0  0  0  0  0  0  0  0
   -6.5091   -1.5779   -2.9026 C   0  0  0  0  0  0  0  0  0  0  0  0
   -7.8706   -1.2978   -3.4618 C   0  0  0  0  0  0  0  0  0  0  0  0
   -5.3689   -1.2557   -3.6302 C   0  0  0  0  0  0  0  0  0  0  0  0
   -4.1108   -1.5473   -3.1460 C   0  0  0  0  0  0  0  0  0  0  0  0
   -2.3376   -2.7425   -0.1558 C   0  0  0  0  0  0  0  0  0  0  0  0
   -1.5172   -3.8044    0.2244 C   0  0  0  0  0  0  0  0  0  0  0  0
   -1.2264   -4.0185    1.5555 C   0  0  0  0  0  0  0  0  0  0  0  0
   -1.7444   -3.1944    2.5484 C   0  0  0  0  0  0  0  0  0  0  0  0
   -1.4342   -3.4605    3.9892 C   0  0  0  0  0  0  0  0  0  0  0  0
   -2.5409   -2.1254    2.1593 C   0  0  0  0  0  0  0  0  0  0  0  0
   -2.8275   -1.8870    0.8284 C   0  0  0  0  0  0  0  0  0  0  0  0
   -2.1395   -4.0713   -3.3891 C   0  0  0  0  0  0  0  0  0  0  0  0
   -3.4766   -5.1483   -3.4945 S   0  0  0  0  0  0  0  0  0  0  0  0
   -0.0463   -1.3433   -2.0735 C   0  0  0  0  0  0  0  0  0  0  0  0
    0.8308   -1.2595   -1.0157 C   0  0  0  0  0  0  0  0  0  0  0  0
    1.4780   -2.3226   -0.4100 N   0  0  0  0  0  0  0  0  0  0  0  0
    1.9838   -3.3856   -1.1775 C   0  0  0  0  0  0  0  0  0  0  0  0
    1.7914   -4.6968   -0.7541 C   0  0  0  0  0  0  0  0  0  0  0  0
    2.2921   -5.7518   -1.4895 C   0  0  0  0  0  0  0  0  0  0  0  0
    3.0158   -5.5082   -2.6496 C   0  0  0  0  0  0  0  0  0  0  0  0
    3.7491   -6.8008   -3.6079 S   0  0  0  0  0  0  0  0  0  0  0  0
    2.6546   -8.2217   -3.3180 C   0  0  0  0  0  0  0  0  0  0  0  0
    3.2333   -4.1961   -3.0603 C   0  0  0  0  0  0  0  0  0  0  0  0
    2.7121   -3.1440   -2.3390 C   0  0  0  0  0  0  0  0  0  0  0  0
    1.8262   -2.2159    0.9413 C   0  0  0  0  0  0  0  0  0  0  0  0
    0.9554   -1.6003    1.8406 C   0  0  0  0  0  0  0  0  0  0  0  0
    1.3581   -1.3335    3.1325 C   0  0  0  0  0  0  0  0  0  0  0  0
    2.6372   -1.6767    3.5441 C   0  0  0  0  0  0  0  0  0  0  0  0
    3.2478   -1.1843    5.1391 S   0  0  0  0  0  0  0  0  0  0  0  0
    2.8434    0.5919    5.0880 C   0  0  0  0  0  0  0  0  0  0  0  0
    3.4678   -2.3893    2.6890 C   0  0  0  0  0  0  0  0  0  0  0  0
    3.0665   -2.6616    1.3979 C   0  0  0  0  0  0  0  0  0  0  0  0
    0.9290    0.0809   -0.5548 C   0  0  0  0  0  0  0  0  0  0  0  0
    1.8663    0.8567    0.6628 S   0  0  0  0  0  0  0  0  0  0  0  0
    1.0561    2.3939    0.3609 C   0  0  0  0  0  0  0  0  0  0  0  0
    0.1621    2.3124   -0.6969 C   0  0  0  0  0  0  0  0  0  0  0  0
   -0.5833    3.3428   -1.2473 N   0  0  0  0  0  0  0  0  0  0  0  0
   -0.0374    4.6170   -1.4398 C   0  0  0  0  0  0  0  0  0  0  0  0
    1.3355    4.7994   -1.5831 C   0  0  0  0  0  0  0  0  0  0  0  0
    1.8667    6.0554   -1.8116 C   0  0  0  0  0  0  0  0  0  0  0  0
    1.0317    7.1585   -1.9130 C   0  0  0  0  0  0  0  0  0  0  0  0
    1.5871    8.8103   -2.1948 S   0  0  0  0  0  0  0  0  0  0  0  0
    3.3969    8.6643   -2.2235 C   0  0  0  0  0  0  0  0  0  0  0  0
   -0.3438    6.9835   -1.7685 C   0  0  0  0  0  0  0  0  0  0  0  0
   -0.8692    5.7360   -1.5270 C   0  0  0  0  0  0  0  0  0  0  0  0
   -1.8396    3.0146   -1.7842 C   0  0  0  0  0  0  0  0  0  0  0  0
   -2.6478    2.0844   -1.1319 C   0  0  0  0  0  0  0  0  0  0  0  0
   -3.8957    1.7636   -1.6236 C   0  0  0  0  0  0  0  0  0  0  0  0
   -4.3739    2.3873   -2.7661 C   0  0  0  0  0  0  0  0  0  0  0  0
   -6.0008    2.1005   -3.3913 S   0  0  0  0  0  0  0  0  0  0  0  0
   -6.9186    1.6985   -1.8742 C   0  0  0  0  0  0  0  0  0  0  0  0
   -3.5527    3.2763   -3.4532 C   0  0  0  0  0  0  0  0  0  0  0  0
   -2.2953    3.5771   -2.9766 C   0  0  0  0  0  0  0  0  0  0  0  0
    0.1082    0.9828   -1.2033 C   0  0  0  0  0  0  0  0  0  0  0  0
   -0.7624    0.2144   -2.4829 S   0  0  0  0  0  0  0  0  0  0  0  0
    1.4544    3.4247    1.2662 C   0  0  0  0  0  0  0  0  0  0  0  0
    0.7812    4.4778    1.8668 C   0  0  0  0  0  0  0  0  0  0  0  0
   -0.5332    4.8741    1.6448 N   0  0  0  0  0  0  0  0  0  0  0  0
   -0.7764    6.2550    1.8072 C   0  0  0  0  0  0  0  0  0  0  0  0
    0.1248    7.1617    1.2557 C   0  0  0  0  0  0  0  0  0  0  0  0
   -0.0588    8.5193    1.4161 C   0  0  0  0  0  0  0  0  0  0  0  0
   -1.1390    9.0130    2.1353 C   0  0  0  0  0  0  0  0  0  0  0  0
   -1.3185   10.4856    2.3383 C   0  0  0  0  0  0  0  0  0  0  0  0
   -2.0246    8.1028    2.6982 C   0  0  0  0  0  0  0  0  0  0  0  0
   -1.8503    6.7421    2.5454 C   0  0  0  0  0  0  0  0  0  0  0  0
   -1.5842    3.9550    1.7061 C   0  0  0  0  0  0  0  0  0  0  0  0
   -1.4343    2.7117    2.3173 C   0  0  0  0  0  0  0  0  0  0  0  0
   -2.5116    1.8533    2.4366 C   0  0  0  0  0  0  0  0  0  0  0  0
   -3.7699    2.2026    1.9670 C   0  0  0  0  0  0  0  0  0  0  0  0
   -4.9529    1.2980    2.1356 C   0  0  0  0  0  0  0  0  0  0  0  0
   -3.9068    3.4318    1.3291 C   0  0  0  0  0  0  0  0  0  0  0  0
   -2.8366    4.2888    1.1873 C   0  0  0  0  0  0  0  0  0  0  0  0
    1.5800    5.0994    2.8633 C   0  0  0  0  0  0  0  0  0  0  0  0
    1.2543    6.3412    4.0207 S   0  0  0  0  0  0  0  0  0  0  0  0
    2.8157    6.0428    4.7963 C   0  0  0  0  0  0  0  0  0  0  0  0
    3.5123    4.9693    4.1850 C   0  0  0  0  0  0  0  0  0  0  0  0
    4.6800    4.4074    4.6291 N   0  0  0  0  0  0  0  0  0  0  0  0
    4.9732    4.2482    5.9969 C   0  0  0  0  0  0  0  0  0  0  0  0
    6.2917    4.3359    6.4352 C   0  0  0  0  0  0  0  0  0  0  0  0
    6.5854    4.1766    7.7745 C   0  0  0  0  0  0  0  0  0  0  0  0
    5.5828    3.9382    8.7073 C   0  0  0  0  0  0  0  0  0  0  0  0
    5.9154    3.8168   10.1621 C   0  0  0  0  0  0  0  0  0  0  0  0
    4.2723    3.8319    8.2560 C   0  0  0  0  0  0  0  0  0  0  0  0
    3.9649    3.9735    6.9175 C   0  0  0  0  0  0  0  0  0  0  0  0
    5.5203    3.7805    3.6878 C   0  0  0  0  0  0  0  0  0  0  0  0
    6.0401    2.5122    3.9310 C   0  0  0  0  0  0  0  0  0  0  0  0
    6.8495    1.9075    2.9918 C   0  0  0  0  0  0  0  0  0  0  0  0
    7.1641    2.5444    1.7958 C   0  0  0  0  0  0  0  0  0  0  0  0
    8.0231    1.8628    0.7762 C   0  0  0  0  0  0  0  0  0  0  0  0
    6.6494    3.8142    1.5678 C   0  0  0  0  0  0  0  0  0  0  0  0
    5.8375    4.4312    2.4992 C   0  0  0  0  0  0  0  0  0  0  0  0
    2.8111    4.4951    3.0658 C   0  0  0  0  0  0  0  0  0  0  0  0
    3.0639    3.1875    1.9596 S   0  0  0  0  0  0  0  0  0  0  0  0
    3.3476    6.7978    5.8389 C   0  0  0  0  0  0  0  0  0  0  0  0
    2.7886    7.8083    6.5891 C   0  0  0  0  0  0  0  0  0  0  0  0
    1.4154    8.3049    6.4919 C   0  0  0  0  0  0  0  0  0  0  0  0
    0.5697    8.0148    5.6616 O   0  0  0  0  0  0  0  0  0  0  0  0
    1.2331    9.2376    7.6195 C   0  0  0  0  0  0  0  0  0  0  0  0
    0.0766    9.9400    7.9487 C   0  0  0  0  0  0  0  0  0  0  0  0
    0.1998   10.7242    9.0707 C   0  0  0  0  0  0  0  0  0  0  0  0
    1.3873   10.8058    9.8083 C   0  0  0  0  0  0  0  0  0  0  0  0
    2.5384   10.1247    9.4881 C   0  0  0  0  0  0  0  0  0  0  0  0
    2.4337    9.3177    8.3519 C   0  0  0  0  0  0  0  0  0  0  0  0
    3.4311    8.4671    7.7003 C   0  0  0  0  0  0  0  0  0  0  0  0
    4.7457    8.3500    8.0866 C   0  0  0  0  0  0  0  0  0  0  0  0
    5.2956    8.9439    9.2391 C   0  0  0  0  0  0  0  0  0  0  0  0
    5.8128    9.3764   10.1699 N   0  0  0  0  0  0  0  0  0  0  0  0
    5.7478    7.6570    7.3819 C   0  0  0  0  0  0  0  0  0  0  0  0
    6.6384    7.1500    6.8592 N   0  0  0  0  0  0  0  0  0  0  0  0
    0.7928   11.7627   10.8121 C   0  0  0  0  0  0  0  0  0  0  0  0
    0.3867   11.1656   12.1761 C   0  0  0  0  0  0  0  0  0  0  0  0
   -0.5755   12.1835   12.7444 C   0  0  0  0  0  0  0  0  0  0  0  0
   -1.7005   12.1099   12.0447 C   0  0  0  0  0  0  0  0  0  0  0  0
   -1.5176   11.0405   10.9921 C   0  0  0  0  0  0  0  0  0  0  0  0
   -0.6043   10.0726   11.7551 C   0  0  0  0  0  0  0  0  0  0  0  0
   -0.5315   11.6738    9.9879 C   0  0  0  0  0  0  0  0  0  0  0  0
   -4.2700   -7.3856   -4.9760 H   0  0  0  0  0  0  0  0  0  0  0  0
    1.3434   -9.9442   -5.9069 H   0  0  0  0  0  0  0  0  0  0  0  0
   -2.8759  -12.0135   -7.7934 H   0  0  0  0  0  0  0  0  0  0  0  0
   -0.1048  -13.6536   -8.9840 H   0  0  0  0  0  0  0  0  0  0  0  0
   -1.2270  -15.1360   -7.0762 H   0  0  0  0  0  0  0  0  0  0  0  0
    0.8076  -16.4651   -8.0751 H   0  0  0  0  0  0  0  0  0  0  0  0
    3.0434  -15.4028   -7.1105 H   0  0  0  0  0  0  0  0  0  0  0  0
    2.3854  -13.4209   -5.5166 H   0  0  0  0  0  0  0  0  0  0  0  0
   -0.2891  -13.3924   -5.2601 H   0  0  0  0  0  0  0  0  0  0  0  0
    0.3542  -15.0227   -4.9567 H   0  0  0  0  0  0  0  0  0  0  0  0
    2.0844  -12.6095   -8.0376 H   0  0  0  0  0  0  0  0  0  0  0  0
   -0.4020   -3.7999   -8.3499 H   0  0  0  0  0  0  0  0  0  0  0  0
    1.8007   -2.8855   -8.9658 H   0  0  0  0  0  0  0  0  0  0  0  0
    4.2729   -3.2748   -8.9194 H   0  0  0  0  0  0  0  0  0  0  0  0
    4.3665   -2.4709   -7.3558 H   0  0  0  0  0  0  0  0  0  0  0  0
    5.0034   -4.1051   -7.5357 H   0  0  0  0  0  0  0  0  0  0  0  0
    3.6223   -5.2336   -5.9034 H   0  0  0  0  0  0  0  0  0  0  0  0
    1.4034   -6.0887   -5.2431 H   0  0  0  0  0  0  0  0  0  0  0  0
   -3.3923   -5.2990   -7.4033 H   0  0  0  0  0  0  0  0  0  0  0  0
   -4.3672   -6.6089   -9.2257 H   0  0  0  0  0  0  0  0  0  0  0  0
   -3.8834   -9.3510  -10.2247 H   0  0  0  0  0  0  0  0  0  0  0  0
   -2.4717   -9.1086  -11.2534 H   0  0  0  0  0  0  0  0  0  0  0  0
   -3.8353   -7.9791  -11.3229 H   0  0  0  0  0  0  0  0  0  0  0  0
   -0.6788   -8.6969   -9.7182 H   0  0  0  0  0  0  0  0  0  0  0  0
    0.3153   -7.3637   -7.9099 H   0  0  0  0  0  0  0  0  0  0  0  0
   -4.9930   -3.0020   -0.2240 H   0  0  0  0  0  0  0  0  0  0  0  0
   -7.2194   -2.4425   -1.0777 H   0  0  0  0  0  0  0  0  0  0  0  0
   -8.6177   -1.2485   -2.6729 H   0  0  0  0  0  0  0  0  0  0  0  0
   -8.1572   -2.0945   -4.1487 H   0  0  0  0  0  0  0  0  0  0  0  0
   -7.8732   -0.3618   -4.0165 H   0  0  0  0  0  0  0  0  0  0  0  0
   -5.4695   -0.7645   -4.5865 H   0  0  0  0  0  0  0  0  0  0  0  0
   -3.2350   -1.2783   -3.7189 H   0  0  0  0  0  0  0  0  0  0  0  0
   -1.1297   -4.4705   -0.5328 H   0  0  0  0  0  0  0  0  0  0  0  0
   -0.6023   -4.8541    1.8399 H   0  0  0  0  0  0  0  0  0  0  0  0
   -0.3582   -3.4175    4.1587 H   0  0  0  0  0  0  0  0  0  0  0  0
   -1.7762   -4.4550    4.2741 H   0  0  0  0  0  0  0  0  0  0  0  0
   -1.9178   -2.7314    4.6349 H   0  0  0  0  0  0  0  0  0  0  0  0
   -2.9456   -1.4658    2.9143 H   0  0  0  0  0  0  0  0  0  0  0  0
   -3.4384   -1.0432    0.5437 H   0  0  0  0  0  0  0  0  0  0  0  0
    1.2534   -4.8808    0.1630 H   0  0  0  0  0  0  0  0  0  0  0  0
    2.1215   -6.7599   -1.1467 H   0  0  0  0  0  0  0  0  0  0  0  0
    3.0053   -8.9947   -3.9954 H   0  0  0  0  0  0  0  0  0  0  0  0
    1.6295   -7.9532   -3.5591 H   0  0  0  0  0  0  0  0  0  0  0  0
    2.7447   -8.5729   -2.2944 H   0  0  0  0  0  0  0  0  0  0  0  0
    3.8148   -4.0040   -3.9471 H   0  0  0  0  0  0  0  0  0  0  0  0
    2.8720   -2.1277   -2.6675 H   0  0  0  0  0  0  0  0  0  0  0  0
   -0.0301   -1.3080    1.5130 H   0  0  0  0  0  0  0  0  0  0  0  0
    0.6816   -0.8345    3.8089 H   0  0  0  0  0  0  0  0  0  0  0  0
    3.3871    1.0528    5.9071 H   0  0  0  0  0  0  0  0  0  0  0  0
    3.1721    1.0021    4.1369 H   0  0  0  0  0  0  0  0  0  0  0  0
    1.7768    0.7426    5.2255 H   0  0  0  0  0  0  0  0  0  0  0  0
    4.4451   -2.6921    3.0316 H   0  0  0  0  0  0  0  0  0  0  0  0
    3.7324   -3.1764    0.7213 H   0  0  0  0  0  0  0  0  0  0  0  0
    2.0015    3.9511   -1.5361 H   0  0  0  0  0  0  0  0  0  0  0  0
    2.9355    6.1509   -1.9183 H   0  0  0  0  0  0  0  0  0  0  0  0
    3.7519    8.2675   -1.2767 H   0  0  0  0  0  0  0  0  0  0  0  0
    3.7695    9.6745   -2.3622 H   0  0  0  0  0  0  0  0  0  0  0  0
    3.7087    8.0405   -3.0563 H   0  0  0  0  0  0  0  0  0  0  0  0
   -0.9919    7.8435   -1.8343 H   0  0  0  0  0  0  0  0  0  0  0  0
   -1.9346    5.6198   -1.4068 H   0  0  0  0  0  0  0  0  0  0  0  0
   -2.2956    1.6117   -0.2287 H   0  0  0  0  0  0  0  0  0  0  0  0
   -4.4904    1.0246   -1.1115 H   0  0  0  0  0  0  0  0  0  0  0  0
   -6.6396    2.4016   -1.0955 H   0  0  0  0  0  0  0  0  0  0  0  0
   -6.7196    0.6736   -1.5738 H   0  0  0  0  0  0  0  0  0  0  0  0
   -7.9697    1.8115   -2.1197 H   0  0  0  0  0  0  0  0  0  0  0  0
   -3.9115    3.7291   -4.3646 H   0  0  0  0  0  0  0  0  0  0  0  0
   -1.6637    4.2595   -3.5250 H   0  0  0  0  0  0  0  0  0  0  0  0
    0.9797    6.7892    0.7125 H   0  0  0  0  0  0  0  0  0  0  0  0
    0.6491    9.2052    0.9742 H   0  0  0  0  0  0  0  0  0  0  0  0
   -2.3727   10.7440    2.4102 H   0  0  0  0  0  0  0  0  0  0  0  0
   -0.8329   10.7882    3.2668 H   0  0  0  0  0  0  0  0  0  0  0  0
   -0.8697   11.0477    1.5226 H   0  0  0  0  0  0  0  0  0  0  0  0
   -2.8585    8.4638    3.2825 H   0  0  0  0  0  0  0  0  0  0  0  0
   -2.5359    6.0551    3.0183 H   0  0  0  0  0  0  0  0  0  0  0  0
   -0.4801    2.4241    2.7326 H   0  0  0  0  0  0  0  0  0  0  0  0
   -2.3662    0.9000    2.9241 H   0  0  0  0  0  0  0  0  0  0  0  0
   -5.7375    1.8023    2.6991 H   0  0  0  0  0  0  0  0  0  0  0  0
   -4.6791    0.3886    2.6644 H   0  0  0  0  0  0  0  0  0  0  0  0
   -5.3703    1.0225    1.1672 H   0  0  0  0  0  0  0  0  0  0  0  0
   -4.8712    3.7232    0.9378 H   0  0  0  0  0  0  0  0  0  0  0  0
   -2.9693    5.2377    0.6910 H   0  0  0  0  0  0  0  0  0  0  0  0
    7.0771    4.5420    5.7253 H   0  0  0  0  0  0  0  0  0  0  0  0
    7.6097    4.2603    8.1040 H   0  0  0  0  0  0  0  0  0  0  0  0
    5.0680    3.4369   10.7273 H   0  0  0  0  0  0  0  0  0  0  0  0
    6.7640    3.1513   10.3079 H   0  0  0  0  0  0  0  0  0  0  0  0
    6.1870    4.7934   10.5634 H   0  0  0  0  0  0  0  0  0  0  0  0
    3.4789    3.6274    8.9606 H   0  0  0  0  0  0  0  0  0  0  0  0
    2.9421    3.8817    6.5810 H   0  0  0  0  0  0  0  0  0  0  0  0
    5.8015    2.0040    4.8533 H   0  0  0  0  0  0  0  0  0  0  0  0
    7.2391    0.9191    3.1867 H   0  0  0  0  0  0  0  0  0  0  0  0
    7.4350    1.1253    0.2293 H   0  0  0  0  0  0  0  0  0  0  0  0
    8.8496    1.3415    1.2544 H   0  0  0  0  0  0  0  0  0  0  0  0
    8.4229    2.5779    0.0616 H   0  0  0  0  0  0  0  0  0  0  0  0
    6.8910    4.3316    0.6506 H   0  0  0  0  0  0  0  0  0  0  0  0
    5.4499    5.4230    2.3171 H   0  0  0  0  0  0  0  0  0  0  0  0
    4.3602    6.5226    6.1047 H   0  0  0  0  0  0  0  0  0  0  0  0
   -0.8158    9.8485    7.3492 H   0  0  0  0  0  0  0  0  0  0  0  0
    3.4454   10.2042   10.0635 H   0  0  0  0  0  0  0  0  0  0  0  0
    1.2879   12.7278   10.9008 H   0  0  0  0  0  0  0  0  0  0  0  0
    1.2187   10.8709   12.8097 H   0  0  0  0  0  0  0  0  0  0  0  0
   -0.3273   12.8685   13.5338 H   0  0  0  0  0  0  0  0  0  0  0  0
   -2.5796   12.7212   12.1329 H   0  0  0  0  0  0  0  0  0  0  0  0
   -2.4213   10.6318   10.5477 H   0  0  0  0  0  0  0  0  0  0  0  0
   -0.1672    9.2928   11.1343 H   0  0  0  0  0  0  0  0  0  0  0  0
   -1.1057    9.6203   12.6093 H   0  0  0  0  0  0  0  0  0  0  0  0
   -0.9177   12.5803    9.5252 H   0  0  0  0  0  0  0  0  0  0  0  0
  1  2  2  0  0  0  0
  2  3  1  0  0  0  0
  3  4  2  0  0  0  0
  3  5  1  0  0  0  0
  5  6  2  0  0  0  0
  6  7  1  0  0  0  0
  7  8  2  0  0  0  0
  8  9  1  0  0  0  0
  9 10  2  0  0  0  0
 10 11  1  0  0  0  0
 11 12  2  0  0  0  0
 12 13  1  0  0  0  0
 13 14  3  0  0  0  0
 12 15  1  0  0  0  0
 15 16  3  0  0  0  0
  8 17  1  0  0  0  0
 17 18  1  0  0  0  0
 18 19  1  0  0  0  0
 19 20  2  0  0  0  0
 20 21  1  0  0  0  0
 21 22  1  0  0  0  0
 21 23  1  0  0  0  0
  1 24  1  0  0  0  0
 24 25  2  0  0  0  0
 25 26  1  0  0  0  0
 26 27  1  0  0  0  0
 27 28  2  0  0  0  0
 28 29  1  0  0  0  0
 29 30  2  0  0  0  0
 30 31  1  0  0  0  0
 30 32  1  0  0  0  0
 32 33  2  0  0  0  0
 26 34  1  0  0  0  0
 34 35  2  0  0  0  0
 35 36  1  0  0  0  0
 36 37  2  0  0  0  0
 37 38  1  0  0  0  0
 37 39  1  0  0  0  0
 39 40  2  0  0  0  0
 25 41  1  0  0  0  0
 41 42  1  0  0  0  0
 42 43  1  0  0  0  0
 43 44  2  0  0  0  0
 44 45  1  0  0  0  0
 45 46  1  0  0  0  0
 46 47  2  0  0  0  0
 47 48  1  0  0  0  0
 48 49  2  0  0  0  0
 49 50  1  0  0  0  0
 49 51  1  0  0  0  0
 51 52  2  0  0  0  0
 45 53  1  0  0  0  0
 53 54  2  0  0  0  0
 54 55  1  0  0  0  0
 55 56  2  0  0  0  0
 56 57  1  0  0  0  0
 56 58  1  0  0  0  0
 58 59  2  0  0  0  0
 44 60  1  0  0  0  0
 60 61  1  0  0  0  0
 43 62  1  0  0  0  0
 62 63  2  0  0  0  0
 63 64  1  0  0  0  0
 64 65  1  0  0  0  0
 65 66  2  0  0  0  0
 66 67  1  0  0  0  0
 67 68  2  0  0  0  0
 68 69  1  0  0  0  0
 69 70  1  0  0  0  0
 68 71  1  0  0  0  0
 71 72  2  0  0  0  0
 64 73  1  0  0  0  0
 73 74  2  0  0  0  0
 74 75  1  0  0  0  0
 75 76  2  0  0  0  0
 76 77  1  0  0  0  0
 77 78  1  0  0  0  0
 76 79  1  0  0  0  0
 79 80  2  0  0  0  0
 63 81  1  0  0  0  0
 81 82  1  0  0  0  0
 82 83  1  0  0  0  0
 83 84  2  0  0  0  0
 84 85  1  0  0  0  0
 85 86  1  0  0  0  0
 86 87  2  0  0  0  0
 87 88  1  0  0  0  0
 88 89  2  0  0  0  0
 89 90  1  0  0  0  0
 90 91  1  0  0  0  0
 89 92  1  0  0  0  0
 92 93  2  0  0  0  0
 85 94  1  0  0  0  0
 94 95  2  0  0  0  0
 95 96  1  0  0  0  0
 96 97  2  0  0  0  0
 97 98  1  0  0  0  0
 98 99  1  0  0  0  0
 97100  1  0  0  0  0
100101  2  0  0  0  0
 84102  1  0  0  0  0
102103  1  0  0  0  0
 83104  1  0  0  0  0
104105  2  0  0  0  0
105106  1  0  0  0  0
106107  1  0  0  0  0
107108  2  0  0  0  0
108109  1  0  0  0  0
109110  2  0  0  0  0
110111  1  0  0  0  0
110112  1  0  0  0  0
112113  2  0  0  0  0
106114  1  0  0  0  0
114115  2  0  0  0  0
115116  1  0  0  0  0
116117  2  0  0  0  0
117118  1  0  0  0  0
117119  1  0  0  0  0
119120  2  0  0  0  0
105121  1  0  0  0  0
121122  1  0  0  0  0
122123  1  0  0  0  0
123124  2  0  0  0  0
124125  1  0  0  0  0
125126  1  0  0  0  0
126127  2  0  0  0  0
127128  1  0  0  0  0
128129  2  0  0  0  0
129130  1  0  0  0  0
129131  1  0  0  0  0
131132  2  0  0  0  0
125133  1  0  0  0  0
133134  2  0  0  0  0
134135  1  0  0  0  0
135136  2  0  0  0  0
136137  1  0  0  0  0
136138  1  0  0  0  0
138139  2  0  0  0  0
124140  1  0  0  0  0
140141  1  0  0  0  0
123142  1  0  0  0  0
142143  2  0  0  0  0
143144  1  0  0  0  0
144145  2  0  0  0  0
144146  1  0  0  0  0
146147  2  0  0  0  0
147148  1  0  0  0  0
148149  2  0  0  0  0
149150  1  0  0  0  0
150151  2  0  0  0  0
151152  1  0  0  0  0
152153  2  0  0  0  0
153154  1  0  0  0  0
154155  3  0  0  0  0
153156  1  0  0  0  0
156157  3  0  0  0  0
149158  1  0  0  0  0
158159  1  0  0  0  0
159160  1  0  0  0  0
160161  2  0  0  0  0
161162  1  0  0  0  0
162163  1  0  0  0  0
162164  1  0  0  0  0
 11  2  1  0  0  0  0
 23 17  1  0  0  0  0
 61 24  1  0  0  0  0
103 62  1  0  0  0  0
141104  1  0  0  0  0
152143  1  0  0  0  0
164158  1  0  0  0  0
 10  5  1  0  0  0  0
 22 18  1  0  0  0  0
 33 27  1  0  0  0  0
 40 34  1  0  0  0  0
 60 41  2  0  0  0  0
 72 65  1  0  0  0  0
 80 73  1  0  0  0  0
102 81  2  0  0  0  0
113107  1  0  0  0  0
120114  1  0  0  0  0
140121  2  0  0  0  0
151146  1  0  0  0  0
163159  1  0  0  0  0
 23  7  1  0  0  0  0
 52 46  1  0  0  0  0
 59 53  1  0  0  0  0
 93 86  1  0  0  0  0
101 94  1  0  0  0  0
132126  1  0  0  0  0
139133  1  0  0  0  0
164148  1  0  0  0  0
  1165  1  0  0  0  0
  6166  1  0  0  0  0
  9167  1  0  0  0  0
 17168  1  0  0  0  0
 18169  1  0  0  0  0
 19170  1  0  0  0  0
 20171  1  0  0  0  0
 21172  1  0  0  0  0
 22173  1  0  0  0  0
 22174  1  0  0  0  0
 23175  1  0  0  0  0
 28176  1  0  0  0  0
 29177  1  0  0  0  0
 31178  1  0  0  0  0
 31179  1  0  0  0  0
 31180  1  0  0  0  0
 32181  1  0  0  0  0
 33182  1  0  0  0  0
 35183  1  0  0  0  0
 36184  1  0  0  0  0
 38185  1  0  0  0  0
 38186  1  0  0  0  0
 38187  1  0  0  0  0
 39188  1  0  0  0  0
 40189  1  0  0  0  0
 47190  1  0  0  0  0
 48191  1  0  0  0  0
 50192  1  0  0  0  0
 50193  1  0  0  0  0
 50194  1  0  0  0  0
 51195  1  0  0  0  0
 52196  1  0  0  0  0
 54197  1  0  0  0  0
 55198  1  0  0  0  0
 57199  1  0  0  0  0
 57200  1  0  0  0  0
 57201  1  0  0  0  0
 58202  1  0  0  0  0
 59203  1  0  0  0  0
 66204  1  0  0  0  0
 67205  1  0  0  0  0
 70206  1  0  0  0  0
 70207  1  0  0  0  0
 70208  1  0  0  0  0
 71209  1  0  0  0  0
 72210  1  0  0  0  0
 74211  1  0  0  0  0
 75212  1  0  0  0  0
 78213  1  0  0  0  0
 78214  1  0  0  0  0
 78215  1  0  0  0  0
 79216  1  0  0  0  0
 80217  1  0  0  0  0
 87218  1  0  0  0  0
 88219  1  0  0  0  0
 91220  1  0  0  0  0
 91221  1  0  0  0  0
 91222  1  0  0  0  0
 92223  1  0  0  0  0
 93224  1  0  0  0  0
 95225  1  0  0  0  0
 96226  1  0  0  0  0
 99227  1  0  0  0  0
 99228  1  0  0  0  0
 99229  1  0  0  0  0
100230  1  0  0  0  0
101231  1  0  0  0  0
108232  1  0  0  0  0
109233  1  0  0  0  0
111234  1  0  0  0  0
111235  1  0  0  0  0
111236  1  0  0  0  0
112237  1  0  0  0  0
113238  1  0  0  0  0
115239  1  0  0  0  0
116240  1  0  0  0  0
118241  1  0  0  0  0
118242  1  0  0  0  0
118243  1  0  0  0  0
119244  1  0  0  0  0
120245  1  0  0  0  0
127246  1  0  0  0  0
128247  1  0  0  0  0
130248  1  0  0  0  0
130249  1  0  0  0  0
130250  1  0  0  0  0
131251  1  0  0  0  0
132252  1  0  0  0  0
134253  1  0  0  0  0
135254  1  0  0  0  0
137255  1  0  0  0  0
137256  1  0  0  0  0
137257  1  0  0  0  0
138258  1  0  0  0  0
139259  1  0  0  0  0
142260  1  0  0  0  0
147261  1  0  0  0  0
150262  1  0  0  0  0
158263  1  0  0  0  0
159264  1  0  0  0  0
160265  1  0  0  0  0
161266  1  0  0  0  0
162267  1  0  0  0  0
163268  1  0  0  0  0
163269  1  0  0  0  0
164270  1  0  0  0  0
M  END
