
  xtb     02132203383D
 energy: -417.414763545632 gnorm: 0.000481550177 xtb: 6.4.1 (unknown)
260285  0     0  0            999 V2000
   -3.5962   -8.0525    2.5106 C   0  0  0  0  0  0  0  0  0  0  0  0
   -4.7893   -8.4898    1.9605 C   0  0  0  0  0  0  0  0  0  0  0  0
   -5.7587   -7.6073    1.3078 C   0  0  0  0  0  0  0  0  0  0  0  0
   -5.6577   -6.4073    1.0963 O   0  0  0  0  0  0  0  0  0  0  0  0
   -6.9589   -8.4333    1.0640 C   0  0  0  0  0  0  0  0  0  0  0  0
   -8.1553   -8.0281    0.4803 C   0  0  0  0  0  0  0  0  0  0  0  0
   -9.0941   -9.0276    0.3748 C   0  0  0  0  0  0  0  0  0  0  0  0
   -8.8628  -10.3320    0.8246 C   0  0  0  0  0  0  0  0  0  0  0  0
   -7.6865  -10.7438    1.4077 C   0  0  0  0  0  0  0  0  0  0  0  0
   -6.7195   -9.7437    1.5188 C   0  0  0  0  0  0  0  0  0  0  0  0
   -5.3617   -9.7992    2.0603 C   0  0  0  0  0  0  0  0  0  0  0  0
   -4.6924  -10.9373    2.4450 C   0  0  0  0  0  0  0  0  0  0  0  0
   -3.3371  -10.9572    2.8265 C   0  0  0  0  0  0  0  0  0  0  0  0
   -2.2297  -11.0528    3.1184 N   0  0  0  0  0  0  0  0  0  0  0  0
   -5.2432  -12.2299    2.4222 C   0  0  0  0  0  0  0  0  0  0  0  0
   -5.6318  -13.3119    2.4029 N   0  0  0  0  0  0  0  0  0  0  0  0
  -10.2382  -10.8028    0.4190 C   0  0  0  0  0  0  0  0  0  0  0  0
  -11.2753  -10.9610    1.5505 C   0  0  0  0  0  0  0  0  0  0  0  0
  -12.6031  -10.9542    0.8282 C   0  0  0  0  0  0  0  0  0  0  0  0
  -12.8226   -9.7180    0.3991 C   0  0  0  0  0  0  0  0  0  0  0  0
  -11.6467   -8.8686    0.8246 C   0  0  0  0  0  0  0  0  0  0  0  0
  -11.2956   -9.5504    2.1532 C   0  0  0  0  0  0  0  0  0  0  0  0
  -10.4958   -9.3467   -0.0857 C   0  0  0  0  0  0  0  0  0  0  0  0
   -2.8905   -6.9280    2.0980 C   0  0  0  0  0  0  0  0  0  0  0  0
   -2.8943   -6.2409    0.8599 C   0  0  0  0  0  0  0  0  0  0  0  0
   -3.3836   -6.6989   -0.3199 N   0  0  0  0  0  0  0  0  0  0  0  0
   -3.5469   -5.7904   -1.4054 C   0  0  0  0  0  0  0  0  0  0  0  0
   -2.6250   -5.7922   -2.4441 C   0  0  0  0  0  0  0  0  0  0  0  0
   -2.7687   -4.8993   -3.4887 C   0  0  0  0  0  0  0  0  0  0  0  0
   -3.8425   -4.0178   -3.5332 C   0  0  0  0  0  0  0  0  0  0  0  0
   -3.9642   -3.0150   -4.6388 C   0  0  0  0  0  0  0  0  0  0  0  0
   -4.7854   -4.0673   -2.5132 C   0  0  0  0  0  0  0  0  0  0  0  0
   -4.6361   -4.9324   -1.4459 C   0  0  0  0  0  0  0  0  0  0  0  0
   -3.6688   -8.0465   -0.5895 C   0  0  0  0  0  0  0  0  0  0  0  0
   -4.8155   -8.3766   -1.3063 C   0  0  0  0  0  0  0  0  0  0  0  0
   -5.1264   -9.7018   -1.5489 C   0  0  0  0  0  0  0  0  0  0  0  0
   -4.3007  -10.7253   -1.1046 C   0  0  0  0  0  0  0  0  0  0  0  0
   -4.6571  -12.1621   -1.3205 C   0  0  0  0  0  0  0  0  0  0  0  0
   -3.1275  -10.3822   -0.4362 C   0  0  0  0  0  0  0  0  0  0  0  0
   -2.8114   -9.0656   -0.1778 C   0  0  0  0  0  0  0  0  0  0  0  0
   -2.1904   -5.0241    0.9775 C   0  0  0  0  0  0  0  0  0  0  0  0
   -1.9431   -3.6714   -0.0754 S   0  0  0  0  0  0  0  0  0  0  0  0
   -1.0159   -2.8429    1.1628 C   0  0  0  0  0  0  0  0  0  0  0  0
   -0.8925   -3.5966    2.3190 C   0  0  0  0  0  0  0  0  0  0  0  0
   -0.2291   -3.1376    3.4670 N   0  0  0  0  0  0  0  0  0  0  0  0
    0.9291   -3.7999    3.8762 C   0  0  0  0  0  0  0  0  0  0  0  0
    1.7833   -4.3485    2.9198 C   0  0  0  0  0  0  0  0  0  0  0  0
    2.9400   -4.9948    3.3030 C   0  0  0  0  0  0  0  0  0  0  0  0
    3.2830   -5.1227    4.6438 C   0  0  0  0  0  0  0  0  0  0  0  0
    4.5379   -5.8369    5.0473 C   0  0  0  0  0  0  0  0  0  0  0  0
    2.4178   -4.5919    5.5919 C   0  0  0  0  0  0  0  0  0  0  0  0
    1.2575   -3.9403    5.2227 C   0  0  0  0  0  0  0  0  0  0  0  0
   -0.9317   -2.2791    4.3287 C   0  0  0  0  0  0  0  0  0  0  0  0
   -0.2416   -1.2974    5.0347 C   0  0  0  0  0  0  0  0  0  0  0  0
   -0.9114   -0.4691    5.9110 C   0  0  0  0  0  0  0  0  0  0  0  0
   -2.2845   -0.5855    6.1019 C   0  0  0  0  0  0  0  0  0  0  0  0
   -3.0053    0.3274    7.0464 C   0  0  0  0  0  0  0  0  0  0  0  0
   -2.9678   -1.5540    5.3795 C   0  0  0  0  0  0  0  0  0  0  0  0
   -2.3077   -2.3909    4.4984 C   0  0  0  0  0  0  0  0  0  0  0  0
   -1.5678   -4.8260    2.2058 C   0  0  0  0  0  0  0  0  0  0  0  0
   -1.8254   -6.1445    3.2839 S   0  0  0  0  0  0  0  0  0  0  0  0
   -0.3805   -1.6119    0.8545 C   0  0  0  0  0  0  0  0  0  0  0  0
   -0.7703   -0.6893   -0.1097 C   0  0  0  0  0  0  0  0  0  0  0  0
   -2.0308   -0.6225   -0.6685 N   0  0  0  0  0  0  0  0  0  0  0  0
   -2.1970   -0.0142   -1.9171 C   0  0  0  0  0  0  0  0  0  0  0  0
   -3.2226    0.9084   -2.1305 C   0  0  0  0  0  0  0  0  0  0  0  0
   -3.3385    1.5474   -3.3435 C   0  0  0  0  0  0  0  0  0  0  0  0
   -2.4412    1.2754   -4.3745 C   0  0  0  0  0  0  0  0  0  0  0  0
   -2.6795    2.1552   -5.8843 S   0  0  0  0  0  0  0  0  0  0  0  0
   -1.1095    1.9130   -6.7639 C   0  0  0  0  0  0  0  0  0  0  0  0
   -1.4439    0.3300   -4.1807 C   0  0  0  0  0  0  0  0  0  0  0  0
   -1.3229   -0.3072   -2.9605 C   0  0  0  0  0  0  0  0  0  0  0  0
   -3.1552   -0.9177    0.1220 C   0  0  0  0  0  0  0  0  0  0  0  0
   -4.2512   -1.5497   -0.4564 C   0  0  0  0  0  0  0  0  0  0  0  0
   -5.3245   -1.9444    0.3164 C   0  0  0  0  0  0  0  0  0  0  0  0
   -5.3244   -1.6965    1.6823 C   0  0  0  0  0  0  0  0  0  0  0  0
   -6.6151   -2.2188    2.7672 S   0  0  0  0  0  0  0  0  0  0  0  0
   -7.3693   -3.6128    1.8806 C   0  0  0  0  0  0  0  0  0  0  0  0
   -4.2655   -0.9895    2.2478 C   0  0  0  0  0  0  0  0  0  0  0  0
   -3.1844   -0.6160    1.4823 C   0  0  0  0  0  0  0  0  0  0  0  0
    0.2463    0.2646   -0.3299 C   0  0  0  0  0  0  0  0  0  0  0  0
    0.4223    1.5819   -1.4196 S   0  0  0  0  0  0  0  0  0  0  0  0
    1.9174    2.0738   -0.6242 C   0  0  0  0  0  0  0  0  0  0  0  0
    2.3192    1.1569    0.3352 C   0  0  0  0  0  0  0  0  0  0  0  0
    3.4781    1.2121    1.0929 N   0  0  0  0  0  0  0  0  0  0  0  0
    3.3882    0.8315    2.4429 C   0  0  0  0  0  0  0  0  0  0  0  0
    2.3586    1.3388    3.2335 C   0  0  0  0  0  0  0  0  0  0  0  0
    2.2564    0.9707    4.5553 C   0  0  0  0  0  0  0  0  0  0  0  0
    3.1655    0.0721    5.1121 C   0  0  0  0  0  0  0  0  0  0  0  0
    2.9231   -0.3496    6.8091 S   0  0  0  0  0  0  0  0  0  0  0  0
    4.0698   -1.7284    7.0771 C   0  0  0  0  0  0  0  0  0  0  0  0
    4.1897   -0.4375    4.3253 C   0  0  0  0  0  0  0  0  0  0  0  0
    4.3004   -0.0570    3.0026 C   0  0  0  0  0  0  0  0  0  0  0  0
    4.7351    1.3902    0.5129 C   0  0  0  0  0  0  0  0  0  0  0  0
    5.0153    0.9337   -0.7738 C   0  0  0  0  0  0  0  0  0  0  0  0
    6.2801    1.0810   -1.3110 C   0  0  0  0  0  0  0  0  0  0  0  0
    7.2865    1.6748   -0.5646 C   0  0  0  0  0  0  0  0  0  0  0  0
    8.9454    1.8580   -1.1456 S   0  0  0  0  0  0  0  0  0  0  0  0
    9.1162    0.4472   -2.2797 C   0  0  0  0  0  0  0  0  0  0  0  0
    7.0046    2.1576    0.7110 C   0  0  0  0  0  0  0  0  0  0  0  0
    5.7452    2.0180    1.2449 C   0  0  0  0  0  0  0  0  0  0  0  0
    1.3416    0.1412    0.5076 C   0  0  0  0  0  0  0  0  0  0  0  0
    1.1644   -1.1966    1.5934 S   0  0  0  0  0  0  0  0  0  0  0  0
    2.4180    3.3561   -1.0116 C   0  0  0  0  0  0  0  0  0  0  0  0
    1.5894    4.4401   -1.2837 C   0  0  0  0  0  0  0  0  0  0  0  0
    0.2057    4.4631   -1.1145 N   0  0  0  0  0  0  0  0  0  0  0  0
   -0.3566    4.0179    0.0865 C   0  0  0  0  0  0  0  0  0  0  0  0
   -1.5767    3.3418    0.1026 C   0  0  0  0  0  0  0  0  0  0  0  0
   -2.0792    2.8391    1.2857 C   0  0  0  0  0  0  0  0  0  0  0  0
   -1.3946    2.9959    2.4847 C   0  0  0  0  0  0  0  0  0  0  0  0
   -1.9117    2.4017    3.7593 C   0  0  0  0  0  0  0  0  0  0  0  0
   -0.1980    3.7039    2.4666 C   0  0  0  0  0  0  0  0  0  0  0  0
    0.3227    4.2027    1.2885 C   0  0  0  0  0  0  0  0  0  0  0  0
   -0.5808    4.8491   -2.2072 C   0  0  0  0  0  0  0  0  0  0  0  0
   -1.7872    5.5178   -2.0234 C   0  0  0  0  0  0  0  0  0  0  0  0
   -2.5543    5.8781   -3.1138 C   0  0  0  0  0  0  0  0  0  0  0  0
   -2.1363    5.6083   -4.4102 C   0  0  0  0  0  0  0  0  0  0  0  0
   -2.9725    5.9801   -5.5952 C   0  0  0  0  0  0  0  0  0  0  0  0
   -0.9182    4.9628   -4.5856 C   0  0  0  0  0  0  0  0  0  0  0  0
   -0.1527    4.5769   -3.5050 C   0  0  0  0  0  0  0  0  0  0  0  0
    2.3306    5.5507   -1.7361 C   0  0  0  0  0  0  0  0  0  0  0  0
    1.9204    7.1669   -2.1685 S   0  0  0  0  0  0  0  0  0  0  0  0
    3.6347    7.5755   -2.3403 C   0  0  0  0  0  0  0  0  0  0  0  0
    4.4638    6.4546   -2.1895 C   0  0  0  0  0  0  0  0  0  0  0  0
    5.7830    6.3248   -2.5265 N   0  0  0  0  0  0  0  0  0  0  0  0
    6.2174    5.1658   -3.2087 C   0  0  0  0  0  0  0  0  0  0  0  0
    5.3728    4.4836   -4.0834 C   0  0  0  0  0  0  0  0  0  0  0  0
    5.8421    3.4095   -4.8092 C   0  0  0  0  0  0  0  0  0  0  0  0
    7.1666    2.9983   -4.7113 C   0  0  0  0  0  0  0  0  0  0  0  0
    7.6658    1.8670   -5.5599 C   0  0  0  0  0  0  0  0  0  0  0  0
    8.0023    3.6822   -3.8398 C   0  0  0  0  0  0  0  0  0  0  0  0
    7.5379    4.7470   -3.0908 C   0  0  0  0  0  0  0  0  0  0  0  0
    6.6754    7.4302   -2.6481 C   0  0  0  0  0  0  0  0  0  0  0  0
    7.5496    7.7328   -1.6140 C   0  0  0  0  0  0  0  0  0  0  0  0
    8.4259    8.7965   -1.7427 C   0  0  0  0  0  0  0  0  0  0  0  0
    8.4515    9.5654   -2.8986 C   0  0  0  0  0  0  0  0  0  0  0  0
    9.3725   10.7382   -3.0311 C   0  0  0  0  0  0  0  0  0  0  0  0
    7.6008    9.2206   -3.9451 C   0  0  0  0  0  0  0  0  0  0  0  0
    6.7246    8.1595   -3.8297 C   0  0  0  0  0  0  0  0  0  0  0  0
    3.6948    5.3282   -1.8043 C   0  0  0  0  0  0  0  0  0  0  0  0
    4.1113    3.7317   -1.2775 S   0  0  0  0  0  0  0  0  0  0  0  0
    3.9430    8.9308   -2.5819 C   0  0  0  0  0  0  0  0  0  0  0  0
    4.9119    9.6169   -1.9027 C   0  0  0  0  0  0  0  0  0  0  0  0
    5.4191    9.1932   -0.5685 C   0  0  0  0  0  0  0  0  0  0  0  0
    5.1353    8.1845    0.0440 O   0  0  0  0  0  0  0  0  0  0  0  0
    6.2372   10.3229   -0.1088 C   0  0  0  0  0  0  0  0  0  0  0  0
    6.2406   11.3072   -1.0744 C   0  0  0  0  0  0  0  0  0  0  0  0
    7.2066   12.6724   -0.6719 S   0  0  0  0  0  0  0  0  0  0  0  0
    7.6250   11.9186    0.8565 C   0  0  0  0  0  0  0  0  0  0  0  0
    8.4521   12.4542    1.8308 C   0  0  0  0  0  0  0  0  0  0  0  0
    8.6784   11.7169    2.9761 C   0  0  0  0  0  0  0  0  0  0  0  0
    8.0931   10.4618    3.1524 C   0  0  0  0  0  0  0  0  0  0  0  0
    7.2704    9.9225    2.1901 C   0  0  0  0  0  0  0  0  0  0  0  0
    7.0235   10.6497    1.0239 C   0  0  0  0  0  0  0  0  0  0  0  0
    5.4549   10.9138   -2.2164 C   0  0  0  0  0  0  0  0  0  0  0  0
    5.3673   11.6002   -3.4039 C   0  0  0  0  0  0  0  0  0  0  0  0
    4.6906   11.1195   -4.5384 C   0  0  0  0  0  0  0  0  0  0  0  0
    4.1763   10.7557   -5.4992 N   0  0  0  0  0  0  0  0  0  0  0  0
    6.0332   12.8248   -3.5928 C   0  0  0  0  0  0  0  0  0  0  0  0
    6.5897   13.8153   -3.7611 N   0  0  0  0  0  0  0  0  0  0  0  0
   -3.1974   -8.5790    3.3694 H   0  0  0  0  0  0  0  0  0  0  0  0
   -8.2963   -7.0118    0.1454 H   0  0  0  0  0  0  0  0  0  0  0  0
   -7.5241  -11.7499    1.7572 H   0  0  0  0  0  0  0  0  0  0  0  0
  -10.2688  -11.6171   -0.3027 H   0  0  0  0  0  0  0  0  0  0  0  0
  -11.0894  -11.7919    2.2255 H   0  0  0  0  0  0  0  0  0  0  0  0
  -13.1997  -11.8318    0.6606 H   0  0  0  0  0  0  0  0  0  0  0  0
  -13.6391   -9.3567   -0.1986 H   0  0  0  0  0  0  0  0  0  0  0  0
  -11.8006   -7.7927    0.8389 H   0  0  0  0  0  0  0  0  0  0  0  0
  -12.0815   -9.4318    2.8974 H   0  0  0  0  0  0  0  0  0  0  0  0
  -10.3433   -9.2350    2.5753 H   0  0  0  0  0  0  0  0  0  0  0  0
  -10.6979   -9.1917   -1.1443 H   0  0  0  0  0  0  0  0  0  0  0  0
   -1.7935   -6.4811   -2.4185 H   0  0  0  0  0  0  0  0  0  0  0  0
   -2.0362   -4.8865   -4.2825 H   0  0  0  0  0  0  0  0  0  0  0  0
   -3.5390   -3.3991   -5.5629 H   0  0  0  0  0  0  0  0  0  0  0  0
   -5.0036   -2.7468   -4.8120 H   0  0  0  0  0  0  0  0  0  0  0  0
   -3.4223   -2.1056   -4.3714 H   0  0  0  0  0  0  0  0  0  0  0  0
   -5.6492   -3.4197   -2.5588 H   0  0  0  0  0  0  0  0  0  0  0  0
   -5.3520   -4.9663   -0.6398 H   0  0  0  0  0  0  0  0  0  0  0  0
   -5.4691   -7.5922   -1.6568 H   0  0  0  0  0  0  0  0  0  0  0  0
   -6.0342   -9.9413   -2.0836 H   0  0  0  0  0  0  0  0  0  0  0  0
   -5.0200  -12.6019   -0.3908 H   0  0  0  0  0  0  0  0  0  0  0  0
   -5.4372  -12.2622   -2.0708 H   0  0  0  0  0  0  0  0  0  0  0  0
   -3.7853  -12.7321   -1.6350 H   0  0  0  0  0  0  0  0  0  0  0  0
   -2.4561  -11.1611   -0.1055 H   0  0  0  0  0  0  0  0  0  0  0  0
   -1.9004   -8.8244    0.3488 H   0  0  0  0  0  0  0  0  0  0  0  0
    1.5368   -4.2567    1.8719 H   0  0  0  0  0  0  0  0  0  0  0  0
    3.5924   -5.4071    2.5464 H   0  0  0  0  0  0  0  0  0  0  0  0
    5.3736   -5.5348    4.4180 H   0  0  0  0  0  0  0  0  0  0  0  0
    4.7872   -5.6316    6.0859 H   0  0  0  0  0  0  0  0  0  0  0  0
    4.4095   -6.9137    4.9353 H   0  0  0  0  0  0  0  0  0  0  0  0
    2.6445   -4.7049    6.6432 H   0  0  0  0  0  0  0  0  0  0  0  0
    0.5970   -3.5487    5.9811 H   0  0  0  0  0  0  0  0  0  0  0  0
    0.8224   -1.2005    4.8902 H   0  0  0  0  0  0  0  0  0  0  0  0
   -0.3561    0.2729    6.4668 H   0  0  0  0  0  0  0  0  0  0  0  0
   -2.3884    0.5497    7.9143 H   0  0  0  0  0  0  0  0  0  0  0  0
   -3.2391    1.2705    6.5506 H   0  0  0  0  0  0  0  0  0  0  0  0
   -3.9387   -0.1190    7.3807 H   0  0  0  0  0  0  0  0  0  0  0  0
   -4.0330   -1.6734    5.5213 H   0  0  0  0  0  0  0  0  0  0  0  0
   -2.8618   -3.1430    3.9569 H   0  0  0  0  0  0  0  0  0  0  0  0
   -3.9116    1.1327   -1.3301 H   0  0  0  0  0  0  0  0  0  0  0  0
   -4.1148    2.2797   -3.5041 H   0  0  0  0  0  0  0  0  0  0  0  0
   -1.1295    2.6038   -7.6011 H   0  0  0  0  0  0  0  0  0  0  0  0
   -1.0355    0.8943   -7.1341 H   0  0  0  0  0  0  0  0  0  0  0  0
   -0.2859    2.1535   -6.0987 H   0  0  0  0  0  0  0  0  0  0  0  0
   -0.7558    0.0769   -4.9711 H   0  0  0  0  0  0  0  0  0  0  0  0
   -0.5481   -1.0449   -2.8118 H   0  0  0  0  0  0  0  0  0  0  0  0
   -4.2387   -1.7539   -1.5154 H   0  0  0  0  0  0  0  0  0  0  0  0
   -6.1508   -2.4535   -0.1516 H   0  0  0  0  0  0  0  0  0  0  0  0
   -7.9231   -3.2569    1.0163 H   0  0  0  0  0  0  0  0  0  0  0  0
   -8.0556   -4.0684    2.5881 H   0  0  0  0  0  0  0  0  0  0  0  0
   -6.6027   -4.3297    1.5994 H   0  0  0  0  0  0  0  0  0  0  0  0
   -4.2907   -0.7496    3.2981 H   0  0  0  0  0  0  0  0  0  0  0  0
   -2.3551   -0.0995    1.9412 H   0  0  0  0  0  0  0  0  0  0  0  0
    1.6434    2.0206    2.7987 H   0  0  0  0  0  0  0  0  0  0  0  0
    1.4686    1.3741    5.1719 H   0  0  0  0  0  0  0  0  0  0  0  0
    5.0971   -1.3784    7.0276 H   0  0  0  0  0  0  0  0  0  0  0  0
    3.8759   -2.5078    6.3452 H   0  0  0  0  0  0  0  0  0  0  0  0
    3.8559   -2.0951    8.0764 H   0  0  0  0  0  0  0  0  0  0  0  0
    4.9052   -1.1367    4.7260 H   0  0  0  0  0  0  0  0  0  0  0  0
    5.0973   -0.4587    2.3946 H   0  0  0  0  0  0  0  0  0  0  0  0
    4.2388    0.4543   -1.3515 H   0  0  0  0  0  0  0  0  0  0  0  0
    6.4709    0.7260   -2.3110 H   0  0  0  0  0  0  0  0  0  0  0  0
    8.5822    0.6397   -3.2041 H   0  0  0  0  0  0  0  0  0  0  0  0
   10.1786    0.3500   -2.4797 H   0  0  0  0  0  0  0  0  0  0  0  0
    8.7451   -0.4492   -1.7927 H   0  0  0  0  0  0  0  0  0  0  0  0
    7.7884    2.6377    1.2763 H   0  0  0  0  0  0  0  0  0  0  0  0
    5.5297    2.3869    2.2361 H   0  0  0  0  0  0  0  0  0  0  0  0
   -2.1128    3.1890   -0.8224 H   0  0  0  0  0  0  0  0  0  0  0  0
   -3.0191    2.3052    1.2743 H   0  0  0  0  0  0  0  0  0  0  0  0
   -1.7620    3.0861    4.5922 H   0  0  0  0  0  0  0  0  0  0  0  0
   -1.3790    1.4765    3.9893 H   0  0  0  0  0  0  0  0  0  0  0  0
   -2.9710    2.1693    3.6778 H   0  0  0  0  0  0  0  0  0  0  0  0
    0.3309    3.8761    3.3938 H   0  0  0  0  0  0  0  0  0  0  0  0
    1.2599    4.7404    1.2947 H   0  0  0  0  0  0  0  0  0  0  0  0
   -2.1178    5.7552   -1.0232 H   0  0  0  0  0  0  0  0  0  0  0  0
   -3.4919    6.3905   -2.9518 H   0  0  0  0  0  0  0  0  0  0  0  0
   -2.3712    6.4921   -6.3443 H   0  0  0  0  0  0  0  0  0  0  0  0
   -3.7955    6.6275   -5.3040 H   0  0  0  0  0  0  0  0  0  0  0  0
   -3.3849    5.0808   -6.0538 H   0  0  0  0  0  0  0  0  0  0  0  0
   -0.5700    4.7558   -5.5873 H   0  0  0  0  0  0  0  0  0  0  0  0
    0.7807    4.0531   -3.6575 H   0  0  0  0  0  0  0  0  0  0  0  0
    4.3527    4.8122   -4.2178 H   0  0  0  0  0  0  0  0  0  0  0  0
    5.1750    2.8975   -5.4882 H   0  0  0  0  0  0  0  0  0  0  0  0
    7.1254    0.9467   -5.3360 H   0  0  0  0  0  0  0  0  0  0  0  0
    7.5046    2.0902   -6.6140 H   0  0  0  0  0  0  0  0  0  0  0  0
    8.7291    1.7000   -5.4051 H   0  0  0  0  0  0  0  0  0  0  0  0
    9.0369    3.3881   -3.7431 H   0  0  0  0  0  0  0  0  0  0  0  0
    8.2080    5.2629   -2.4214 H   0  0  0  0  0  0  0  0  0  0  0  0
    7.5241    7.1470   -0.7076 H   0  0  0  0  0  0  0  0  0  0  0  0
    9.0942    9.0345   -0.9272 H   0  0  0  0  0  0  0  0  0  0  0  0
   10.1437   10.5298   -3.7723 H   0  0  0  0  0  0  0  0  0  0  0  0
    8.8264   11.6203   -3.3636 H   0  0  0  0  0  0  0  0  0  0  0  0
    9.8566   10.9629   -2.0839 H   0  0  0  0  0  0  0  0  0  0  0  0
    7.6219    9.7969   -4.8590 H   0  0  0  0  0  0  0  0  0  0  0  0
    6.0636    7.9059   -4.6455 H   0  0  0  0  0  0  0  0  0  0  0  0
    3.3020    9.4596   -3.2783 H   0  0  0  0  0  0  0  0  0  0  0  0
    8.9034   13.4242    1.6919 H   0  0  0  0  0  0  0  0  0  0  0  0
    9.3179   12.1180    3.7477 H   0  0  0  0  0  0  0  0  0  0  0  0
    8.2905    9.9108    4.0596 H   0  0  0  0  0  0  0  0  0  0  0  0
    6.8078    8.9557    2.3119 H   0  0  0  0  0  0  0  0  0  0  0  0
  1  2  2  0  0  0  0
  2  3  1  0  0  0  0
  3  4  2  0  0  0  0
  3  5  1  0  0  0  0
  5  6  2  0  0  0  0
  6  7  1  0  0  0  0
  7  8  2  0  0  0  0
  8  9  1  0  0  0  0
  9 10  2  0  0  0  0
 10 11  1  0  0  0  0
 11 12  2  0  0  0  0
 12 13  1  0  0  0  0
 13 14  3  0  0  0  0
 12 15  1  0  0  0  0
 15 16  3  0  0  0  0
  8 17  1  0  0  0  0
 17 18  1  0  0  0  0
 18 19  1  0  0  0  0
 19 20  2  0  0  0  0
 20 21  1  0  0  0  0
 21 22  1  0  0  0  0
 21 23  1  0  0  0  0
  1 24  1  0  0  0  0
 24 25  2  0  0  0  0
 25 26  1  0  0  0  0
 26 27  1  0  0  0  0
 27 28  2  0  0  0  0
 28 29  1  0  0  0  0
 29 30  2  0  0  0  0
 30 31  1  0  0  0  0
 30 32  1  0  0  0  0
 32 33  2  0  0  0  0
 26 34  1  0  0  0  0
 34 35  2  0  0  0  0
 35 36  1  0  0  0  0
 36 37  2  0  0  0  0
 37 38  1  0  0  0  0
 37 39  1  0  0  0  0
 39 40  2  0  0  0  0
 25 41  1  0  0  0  0
 41 42  1  0  0  0  0
 42 43  1  0  0  0  0
 43 44  2  0  0  0  0
 44 45  1  0  0  0  0
 45 46  1  0  0  0  0
 46 47  2  0  0  0  0
 47 48  1  0  0  0  0
 48 49  2  0  0  0  0
 49 50  1  0  0  0  0
 49 51  1  0  0  0  0
 51 52  2  0  0  0  0
 45 53  1  0  0  0  0
 53 54  2  0  0  0  0
 54 55  1  0  0  0  0
 55 56  2  0  0  0  0
 56 57  1  0  0  0  0
 56 58  1  0  0  0  0
 58 59  2  0  0  0  0
 44 60  1  0  0  0  0
 60 61  1  0  0  0  0
 43 62  1  0  0  0  0
 62 63  2  0  0  0  0
 63 64  1  0  0  0  0
 64 65  1  0  0  0  0
 65 66  2  0  0  0  0
 66 67  1  0  0  0  0
 67 68  2  0  0  0  0
 68 69  1  0  0  0  0
 69 70  1  0  0  0  0
 68 71  1  0  0  0  0
 71 72  2  0  0  0  0
 64 73  1  0  0  0  0
 73 74  2  0  0  0  0
 74 75  1  0  0  0  0
 75 76  2  0  0  0  0
 76 77  1  0  0  0  0
 77 78  1  0  0  0  0
 76 79  1  0  0  0  0
 79 80  2  0  0  0  0
 63 81  1  0  0  0  0
 81 82  1  0  0  0  0
 82 83  1  0  0  0  0
 83 84  2  0  0  0  0
 84 85  1  0  0  0  0
 85 86  1  0  0  0  0
 86 87  2  0  0  0  0
 87 88  1  0  0  0  0
 88 89  2  0  0  0  0
 89 90  1  0  0  0  0
 90 91  1  0  0  0  0
 89 92  1  0  0  0  0
 92 93  2  0  0  0  0
 85 94  1  0  0  0  0
 94 95  2  0  0  0  0
 95 96  1  0  0  0  0
 96 97  2  0  0  0  0
 97 98  1  0  0  0  0
 98 99  1  0  0  0  0
 97100  1  0  0  0  0
100101  2  0  0  0  0
 84102  1  0  0  0  0
102103  1  0  0  0  0
 83104  1  0  0  0  0
104105  2  0  0  0  0
105106  1  0  0  0  0
106107  1  0  0  0  0
107108  2  0  0  0  0
108109  1  0  0  0  0
109110  2  0  0  0  0
110111  1  0  0  0  0
110112  1  0  0  0  0
112113  2  0  0  0  0
106114  1  0  0  0  0
114115  2  0  0  0  0
115116  1  0  0  0  0
116117  2  0  0  0  0
117118  1  0  0  0  0
117119  1  0  0  0  0
119120  2  0  0  0  0
105121  1  0  0  0  0
121122  1  0  0  0  0
122123  1  0  0  0  0
123124  2  0  0  0  0
124125  1  0  0  0  0
125126  1  0  0  0  0
126127  2  0  0  0  0
127128  1  0  0  0  0
128129  2  0  0  0  0
129130  1  0  0  0  0
129131  1  0  0  0  0
131132  2  0  0  0  0
125133  1  0  0  0  0
133134  2  0  0  0  0
134135  1  0  0  0  0
135136  2  0  0  0  0
136137  1  0  0  0  0
136138  1  0  0  0  0
138139  2  0  0  0  0
124140  1  0  0  0  0
140141  1  0  0  0  0
123142  1  0  0  0  0
142143  2  0  0  0  0
143144  1  0  0  0  0
144145  2  0  0  0  0
144146  1  0  0  0  0
146147  2  0  0  0  0
147148  1  0  0  0  0
148149  1  0  0  0  0
149150  2  0  0  0  0
150151  1  0  0  0  0
151152  2  0  0  0  0
152153  1  0  0  0  0
153154  2  0  0  0  0
147155  1  0  0  0  0
155156  2  0  0  0  0
156157  1  0  0  0  0
157158  3  0  0  0  0
156159  1  0  0  0  0
159160  3  0  0  0  0
 11  2  1  0  0  0  0
 23 17  1  0  0  0  0
 61 24  1  0  0  0  0
103 62  1  0  0  0  0
141104  1  0  0  0  0
155143  1  0  0  0  0
 10  5  1  0  0  0  0
 22 18  1  0  0  0  0
 33 27  1  0  0  0  0
 40 34  1  0  0  0  0
 60 41  2  0  0  0  0
 72 65  1  0  0  0  0
 80 73  1  0  0  0  0
102 81  2  0  0  0  0
113107  1  0  0  0  0
120114  1  0  0  0  0
140121  2  0  0  0  0
154146  1  0  0  0  0
 23  7  1  0  0  0  0
 52 46  1  0  0  0  0
 59 53  1  0  0  0  0
 93 86  1  0  0  0  0
101 94  1  0  0  0  0
132126  1  0  0  0  0
139133  1  0  0  0  0
154149  1  0  0  0  0
  1161  1  0  0  0  0
  6162  1  0  0  0  0
  9163  1  0  0  0  0
 17164  1  0  0  0  0
 18165  1  0  0  0  0
 19166  1  0  0  0  0
 20167  1  0  0  0  0
 21168  1  0  0  0  0
 22169  1  0  0  0  0
 22170  1  0  0  0  0
 23171  1  0  0  0  0
 28172  1  0  0  0  0
 29173  1  0  0  0  0
 31174  1  0  0  0  0
 31175  1  0  0  0  0
 31176  1  0  0  0  0
 32177  1  0  0  0  0
 33178  1  0  0  0  0
 35179  1  0  0  0  0
 36180  1  0  0  0  0
 38181  1  0  0  0  0
 38182  1  0  0  0  0
 38183  1  0  0  0  0
 39184  1  0  0  0  0
 40185  1  0  0  0  0
 47186  1  0  0  0  0
 48187  1  0  0  0  0
 50188  1  0  0  0  0
 50189  1  0  0  0  0
 50190  1  0  0  0  0
 51191  1  0  0  0  0
 52192  1  0  0  0  0
 54193  1  0  0  0  0
 55194  1  0  0  0  0
 57195  1  0  0  0  0
 57196  1  0  0  0  0
 57197  1  0  0  0  0
 58198  1  0  0  0  0
 59199  1  0  0  0  0
 66200  1  0  0  0  0
 67201  1  0  0  0  0
 70202  1  0  0  0  0
 70203  1  0  0  0  0
 70204  1  0  0  0  0
 71205  1  0  0  0  0
 72206  1  0  0  0  0
 74207  1  0  0  0  0
 75208  1  0  0  0  0
 78209  1  0  0  0  0
 78210  1  0  0  0  0
 78211  1  0  0  0  0
 79212  1  0  0  0  0
 80213  1  0  0  0  0
 87214  1  0  0  0  0
 88215  1  0  0  0  0
 91216  1  0  0  0  0
 91217  1  0  0  0  0
 91218  1  0  0  0  0
 92219  1  0  0  0  0
 93220  1  0  0  0  0
 95221  1  0  0  0  0
 96222  1  0  0  0  0
 99223  1  0  0  0  0
 99224  1  0  0  0  0
 99225  1  0  0  0  0
100226  1  0  0  0  0
101227  1  0  0  0  0
108228  1  0  0  0  0
109229  1  0  0  0  0
111230  1  0  0  0  0
111231  1  0  0  0  0
111232  1  0  0  0  0
112233  1  0  0  0  0
113234  1  0  0  0  0
115235  1  0  0  0  0
116236  1  0  0  0  0
118237  1  0  0  0  0
118238  1  0  0  0  0
118239  1  0  0  0  0
119240  1  0  0  0  0
120241  1  0  0  0  0
127242  1  0  0  0  0
128243  1  0  0  0  0
130244  1  0  0  0  0
130245  1  0  0  0  0
130246  1  0  0  0  0
131247  1  0  0  0  0
132248  1  0  0  0  0
134249  1  0  0  0  0
135250  1  0  0  0  0
137251  1  0  0  0  0
137252  1  0  0  0  0
137253  1  0  0  0  0
138254  1  0  0  0  0
139255  1  0  0  0  0
142256  1  0  0  0  0
150257  1  0  0  0  0
151258  1  0  0  0  0
152259  1  0  0  0  0
153260  1  0  0  0  0
M  END
