230

C          1.17850        6.78770        0.34350
C          2.50180        6.76910        0.70170
C          3.10410        7.94040        1.38020
O          2.58190        9.01610        1.57850
C          4.45110        7.50390        1.80370
C          5.40130        8.25060        2.49530
C          6.59570        7.59880        2.69350
C          6.83100        6.29620        2.23570
C          5.90080        5.54610        1.55580
C          4.67980        6.19070        1.34780
C          3.50350        5.74710        0.59990
C          3.46710        4.66360       -0.25200
C          2.51830        4.49130       -1.27250
N          1.82520        4.30150       -2.17130
C          4.42310        3.63260       -0.27270
N          5.12760        2.72470       -0.30480
C          8.26040        6.29750        2.71940
C          8.61030        5.52780        4.01550
C          7.35460        5.49390        4.84930
C          7.12620        6.72450        5.28750
C          8.22450        7.61290        4.76010
C          9.39780        6.61910        4.75880
C          7.99690        7.74740        3.23490
C          0.30360        5.72170        0.07930
C          0.31680        4.37560        0.48890
N          1.15790        3.82190        1.42050
C          1.65470        4.57990        2.49650
C          0.89570        5.59190        3.07790
C          1.41940        6.35040        4.10330
C          2.70140        6.11510        4.58830
C          3.28080        6.97620        5.66480
C          3.43360        5.07170        4.03710
C          2.92430        4.31040        3.00290
C          1.33050        2.41730        1.47860
C          1.68390        1.69050        0.34460
C          1.88090        0.32680        0.43000
C          1.73220       -0.34960        1.63560
C          1.98860       -1.82210        1.71630
C          1.36940        0.38340        2.75860
C          1.17130        1.74870        2.68790
C         -0.72420        3.66000       -0.14230
S         -1.18390        1.99940       -0.16530
C         -2.44230        2.33810       -1.35820
C         -2.51480        3.67750       -1.67790
N         -3.43130        4.22950       -2.55750
C         -3.54260        3.65000       -3.83690
C         -2.38980        3.38580       -4.57190
C         -2.48410        2.82150       -5.82840
C         -3.72050        2.49380       -6.37140
C         -3.80840        1.84390       -7.71720
C         -4.86540        2.76500       -5.63100
C         -4.78520        3.34140       -4.37820
C         -4.08260        5.41900       -2.23100
C         -4.24760        5.79030       -0.89760
C         -4.87710        6.97620       -0.57380
C         -5.38570        7.81250       -1.55800
C         -6.07160        9.09800       -1.20810
C         -5.22920        7.43010       -2.88590
C         -4.58060        6.26050       -3.22510
C         -1.53590        4.42140       -0.96860
S         -1.08390        6.08090       -0.95590
C         -3.07170        1.14950       -1.86320
C         -3.54390        0.14870       -1.02690
N         -3.79800        0.31570        0.32290
C         -3.40480       -0.71570        1.19560
C         -4.23190       -1.12380        2.24020
C         -3.86860       -2.19070        3.03200
C         -2.68810       -2.89020        2.78510
S         -2.36970       -4.30140        3.79650
C         -0.60400       -4.63610        3.54620
C         -1.84850       -2.47240        1.76190
C         -2.19860       -1.38260        0.98920
C         -4.39570        1.49070        0.78500
C         -5.33890        2.15430        0.00340
C         -5.93450        3.31740        0.44680
C         -5.59880        3.83950        1.68870
S         -6.28730        5.32600        2.34880
C         -7.65180        5.71400        1.21640
C         -4.65080        3.18370        2.47160
C         -4.05340        2.02470        2.02730
C         -3.60560       -1.09070       -1.69510
S         -3.95650       -2.69180       -1.16390
C         -3.12280       -3.33980       -2.58340
C         -2.84490       -2.33580       -3.53320
N         -2.23470       -2.55980       -4.73730
C         -1.35050       -1.57160       -5.21930
C         -0.39760       -1.02920       -4.36240
C          0.41380        0.00770       -4.77500
C          0.29110        0.50900       -6.06450
S          1.22280        1.87280       -6.67670
C          2.06480        2.53070       -5.21110
C         -0.61930       -0.07720       -6.94480
C         -1.43610       -1.10450       -6.52820
C         -2.47450       -3.71970       -5.48420
C         -3.71000       -4.36660       -5.42770
C         -3.91560       -5.52770       -6.13570
C         -2.89860       -6.07130       -6.92140
S         -3.26880       -7.57270       -7.76350
C         -1.65670       -8.13000       -8.38470
C         -1.67880       -5.41230       -7.00550
C         -1.46980       -4.25020       -6.29100
C         -3.12400       -1.05810       -2.99740
S         -2.78890        0.57120       -3.49860
C         -2.42270       -4.54090       -2.40820
S         -0.93070       -4.86300       -3.26010
C         -0.29130       -5.86780       -1.95150
C         -1.28200       -6.02460       -0.98690
S         -1.37090       -6.90550        0.48960
C         -3.07950       -6.50770        0.67030
C         -3.78500       -7.04410        1.79310
C         -4.81610       -6.51030        2.54600
C         -5.24420       -7.34920        3.58550
C         -4.53520       -8.51990        3.64220
C         -4.67890       -9.64060        4.57160
O         -3.98130      -10.62540        4.55670
O         -5.69140       -9.43850        5.42550
C         -5.92630      -10.46500        6.39080
C         -4.98850      -10.33730        7.58250
S         -3.32560       -8.60100        2.41310
Cl        -5.46850       -4.94210        2.33900
C         -3.52230       -5.70660       -0.35330
C         -2.50230       -5.37680       -1.28130
Cl        -5.17330       -5.37530       -0.66670
C          1.00410       -6.36660       -2.08170
C          1.85380       -6.71280       -1.05270
C          1.71950       -6.23530        0.32250
O          0.82490       -5.53730        0.78210
C          2.94590       -6.65030        1.02560
C          3.27890       -6.39810        2.35290
C          4.50730       -6.89100        2.72460
C          5.34730       -7.57550        1.83810
C          5.03310       -7.82430        0.52190
C          3.78600       -7.33700        0.12610
C          3.11710       -7.39950       -1.17400
C          3.58330       -8.05200       -2.28820
C          4.81700       -8.72860       -2.36040
N          5.80870       -9.29310       -2.49240
C          2.88680       -8.15310       -3.50950
N          2.37730       -8.29090       -4.53040
C          6.41290       -7.78650        2.88480
C          6.52370       -9.19080        3.52770
C          5.15380       -9.81510        3.43140
C          4.35480       -9.16970        4.27050
C          5.17070       -8.09780        4.95010
C          6.53790       -8.79700        5.01350
C          5.47430       -7.02610        3.87400
H          0.73820        7.77880        0.28370
H          5.19050        9.26200        2.80740
H          6.09630        4.54730        1.20130
H          9.01450        6.16510        1.94570
H          9.10570        4.57390        3.85510
H          6.75810        4.61120        4.99000
H          6.29670        7.08410        5.86670
H          8.36860        8.55620        5.28060
H         10.26830        6.97590        4.21020
H          9.69460        6.31590        5.76190
H          8.58570        8.55410        2.80160
H         -0.10730        5.78150        2.72610
H          0.82110        7.13830        4.53580
H          3.84950        7.78920        5.21170
H          3.95120        6.40210        6.30030
H          2.49640        7.41410        6.27740
H          4.42600        4.86540        4.40830
H          3.50730        3.50400        2.58140
H          1.81060        2.19410       -0.60100
H          2.16770       -0.22140       -0.45520
H          3.05300       -2.02270        1.59330
H          1.46240       -2.35600        0.92730
H          1.67620       -2.22020        2.67800
H          1.23830       -0.11860        3.70620
H          0.89050        2.30460        3.57070
H         -1.42620        3.63990       -4.15500
H         -1.58710        2.63610       -6.39870
H         -4.77810        2.02150       -8.17570
H         -3.67110        0.76710       -7.61410
H         -3.02930        2.21840       -8.37690
H         -5.83510        2.51950       -6.04010
H         -5.67950        3.55460       -3.81080
H         -3.89120        5.14430       -0.10950
H         -4.97620        7.24890        0.46710
H         -6.28650        9.14610       -0.14340
H         -7.00380        9.20150       -1.76130
H         -5.43610        9.94490       -1.46710
H         -5.61140        8.06770       -3.67020
H         -4.45050        5.99720       -4.26400
H         -5.16230       -0.60570        2.41880
H         -4.50850       -2.50950        3.84040
H         -0.40410       -4.96750        2.53170
H         -0.03510       -3.74340        3.78970
H         -0.36300       -5.43190        4.24480
H         -0.92960       -2.99520        1.55190
H         -1.53410       -1.04990        0.20420
H         -5.61120        1.75280       -0.96150
H         -6.65530        3.80780       -0.18700
H         -8.16470        6.56270        1.65840
H         -8.32750        4.86610        1.15460
H         -7.26160        5.98650        0.23930
H         -4.38490        3.59990        3.43140
H         -3.31400        1.52490        2.63500
H         -0.30270       -1.42010       -3.35960
H          1.13190        0.41740       -4.08380
H          2.80570        1.82190       -4.85290
H          1.34270        2.77410       -4.43780
H          2.56050        3.43760       -5.54350
H         -0.68890        0.29980       -7.95350
H         -2.15470       -1.54220       -7.20500
H         -4.50550       -3.95620       -4.82410
H         -4.86830       -6.03200       -6.08900
H         -1.82900       -9.12100       -8.79310
H         -0.94730       -8.18610       -7.56450
H         -1.30560       -7.46660       -9.16970
H         -0.87710       -5.79910       -7.61260
H         -0.51230       -3.75490       -6.34300
H         -6.03160       -7.09820        4.27110
H         -5.79560      -11.44010        5.91020
H         -6.96770      -10.33320        6.69150
H         -5.24220      -11.08690        8.32650
H         -3.96090      -10.49100        7.26300
H         -5.07750       -9.34880        8.02680
H          1.37710       -6.41950       -3.09690
H          2.60390       -5.86210        3.00230
H          5.69400       -8.34520       -0.15080
H          7.38660       -7.35040        2.66960
H          7.35180       -9.79110        3.16060
H          4.89990      -10.59850        2.74180
H          3.29990       -9.30650        4.42130
H          4.76680       -7.70330        5.87910
H          7.35580       -8.12760        5.27720
H          6.53960       -9.65960        5.67810
H          5.83700       -6.09520        4.30650
