
  xtb     02132222533D
 energy: -372.951612107828 gnorm: 0.000435832592 xtb: 6.4.1 (unknown)
232256  0     0  0            999 V2000
   -7.2553    4.9799   -4.7143 C   0  0  0  0  0  0  0  0  0  0  0  0
   -7.6906    6.2665   -4.6621 C   0  0  0  0  0  0  0  0  0  0  0  0
   -8.9657    6.6324   -5.3408 C   0  0  0  0  0  0  0  0  0  0  0  0
   -9.6188    5.9254   -6.0754 O   0  0  0  0  0  0  0  0  0  0  0  0
   -9.2708    8.0033   -4.8926 C   0  0  0  0  0  0  0  0  0  0  0  0
  -10.4299    8.7368   -5.1423 C   0  0  0  0  0  0  0  0  0  0  0  0
  -10.4319    9.9894   -4.5778 C   0  0  0  0  0  0  0  0  0  0  0  0
   -9.3621   10.4799   -3.8161 C   0  0  0  0  0  0  0  0  0  0  0  0
   -8.2113    9.7717   -3.5677 C   0  0  0  0  0  0  0  0  0  0  0  0
   -8.1894    8.4945   -4.1339 C   0  0  0  0  0  0  0  0  0  0  0  0
   -7.1468    7.4720   -4.0823 C   0  0  0  0  0  0  0  0  0  0  0  0
   -5.8271    7.7102   -3.7995 C   0  0  0  0  0  0  0  0  0  0  0  0
   -4.8067    6.7447   -3.8976 C   0  0  0  0  0  0  0  0  0  0  0  0
   -3.9233    6.0154   -3.9801 N   0  0  0  0  0  0  0  0  0  0  0  0
   -5.3112    8.9816   -3.4768 C   0  0  0  0  0  0  0  0  0  0  0  0
   -4.8272    9.9995   -3.2550 N   0  0  0  0  0  0  0  0  0  0  0  0
  -10.0472   11.7984   -3.5558 C   0  0  0  0  0  0  0  0  0  0  0  0
   -9.5548   13.0052   -4.3817 C   0  0  0  0  0  0  0  0  0  0  0  0
  -10.6877   14.0007   -4.2788 C   0  0  0  0  0  0  0  0  0  0  0  0
  -11.6976   13.5390   -5.0052 C   0  0  0  0  0  0  0  0  0  0  0  0
  -11.2642   12.2235   -5.6112 C   0  0  0  0  0  0  0  0  0  0  0  0
   -9.7706   12.5071   -5.8165 C   0  0  0  0  0  0  0  0  0  0  0  0
  -11.2372   11.2546   -4.4101 C   0  0  0  0  0  0  0  0  0  0  0  0
   -6.3586    4.2911   -3.8563 C   0  0  0  0  0  0  0  0  0  0  0  0
   -6.3127    4.2885   -2.4653 C   0  0  0  0  0  0  0  0  0  0  0  0
   -7.1953    4.9833   -1.6273 N   0  0  0  0  0  0  0  0  0  0  0  0
   -6.9066    6.2958   -1.2279 C   0  0  0  0  0  0  0  0  0  0  0  0
   -5.5916    6.7028   -1.0194 C   0  0  0  0  0  0  0  0  0  0  0  0
   -5.3218    8.0044   -0.6431 C   0  0  0  0  0  0  0  0  0  0  0  0
   -6.3463    8.9259   -0.4556 C   0  0  0  0  0  0  0  0  0  0  0  0
   -6.0241   10.3396   -0.0863 C   0  0  0  0  0  0  0  0  0  0  0  0
   -7.6561    8.5052   -0.6534 C   0  0  0  0  0  0  0  0  0  0  0  0
   -7.9394    7.2104   -1.0419 C   0  0  0  0  0  0  0  0  0  0  0  0
   -8.1129    4.2002   -0.9150 C   0  0  0  0  0  0  0  0  0  0  0  0
   -8.6463    3.0550   -1.5041 C   0  0  0  0  0  0  0  0  0  0  0  0
   -9.5499    2.2706   -0.8149 C   0  0  0  0  0  0  0  0  0  0  0  0
   -9.9542    2.6006    0.4717 C   0  0  0  0  0  0  0  0  0  0  0  0
  -10.9558    1.7658    1.2098 C   0  0  0  0  0  0  0  0  0  0  0  0
   -9.4153    3.7423    1.0541 C   0  0  0  0  0  0  0  0  0  0  0  0
   -8.5038    4.5300    0.3815 C   0  0  0  0  0  0  0  0  0  0  0  0
   -5.4150    3.3111   -1.9948 C   0  0  0  0  0  0  0  0  0  0  0  0
   -4.8762    2.8444   -0.4234 S   0  0  0  0  0  0  0  0  0  0  0  0
   -3.7515    1.6766   -1.1233 C   0  0  0  0  0  0  0  0  0  0  0  0
   -3.7943    1.6814   -2.5155 C   0  0  0  0  0  0  0  0  0  0  0  0
   -3.0680    0.8701   -3.3809 N   0  0  0  0  0  0  0  0  0  0  0  0
   -3.7764    0.2971   -4.4496 C   0  0  0  0  0  0  0  0  0  0  0  0
   -3.2407    0.2495   -5.7338 C   0  0  0  0  0  0  0  0  0  0  0  0
   -3.9659   -0.3100   -6.7661 C   0  0  0  0  0  0  0  0  0  0  0  0
   -5.2408   -0.8234   -6.5572 C   0  0  0  0  0  0  0  0  0  0  0  0
   -6.0312   -1.3976   -7.6924 C   0  0  0  0  0  0  0  0  0  0  0  0
   -5.7707   -0.7657   -5.2745 C   0  0  0  0  0  0  0  0  0  0  0  0
   -5.0515   -0.2198   -4.2304 C   0  0  0  0  0  0  0  0  0  0  0  0
   -1.6711    0.8508   -3.3543 C   0  0  0  0  0  0  0  0  0  0  0  0
   -0.9782   -0.2952   -3.7492 C   0  0  0  0  0  0  0  0  0  0  0  0
    0.3961   -0.3357   -3.6675 C   0  0  0  0  0  0  0  0  0  0  0  0
    1.1232    0.7573   -3.2034 C   0  0  0  0  0  0  0  0  0  0  0  0
    2.6145    0.6757   -3.0839 C   0  0  0  0  0  0  0  0  0  0  0  0
    0.4294    1.9036   -2.8447 C   0  0  0  0  0  0  0  0  0  0  0  0
   -0.9502    1.9567   -2.9130 C   0  0  0  0  0  0  0  0  0  0  0  0
   -4.7610    2.5999   -2.9880 C   0  0  0  0  0  0  0  0  0  0  0  0
   -5.3032    3.0730   -4.5556 S   0  0  0  0  0  0  0  0  0  0  0  0
   -3.0079    0.8965   -0.2003 C   0  0  0  0  0  0  0  0  0  0  0  0
   -1.6683   -0.1293   -0.6482 S   0  0  0  0  0  0  0  0  0  0  0  0
   -1.4514   -0.6038    0.9976 C   0  0  0  0  0  0  0  0  0  0  0  0
   -0.4106   -1.3831    1.5447 C   0  0  0  0  0  0  0  0  0  0  0  0
   -0.2569   -1.4028    2.9253 C   0  0  0  0  0  0  0  0  0  0  0  0
   -1.0972   -0.7894    3.7755 O   0  0  0  0  0  0  0  0  0  0  0  0
   -2.4108   -0.4339    3.2955 C   0  0  0  0  0  0  0  0  0  0  0  0
   -3.3187   -1.6874    3.3772 C   0  0  0  0  0  0  0  0  0  0  0  0
   -3.4287   -2.2768    4.7780 C   0  0  0  0  0  0  0  0  0  0  0  0
   -2.9028    0.6842    4.2223 C   0  0  0  0  0  0  0  0  0  0  0  0
   -2.0846    1.9611    4.0867 C   0  0  0  0  0  0  0  0  0  0  0  0
   -2.3765   -0.0167    1.8456 C   0  0  0  0  0  0  0  0  0  0  0  0
   -3.2493    0.8271    1.1624 C   0  0  0  0  0  0  0  0  0  0  0  0
    0.9097   -2.0668    3.3309 C   0  0  0  0  0  0  0  0  0  0  0  0
    1.6390   -2.5594    2.2739 C   0  0  0  0  0  0  0  0  0  0  0  0
    0.8621   -2.2320    0.7451 S   0  0  0  0  0  0  0  0  0  0  0  0
    2.9227   -3.1801    2.3121 C   0  0  0  0  0  0  0  0  0  0  0  0
    4.0101   -2.7977    3.0880 C   0  0  0  0  0  0  0  0  0  0  0  0
    4.0488   -1.6711    3.8908 N   0  0  0  0  0  0  0  0  0  0  0  0
    3.3654   -0.5137    3.4894 C   0  0  0  0  0  0  0  0  0  0  0  0
    3.2913   -0.1694    2.1419 C   0  0  0  0  0  0  0  0  0  0  0  0
    2.5112    0.8890    1.7223 C   0  0  0  0  0  0  0  0  0  0  0  0
    1.8056    1.6411    2.6516 C   0  0  0  0  0  0  0  0  0  0  0  0
    0.7346    2.9765    2.2258 S   0  0  0  0  0  0  0  0  0  0  0  0
    0.5959    2.8585    0.4214 C   0  0  0  0  0  0  0  0  0  0  0  0
    1.9377    1.3485    4.0074 C   0  0  0  0  0  0  0  0  0  0  0  0
    2.7010    0.2807    4.4234 C   0  0  0  0  0  0  0  0  0  0  0  0
    4.8051   -1.6961    5.0690 C   0  0  0  0  0  0  0  0  0  0  0  0
    4.8759   -2.8591    5.8314 C   0  0  0  0  0  0  0  0  0  0  0  0
    5.6582   -2.9128    6.9684 C   0  0  0  0  0  0  0  0  0  0  0  0
    6.3775   -1.7957    7.3681 C   0  0  0  0  0  0  0  0  0  0  0  0
    7.4147   -1.7525    8.7954 S   0  0  0  0  0  0  0  0  0  0  0  0
    7.5995   -3.5030    9.2420 C   0  0  0  0  0  0  0  0  0  0  0  0
    6.2835   -0.6193    6.6257 C   0  0  0  0  0  0  0  0  0  0  0  0
    5.5116   -0.5682    5.4877 C   0  0  0  0  0  0  0  0  0  0  0  0
    5.1139   -3.6534    2.8569 C   0  0  0  0  0  0  0  0  0  0  0  0
    6.6900   -3.7835    3.5419 S   0  0  0  0  0  0  0  0  0  0  0  0
    7.0850   -5.1244    2.4535 C   0  0  0  0  0  0  0  0  0  0  0  0
    5.9899   -5.4828    1.6425 C   0  0  0  0  0  0  0  0  0  0  0  0
    5.8918   -6.5616    0.8034 N   0  0  0  0  0  0  0  0  0  0  0  0
    6.5900   -7.7538    1.0082 C   0  0  0  0  0  0  0  0  0  0  0  0
    7.0722   -8.4782   -0.0854 C   0  0  0  0  0  0  0  0  0  0  0  0
    7.8201   -9.6167    0.1100 C   0  0  0  0  0  0  0  0  0  0  0  0
    8.1033  -10.0678    1.3987 C   0  0  0  0  0  0  0  0  0  0  0  0
    9.1434  -11.4816    1.5249 S   0  0  0  0  0  0  0  0  0  0  0  0
    9.2639  -11.7979    3.3063 C   0  0  0  0  0  0  0  0  0  0  0  0
    7.5735   -9.3860    2.4886 C   0  0  0  0  0  0  0  0  0  0  0  0
    6.8267   -8.2423    2.2921 C   0  0  0  0  0  0  0  0  0  0  0  0
    5.0161   -6.4573   -0.2960 C   0  0  0  0  0  0  0  0  0  0  0  0
    5.0157   -5.3021   -1.0723 C   0  0  0  0  0  0  0  0  0  0  0  0
    4.0993   -5.1447   -2.0916 C   0  0  0  0  0  0  0  0  0  0  0  0
    3.1709   -6.1454   -2.3490 C   0  0  0  0  0  0  0  0  0  0  0  0
    1.9199   -6.0063   -3.5850 S   0  0  0  0  0  0  0  0  0  0  0  0
    1.7718   -4.2087   -3.8119 C   0  0  0  0  0  0  0  0  0  0  0  0
    3.2147   -7.3302   -1.6170 C   0  0  0  0  0  0  0  0  0  0  0  0
    4.1279   -7.4875   -0.5974 C   0  0  0  0  0  0  0  0  0  0  0  0
    4.8971   -4.6153    1.8802 C   0  0  0  0  0  0  0  0  0  0  0  0
    3.2932   -4.5118    1.2334 S   0  0  0  0  0  0  0  0  0  0  0  0
    8.3607   -5.6794    2.5868 C   0  0  0  0  0  0  0  0  0  0  0  0
    9.0245   -6.4249    1.6369 C   0  0  0  0  0  0  0  0  0  0  0  0
    8.8270   -6.2800    0.1855 C   0  0  0  0  0  0  0  0  0  0  0  0
    8.0516   -5.5312   -0.3807 O   0  0  0  0  0  0  0  0  0  0  0  0
    9.8561   -7.1346   -0.4443 C   0  0  0  0  0  0  0  0  0  0  0  0
   10.0693   -7.3307   -1.8045 C   0  0  0  0  0  0  0  0  0  0  0  0
   11.0724   -8.2272   -2.0915 C   0  0  0  0  0  0  0  0  0  0  0  0
   11.8156   -8.8746   -1.0976 C   0  0  0  0  0  0  0  0  0  0  0  0
   11.6297   -8.6740    0.2500 C   0  0  0  0  0  0  0  0  0  0  0  0
   10.6128   -7.7701    0.5600 C   0  0  0  0  0  0  0  0  0  0  0  0
   10.1045   -7.3427    1.8602 C   0  0  0  0  0  0  0  0  0  0  0  0
   10.4690   -7.8577    3.0817 C   0  0  0  0  0  0  0  0  0  0  0  0
   11.4742   -8.8212    3.2802 C   0  0  0  0  0  0  0  0  0  0  0  0
   12.2663   -9.6165    3.5281 N   0  0  0  0  0  0  0  0  0  0  0  0
    9.8138   -7.5518    4.2899 C   0  0  0  0  0  0  0  0  0  0  0  0
    9.2970   -7.3982    5.3054 N   0  0  0  0  0  0  0  0  0  0  0  0
   12.6329   -9.6494   -2.0995 C   0  0  0  0  0  0  0  0  0  0  0  0
   12.2687  -11.1370   -2.3279 C   0  0  0  0  0  0  0  0  0  0  0  0
   10.8027  -11.2815   -2.0007 C   0  0  0  0  0  0  0  0  0  0  0  0
   10.1148  -10.6668   -2.9539 C   0  0  0  0  0  0  0  0  0  0  0  0
   11.1023  -10.0894   -3.9370 C   0  0  0  0  0  0  0  0  0  0  0  0
   12.2084  -11.1539   -3.8639 C   0  0  0  0  0  0  0  0  0  0  0  0
   11.8121   -8.9206   -3.2098 C   0  0  0  0  0  0  0  0  0  0  0  0
   -7.7248    4.3694   -5.4820 H   0  0  0  0  0  0  0  0  0  0  0  0
  -11.2331    8.3215   -5.7306 H   0  0  0  0  0  0  0  0  0  0  0  0
   -7.3988   10.1519   -2.9721 H   0  0  0  0  0  0  0  0  0  0  0  0
  -10.2265   12.0428   -2.5103 H   0  0  0  0  0  0  0  0  0  0  0  0
   -8.5627   13.3618   -4.1189 H   0  0  0  0  0  0  0  0  0  0  0  0
  -10.6591   14.8814   -3.6642 H   0  0  0  0  0  0  0  0  0  0  0  0
  -12.6808   13.9568   -5.1184 H   0  0  0  0  0  0  0  0  0  0  0  0
  -11.8302   11.8702   -6.4690 H   0  0  0  0  0  0  0  0  0  0  0  0
   -9.1825   11.6281   -6.0736 H   0  0  0  0  0  0  0  0  0  0  0  0
   -9.5980   13.2893   -6.5538 H   0  0  0  0  0  0  0  0  0  0  0  0
  -12.2100   11.1392   -3.9352 H   0  0  0  0  0  0  0  0  0  0  0  0
   -4.7848    5.9968   -1.1491 H   0  0  0  0  0  0  0  0  0  0  0  0
   -4.2976    8.3126   -0.4923 H   0  0  0  0  0  0  0  0  0  0  0  0
   -6.9285   10.9103    0.1095 H   0  0  0  0  0  0  0  0  0  0  0  0
   -5.4781   10.8131   -0.9033 H   0  0  0  0  0  0  0  0  0  0  0  0
   -5.3891   10.3705    0.7974 H   0  0  0  0  0  0  0  0  0  0  0  0
   -8.4695    9.2033   -0.5140 H   0  0  0  0  0  0  0  0  0  0  0  0
   -8.9604    6.8968   -1.2048 H   0  0  0  0  0  0  0  0  0  0  0  0
   -8.3566    2.7826   -2.5083 H   0  0  0  0  0  0  0  0  0  0  0  0
   -9.9517    1.3880   -1.2916 H   0  0  0  0  0  0  0  0  0  0  0  0
  -10.6904    1.6843    2.2619 H   0  0  0  0  0  0  0  0  0  0  0  0
  -11.9431    2.2249    1.1492 H   0  0  0  0  0  0  0  0  0  0  0  0
  -11.0199    0.7676    0.7835 H   0  0  0  0  0  0  0  0  0  0  0  0
   -9.7060    4.0138    2.0589 H   0  0  0  0  0  0  0  0  0  0  0  0
   -8.0827    5.3993    0.8636 H   0  0  0  0  0  0  0  0  0  0  0  0
   -2.2599    0.6612   -5.9190 H   0  0  0  0  0  0  0  0  0  0  0  0
   -3.5376   -0.3379   -7.7576 H   0  0  0  0  0  0  0  0  0  0  0  0
   -6.5677   -0.6027   -8.2117 H   0  0  0  0  0  0  0  0  0  0  0  0
   -5.3780   -1.8859   -8.4121 H   0  0  0  0  0  0  0  0  0  0  0  0
   -6.7620   -2.1179   -7.3324 H   0  0  0  0  0  0  0  0  0  0  0  0
   -6.7592   -1.1600   -5.0873 H   0  0  0  0  0  0  0  0  0  0  0  0
   -5.4736   -0.1933   -3.2358 H   0  0  0  0  0  0  0  0  0  0  0  0
   -1.5310   -1.1555   -4.0953 H   0  0  0  0  0  0  0  0  0  0  0  0
    0.9193   -1.2350   -3.9594 H   0  0  0  0  0  0  0  0  0  0  0  0
    2.8888   -0.0432   -2.3112 H   0  0  0  0  0  0  0  0  0  0  0  0
    3.0392    1.6421   -2.8240 H   0  0  0  0  0  0  0  0  0  0  0  0
    3.0581    0.3415   -4.0204 H   0  0  0  0  0  0  0  0  0  0  0  0
    0.9721    2.7761   -2.5116 H   0  0  0  0  0  0  0  0  0  0  0  0
   -1.4734    2.8582   -2.6300 H   0  0  0  0  0  0  0  0  0  0  0  0
   -2.8969   -2.4404    2.7053 H   0  0  0  0  0  0  0  0  0  0  0  0
   -4.3066   -1.4196    2.9986 H   0  0  0  0  0  0  0  0  0  0  0  0
   -2.4386   -2.4003    5.2102 H   0  0  0  0  0  0  0  0  0  0  0  0
   -4.0178   -1.6369    5.4290 H   0  0  0  0  0  0  0  0  0  0  0  0
   -3.9101   -3.2507    4.7311 H   0  0  0  0  0  0  0  0  0  0  0  0
   -3.9537    0.8789    4.0056 H   0  0  0  0  0  0  0  0  0  0  0  0
   -2.8214    0.3226    5.2470 H   0  0  0  0  0  0  0  0  0  0  0  0
   -1.0372    1.7507    4.2824 H   0  0  0  0  0  0  0  0  0  0  0  0
   -2.1672    2.3810    3.0880 H   0  0  0  0  0  0  0  0  0  0  0  0
   -2.4298    2.7031    4.8019 H   0  0  0  0  0  0  0  0  0  0  0  0
   -4.0493    1.3764    1.6251 H   0  0  0  0  0  0  0  0  0  0  0  0
    1.1968   -2.1842    4.3586 H   0  0  0  0  0  0  0  0  0  0  0  0
    3.8373   -0.7476    1.4111 H   0  0  0  0  0  0  0  0  0  0  0  0
    2.4607    1.1130    0.6689 H   0  0  0  0  0  0  0  0  0  0  0  0
    0.2916    1.8563    0.1337 H   0  0  0  0  0  0  0  0  0  0  0  0
   -0.1723    3.5717    0.1393 H   0  0  0  0  0  0  0  0  0  0  0  0
    1.5394    3.1317   -0.0418 H   0  0  0  0  0  0  0  0  0  0  0  0
    1.4156    1.9566    4.7302 H   0  0  0  0  0  0  0  0  0  0  0  0
    2.7704    0.0420    5.4740 H   0  0  0  0  0  0  0  0  0  0  0  0
    4.3078   -3.7285    5.5337 H   0  0  0  0  0  0  0  0  0  0  0  0
    5.6920   -3.8299    7.5335 H   0  0  0  0  0  0  0  0  0  0  0  0
    7.9275   -4.0685    8.3751 H   0  0  0  0  0  0  0  0  0  0  0  0
    8.3636   -3.5292   10.0126 H   0  0  0  0  0  0  0  0  0  0  0  0
    6.6661   -3.8916    9.6392 H   0  0  0  0  0  0  0  0  0  0  0  0
    6.8385    0.2486    6.9470 H   0  0  0  0  0  0  0  0  0  0  0  0
    5.4603    0.3398    4.9061 H   0  0  0  0  0  0  0  0  0  0  0  0
    6.8741   -8.1236   -1.0853 H   0  0  0  0  0  0  0  0  0  0  0  0
    8.2210  -10.1588   -0.7317 H   0  0  0  0  0  0  0  0  0  0  0  0
    8.2771  -11.9921    3.7161 H   0  0  0  0  0  0  0  0  0  0  0  0
    9.7471  -10.9628    3.8047 H   0  0  0  0  0  0  0  0  0  0  0  0
    9.8846  -12.6835    3.4007 H   0  0  0  0  0  0  0  0  0  0  0  0
    7.7452   -9.7243    3.4978 H   0  0  0  0  0  0  0  0  0  0  0  0
    6.4310   -7.7182    3.1492 H   0  0  0  0  0  0  0  0  0  0  0  0
    5.7525   -4.5392   -0.8755 H   0  0  0  0  0  0  0  0  0  0  0  0
    4.1187   -4.2412   -2.6791 H   0  0  0  0  0  0  0  0  0  0  0  0
    0.8527   -4.0586   -4.3701 H   0  0  0  0  0  0  0  0  0  0  0  0
    2.6137   -3.8280   -4.3833 H   0  0  0  0  0  0  0  0  0  0  0  0
    1.7011   -3.7289   -2.8400 H   0  0  0  0  0  0  0  0  0  0  0  0
    2.5085   -8.1141   -1.8433 H   0  0  0  0  0  0  0  0  0  0  0  0
    4.1425   -8.3961   -0.0139 H   0  0  0  0  0  0  0  0  0  0  0  0
    8.8623   -5.4730    3.5251 H   0  0  0  0  0  0  0  0  0  0  0  0
    9.4713   -6.8164   -2.5410 H   0  0  0  0  0  0  0  0  0  0  0  0
   12.2168   -9.1697    1.0054 H   0  0  0  0  0  0  0  0  0  0  0  0
   13.7086   -9.4867   -2.0697 H   0  0  0  0  0  0  0  0  0  0  0  0
   12.9376  -11.8438   -1.8444 H   0  0  0  0  0  0  0  0  0  0  0  0
   10.4330  -11.7504   -1.1073 H   0  0  0  0  0  0  0  0  0  0  0  0
    9.0519  -10.5251   -3.0270 H   0  0  0  0  0  0  0  0  0  0  0  0
   10.7120   -9.8399   -4.9205 H   0  0  0  0  0  0  0  0  0  0  0  0
   13.1394  -10.8460   -4.3381 H   0  0  0  0  0  0  0  0  0  0  0  0
   11.8930  -12.1168   -4.2631 H   0  0  0  0  0  0  0  0  0  0  0  0
   12.3522   -8.2711   -3.8964 H   0  0  0  0  0  0  0  0  0  0  0  0
  1  2  2  0  0  0  0
  2  3  1  0  0  0  0
  3  4  2  0  0  0  0
  3  5  1  0  0  0  0
  5  6  2  0  0  0  0
  6  7  1  0  0  0  0
  7  8  2  0  0  0  0
  8  9  1  0  0  0  0
  9 10  2  0  0  0  0
 10 11  1  0  0  0  0
 11 12  2  0  0  0  0
 12 13  1  0  0  0  0
 13 14  3  0  0  0  0
 12 15  1  0  0  0  0
 15 16  3  0  0  0  0
  8 17  1  0  0  0  0
 17 18  1  0  0  0  0
 18 19  1  0  0  0  0
 19 20  2  0  0  0  0
 20 21  1  0  0  0  0
 21 22  1  0  0  0  0
 21 23  1  0  0  0  0
  1 24  1  0  0  0  0
 24 25  2  0  0  0  0
 25 26  1  0  0  0  0
 26 27  1  0  0  0  0
 27 28  2  0  0  0  0
 28 29  1  0  0  0  0
 29 30  2  0  0  0  0
 30 31  1  0  0  0  0
 30 32  1  0  0  0  0
 32 33  2  0  0  0  0
 26 34  1  0  0  0  0
 34 35  2  0  0  0  0
 35 36  1  0  0  0  0
 36 37  2  0  0  0  0
 37 38  1  0  0  0  0
 37 39  1  0  0  0  0
 39 40  2  0  0  0  0
 25 41  1  0  0  0  0
 41 42  1  0  0  0  0
 42 43  1  0  0  0  0
 43 44  2  0  0  0  0
 44 45  1  0  0  0  0
 45 46  1  0  0  0  0
 46 47  2  0  0  0  0
 47 48  1  0  0  0  0
 48 49  2  0  0  0  0
 49 50  1  0  0  0  0
 49 51  1  0  0  0  0
 51 52  2  0  0  0  0
 45 53  1  0  0  0  0
 53 54  2  0  0  0  0
 54 55  1  0  0  0  0
 55 56  2  0  0  0  0
 56 57  1  0  0  0  0
 56 58  1  0  0  0  0
 58 59  2  0  0  0  0
 44 60  1  0  0  0  0
 60 61  1  0  0  0  0
 43 62  1  0  0  0  0
 62 63  1  0  0  0  0
 63 64  1  0  0  0  0
 64 65  1  0  0  0  0
 65 66  2  0  0  0  0
 66 67  1  0  0  0  0
 67 68  1  0  0  0  0
 68 69  1  0  0  0  0
 69 70  1  0  0  0  0
 68 71  1  0  0  0  0
 71 72  1  0  0  0  0
 68 73  1  0  0  0  0
 73 74  1  0  0  0  0
 66 75  1  0  0  0  0
 75 76  2  0  0  0  0
 76 77  1  0  0  0  0
 76 78  1  0  0  0  0
 78 79  2  0  0  0  0
 79 80  1  0  0  0  0
 80 81  1  0  0  0  0
 81 82  2  0  0  0  0
 82 83  1  0  0  0  0
 83 84  2  0  0  0  0
 84 85  1  0  0  0  0
 85 86  1  0  0  0  0
 84 87  1  0  0  0  0
 87 88  2  0  0  0  0
 80 89  1  0  0  0  0
 89 90  2  0  0  0  0
 90 91  1  0  0  0  0
 91 92  2  0  0  0  0
 92 93  1  0  0  0  0
 93 94  1  0  0  0  0
 92 95  1  0  0  0  0
 95 96  2  0  0  0  0
 79 97  1  0  0  0  0
 97 98  1  0  0  0  0
 98 99  1  0  0  0  0
 99100  2  0  0  0  0
100101  1  0  0  0  0
101102  1  0  0  0  0
102103  2  0  0  0  0
103104  1  0  0  0  0
104105  2  0  0  0  0
105106  1  0  0  0  0
106107  1  0  0  0  0
105108  1  0  0  0  0
108109  2  0  0  0  0
101110  1  0  0  0  0
110111  2  0  0  0  0
111112  1  0  0  0  0
112113  2  0  0  0  0
113114  1  0  0  0  0
114115  1  0  0  0  0
113116  1  0  0  0  0
116117  2  0  0  0  0
100118  1  0  0  0  0
118119  1  0  0  0  0
 99120  1  0  0  0  0
120121  2  0  0  0  0
121122  1  0  0  0  0
122123  2  0  0  0  0
122124  1  0  0  0  0
124125  2  0  0  0  0
125126  1  0  0  0  0
126127  2  0  0  0  0
127128  1  0  0  0  0
128129  2  0  0  0  0
129130  1  0  0  0  0
130131  2  0  0  0  0
131132  1  0  0  0  0
132133  3  0  0  0  0
131134  1  0  0  0  0
134135  3  0  0  0  0
127136  1  0  0  0  0
136137  1  0  0  0  0
137138  1  0  0  0  0
138139  2  0  0  0  0
139140  1  0  0  0  0
140141  1  0  0  0  0
140142  1  0  0  0  0
 11  2  1  0  0  0  0
 23 17  1  0  0  0  0
 61 24  1  0  0  0  0
 74 62  2  0  0  0  0
119 78  1  0  0  0  0
130121  1  0  0  0  0
142136  1  0  0  0  0
 10  5  1  0  0  0  0
 22 18  1  0  0  0  0
 33 27  1  0  0  0  0
 40 34  1  0  0  0  0
 60 41  2  0  0  0  0
 73 64  2  0  0  0  0
 88 81  1  0  0  0  0
 96 89  1  0  0  0  0
118 97  2  0  0  0  0
129124  1  0  0  0  0
141137  1  0  0  0  0
 23  7  1  0  0  0  0
 52 46  1  0  0  0  0
 59 53  1  0  0  0  0
 77 65  1  0  0  0  0
109102  1  0  0  0  0
117110  1  0  0  0  0
142126  1  0  0  0  0
  1143  1  0  0  0  0
  6144  1  0  0  0  0
  9145  1  0  0  0  0
 17146  1  0  0  0  0
 18147  1  0  0  0  0
 19148  1  0  0  0  0
 20149  1  0  0  0  0
 21150  1  0  0  0  0
 22151  1  0  0  0  0
 22152  1  0  0  0  0
 23153  1  0  0  0  0
 28154  1  0  0  0  0
 29155  1  0  0  0  0
 31156  1  0  0  0  0
 31157  1  0  0  0  0
 31158  1  0  0  0  0
 32159  1  0  0  0  0
 33160  1  0  0  0  0
 35161  1  0  0  0  0
 36162  1  0  0  0  0
 38163  1  0  0  0  0
 38164  1  0  0  0  0
 38165  1  0  0  0  0
 39166  1  0  0  0  0
 40167  1  0  0  0  0
 47168  1  0  0  0  0
 48169  1  0  0  0  0
 50170  1  0  0  0  0
 50171  1  0  0  0  0
 50172  1  0  0  0  0
 51173  1  0  0  0  0
 52174  1  0  0  0  0
 54175  1  0  0  0  0
 55176  1  0  0  0  0
 57177  1  0  0  0  0
 57178  1  0  0  0  0
 57179  1  0  0  0  0
 58180  1  0  0  0  0
 59181  1  0  0  0  0
 69182  1  0  0  0  0
 69183  1  0  0  0  0
 70184  1  0  0  0  0
 70185  1  0  0  0  0
 70186  1  0  0  0  0
 71187  1  0  0  0  0
 71188  1  0  0  0  0
 72189  1  0  0  0  0
 72190  1  0  0  0  0
 72191  1  0  0  0  0
 74192  1  0  0  0  0
 75193  1  0  0  0  0
 82194  1  0  0  0  0
 83195  1  0  0  0  0
 86196  1  0  0  0  0
 86197  1  0  0  0  0
 86198  1  0  0  0  0
 87199  1  0  0  0  0
 88200  1  0  0  0  0
 90201  1  0  0  0  0
 91202  1  0  0  0  0
 94203  1  0  0  0  0
 94204  1  0  0  0  0
 94205  1  0  0  0  0
 95206  1  0  0  0  0
 96207  1  0  0  0  0
103208  1  0  0  0  0
104209  1  0  0  0  0
107210  1  0  0  0  0
107211  1  0  0  0  0
107212  1  0  0  0  0
108213  1  0  0  0  0
109214  1  0  0  0  0
111215  1  0  0  0  0
112216  1  0  0  0  0
115217  1  0  0  0  0
115218  1  0  0  0  0
115219  1  0  0  0  0
116220  1  0  0  0  0
117221  1  0  0  0  0
120222  1  0  0  0  0
125223  1  0  0  0  0
128224  1  0  0  0  0
136225  1  0  0  0  0
137226  1  0  0  0  0
138227  1  0  0  0  0
139228  1  0  0  0  0
140229  1  0  0  0  0
141230  1  0  0  0  0
141231  1  0  0  0  0
142232  1  0  0  0  0
M  END
