175

C         -4.86910        3.50990       -6.48500
C         -5.46150        2.44930       -7.08130
C         -5.39580        1.06280       -6.53030
O         -4.73490        0.67320       -5.59300
C         -6.40870        0.29630       -7.27180
C         -6.74060       -1.04300       -7.07760
C         -7.75200       -1.49250       -7.89080
C         -8.39740       -0.66850       -8.82440
C         -8.07900        0.65290       -9.02850
C         -7.04520        1.12980       -8.21590
C         -6.43410        2.45180       -8.16040
C         -6.65120        3.48510       -9.03110
C         -7.58920        3.46080      -10.08460
N         -8.34000        3.50670      -10.95150
C         -5.91680        4.68920       -9.02280
N         -5.32890        5.67220       -9.10170
C         -9.32430       -1.77010       -9.27300
C        -10.78150       -1.74600       -8.74780
C        -10.75090       -1.02010       -7.42560
C        -10.13650       -1.80190       -6.54800
C         -9.73990       -3.07110       -7.26120
C        -10.90410       -3.19740       -8.25670
C         -8.60080       -2.68890       -8.23860
C         -3.83880        3.33920       -5.48860
C         -3.84540        3.96580       -4.25760
F         -4.83500        4.82230       -3.96840
C         -2.89420        3.71450       -3.25010
F         -3.04870        4.37240       -2.08810
C         -1.80730        2.87070       -3.41190
C         -1.75140        2.23270       -4.68160
C         -2.74350        2.46440       -5.69700
N         -2.39580        1.75840       -6.75370
O         -1.28910        1.10040       -6.41000
N         -0.88670        1.36900       -5.17220
C         -0.83700        2.59550       -2.39530
C          0.53520        2.38280       -2.55670
N          1.25900        2.71690       -3.67550
C          0.75740        3.67320       -4.57480
C          0.15070        4.83750       -4.10140
C         -0.53370        5.66220       -4.96410
C         -0.62440        5.34510       -6.31960
S         -1.68590        6.34490       -7.30860
C         -2.05870        5.26800       -8.72120
C          0.09780        4.26550       -6.81350
C          0.78790        3.43900       -5.94770
C          2.42660        2.01680       -4.00680
C          3.51090        2.70210       -4.55580
C          4.65740        2.02240       -4.89590
C          4.75020        0.64550       -4.69270
S          6.27180       -0.11400       -5.16230
C          6.13300       -1.80380       -4.51520
C          3.66760       -0.04070       -4.15860
C          2.51400        0.64060       -3.82230
C          1.10490        1.89120       -1.35570
S          2.70610        1.41360       -0.87520
C          2.08680        0.92300        0.68830
C          0.75900        1.30610        0.89490
N          0.14240        1.31830        2.11860
C          0.90580        1.51900        3.28500
C          1.95220        2.44210        3.29570
C          2.72380        2.59820        4.42310
C          2.46810        1.84370        5.56880
S          3.52850        2.12720        6.94370
C          3.05780        0.83320        8.12330
C          1.40690        0.94840        5.57160
C          0.63500        0.78860        4.43740
C         -1.24980        1.19910        2.21100
C         -1.93650        0.29310        1.40200
C         -3.30730        0.20000        1.47950
C         -4.02230        1.00260        2.36740
S         -5.77320        0.80010        2.37140
C         -6.36400        2.10820        3.48330
C         -3.33800        1.88780        3.19130
C         -1.96350        1.98460        3.11130
C          0.20110        1.80760       -0.30460
S         -1.37400        2.36160       -0.74200
C          2.90770        0.14320        1.54900
C          2.41180       -0.84460        2.39690
F          1.10620       -1.17780        2.33900
C          3.23330       -1.60370        3.22310
F          2.65830       -2.62230        3.87790
C          4.61410       -1.42260        3.27040
C          5.16150       -0.49050        2.33540
N          6.49320       -0.34180        2.26050
C          7.00290        0.47070        1.36720
C          8.49540        0.59440        1.32420
C          9.18580       -0.26120        2.37780
C          6.15770        1.19840        0.47900
N          4.85450        1.08460        0.56760
C          4.32550        0.25940        1.48090
C          6.67160        2.06390       -0.62820
C          6.80390        1.22880       -1.90360
C          5.51760       -2.21490        4.04190
C          5.28060       -2.82390        5.23450
C          4.16650       -2.51970        6.16410
O          3.39050       -1.58680        6.10950
C          4.27100       -3.50490        7.25420
C          3.37860       -3.68200        8.30970
C          3.70840       -4.71370        9.15460
C          4.85300       -5.50230        8.97390
C          5.75220       -5.32570        7.94990
C          5.42930       -4.28700        7.07000
C          6.11460       -3.83510        5.86190
C          7.31000       -4.31640        5.39570
C          7.96330       -3.90670        4.21410
N          8.56870       -3.65230        3.27130
C          8.08210       -5.30040        6.04900
N          8.76540       -6.09130        6.52450
C          4.54350       -6.36720       10.17030
C          3.95380       -7.76230        9.87200
C          3.31580       -8.17270       11.17960
C          2.23230       -7.42640       11.35160
C          2.11960       -6.49920       10.16300
C          2.69750       -7.40420        9.06730
C          3.26750       -5.48810       10.37160
H         -5.18420        4.52370       -6.69770
H         -6.22170       -1.64000       -6.34420
H         -8.58580        1.27600       -9.74670
H         -9.26760       -2.04130      -10.32520
H        -11.51500       -1.39760       -9.46990
H        -11.11790       -0.02060       -7.28270
H         -9.88700       -1.58630       -5.52560
H         -9.52470       -3.92950       -6.63030
H        -11.85610       -3.39720       -7.76750
H        -10.72920       -3.93630       -9.03750
H         -8.06690       -3.55890       -8.61560
H          0.18720        5.06970       -3.04760
H         -1.03270        6.54570       -4.59750
H         -2.26860        4.26300       -8.36500
H         -1.23490        5.27180       -9.42910
H         -2.94860        5.68860       -9.18100
H          0.10450        4.04180       -7.86820
H          1.31070        2.57560       -6.33040
H          3.44460        3.76870       -4.70930
H          5.49980        2.54750       -5.31900
H          7.10170       -2.26300       -4.68630
H          5.92100       -1.77270       -3.45060
H          5.36740       -2.35210       -5.05620
H          3.70190       -1.10800       -4.01270
H          1.66230        0.10010       -3.43980
H          2.15860        3.03310        2.41580
H          3.53460        3.31050        4.43410
H          3.79270        0.87800        8.92130
H          3.10320       -0.12900        7.62110
H          2.06700        1.03350        8.52130
H          1.18280        0.35310        6.43990
H         -0.17590        0.07580        4.43450
H         -1.38460       -0.34550        0.72970
H         -3.84320       -0.49840        0.85570
H         -7.44760        2.05620        3.44470
H         -6.02380        1.92120        4.49780
H         -6.02790        3.07610        3.12360
H         -3.86230        2.51380        3.89480
H         -1.43600        2.68170        3.74550
H          8.75960        1.64650        1.46960
H          8.84240        0.30980        0.32710
H         10.26340       -0.13550        2.31160
H          8.94580       -1.31120        2.23890
H          8.85810        0.03020        3.37180
H          5.94640        2.85860       -0.80560
H          7.63260        2.50450       -0.36450
H          7.50070        0.40550       -1.76130
H          5.83080        0.82440       -2.17070
H          7.16010        1.84480       -2.72450
H          6.49250       -2.31450        3.58330
H          2.50610       -3.05540        8.41080
H          6.62890       -5.93920        7.82810
H          5.29660       -6.38210       10.95560
H          4.65190       -8.46510        9.42580
H          3.73460       -8.90110       11.84880
H          1.56510       -7.40670       12.19340
H          1.14590       -6.05200        9.98170
H          2.90090       -6.89160        8.12900
H          2.06910       -8.27290        8.87800
H          3.16880       -4.91540       11.29200
