226

C          4.52760       -6.04210        2.65070
C          4.96430       -6.01850        3.95800
C          4.94830       -4.86700        4.85980
O          4.45050       -3.76910        4.66860
C          5.68050       -5.28040        6.07160
C          5.94060       -4.50720        7.19910
C          6.65480       -5.16250        8.17370
C          7.08170       -6.48850        8.03350
C          6.83170       -7.26210        6.92390
C          6.10340       -6.61580        5.92260
C          5.63170       -7.10800        4.62690
C          5.78000       -8.39620        4.16810
C          6.50830       -9.40190        4.83220
N          7.09920      -10.26830        5.30210
C          5.20060       -8.92070        2.99750
N          4.73550       -9.44770        2.08690
C          7.73650       -6.50560        9.39240
C          6.99440       -7.22930       10.54290
C          5.52550       -7.18110       10.20310
C          5.12010       -5.92540       10.33660
C          6.30780       -5.10170       10.76870
C          7.05870       -6.13640       11.62190
C          7.25950       -5.02720        9.54910
C          3.88110       -5.06750        1.89610
C          3.52110       -5.24840        0.53380
N          3.92290       -6.28480       -0.26730
C          5.20540       -6.85670       -0.17840
C          5.37710       -8.21750       -0.42040
C          6.63340       -8.78150       -0.32720
C          7.74190       -8.01670        0.01650
C          9.08800       -8.65680        0.16110
C          7.56290       -6.65560        0.23520
C          6.31530       -6.07400        0.13040
C          3.06160       -6.71440       -1.29530
C          1.70640       -6.90030       -1.03570
C          0.85910       -7.31340       -2.04360
C          1.33620       -7.55880       -3.32590
C          0.40380       -7.98240       -4.41860
C          2.69270       -7.38240       -3.57130
C          3.55040       -6.96380       -2.57370
C          2.68250       -4.21100        0.09870
S          1.90090       -3.83300       -1.40420
C          1.23630       -2.35170       -0.71250
C          1.66920       -2.14340        0.59520
N          1.38920       -1.05060        1.39950
C          1.52560        0.26460        0.95290
C          0.87270        1.29820        1.62420
C          0.97630        2.59970        1.17940
C          1.72640        2.91660        0.05320
C          1.81610        4.32500       -0.44800
C          2.38600        1.88530       -0.60460
C          2.29740        0.58000       -0.16480
C          1.22910       -1.32840        2.77240
C          1.94190       -0.63130        3.74300
C          1.81620       -0.97860        5.07190
C          0.99000       -2.02450        5.46790
C          0.91510       -2.42590        6.90860
C          0.27020       -2.70310        4.49390
C          0.38170       -2.36150        3.16020
C          2.45990       -3.22500        1.05100
S          3.27260       -3.54020        2.54200
C          0.31650       -1.62010       -1.50030
C         -0.02340       -1.88460       -2.81500
C         -1.03680       -1.06910       -3.31490
C         -1.55870       -1.17540       -4.69030
C         -0.89310       -0.53850       -5.73910
C         -1.39390       -0.66130       -7.02530
C         -2.53860       -1.39690       -7.28810
C         -3.08910       -1.50070       -8.67780
C         -3.18060       -2.03150       -6.23330
C         -2.70420       -1.93600       -4.93690
C         -3.40470       -2.62550       -3.80500
C          0.32420        0.29080       -5.46520
C         -1.51340       -0.16640       -2.37030
S         -0.65590       -0.32910       -0.86280
C         -2.48320        0.84880       -2.56260
C         -3.07020        1.68360       -1.61090
N         -2.93790        1.58910       -0.23250
C         -3.13090        0.37790        0.43420
C         -2.54750        0.16130        1.68200
C         -2.69490       -1.05060        2.32380
C         -3.41530       -2.08710        1.74380
C         -3.56320       -3.41110        2.42970
C         -4.00910       -1.86170        0.50690
C         -3.88020       -0.64910       -0.13840
C         -2.80040        2.79520        0.47780
C         -3.51370        3.02820        1.64990
C         -3.35010        4.21530        2.33530
C         -2.48870        5.20280        1.87160
C         -2.27960        6.46760        2.64490
C         -1.80460        4.97370        0.68300
C         -1.95310        3.78770       -0.00780
C         -3.85710        2.67710       -2.22900
S         -4.80130        3.98970       -1.62960
C         -5.28200        4.43020       -3.27530
C         -4.76380        3.53400       -4.22590
N         -4.94600        3.59780       -5.58130
C         -3.87240        3.27730       -6.43520
C         -4.09570        2.55230       -7.60060
C         -3.04460        2.27370       -8.45190
C         -1.75430        2.69570       -8.15880
C         -0.62250        2.43460       -9.10550
C         -1.54040        3.40480       -6.98230
C         -2.58240        3.70340       -6.12850
C         -6.17310        3.99190       -6.13510
C         -7.37050        3.55250       -5.57280
C         -8.57660        3.95530       -6.10890
C         -8.62450        4.79340       -7.21760
C         -9.93850        5.25730       -7.76320
C         -7.42520        5.21000       -7.78310
C         -6.21100        4.81930       -7.25360
C         -3.92260        2.58340       -3.60960
S         -3.00020        1.24330       -4.19880
C         -6.07420        5.56830       -3.48160
C         -6.17140        6.66070       -2.66010
C         -7.36640        7.53100       -2.71260
O         -8.24240        7.51810       -3.55250
C         -7.28740        8.37710       -1.50160
C         -8.24890        9.26060       -1.01760
C         -7.90490        9.86980        0.16610
C         -6.69970        9.61250        0.83130
C         -5.73830        8.74790        0.36320
C         -6.06360        8.13180       -0.84650
C         -5.29470        7.17730       -1.64410
C         -3.92620        7.04490       -1.60280
C         -3.17700        6.29920       -2.53160
N         -2.50930        5.75240       -3.29130
C         -3.10000        7.76340       -0.72240
N         -2.37240        8.34360       -0.04730
C         -7.02930       10.55560        1.96230
C         -6.32180       11.92690        1.94470
C         -7.17410       12.78570        2.85070
C         -8.31310       13.03400        2.21680
C         -8.24970       12.34680        0.87190
C         -6.74970       12.47820        0.57850
C         -8.37110       10.84750        1.21710
H          4.71320       -6.96280        2.11290
H          5.59490       -3.48700        7.26280
H          7.17050       -8.28050        6.83170
H          8.80740       -6.69930        9.40390
H          7.39660       -8.20680       10.79500
H          4.96370       -8.02790        9.85450
H          4.15130       -5.51340       10.12180
H          6.08510       -4.14160       11.22750
H          6.51920       -6.40660       12.52850
H          8.07460       -5.83530       11.87420
H          8.01980       -4.25660        9.66330
H          4.52270       -8.82880       -0.66420
H          6.75080       -9.84000       -0.50310
H          9.30060       -9.30120       -0.68980
H          9.11090       -9.27510        1.05880
H          9.87160       -7.90740        0.24040
H          8.41340       -6.03770        0.48530
H          6.19390       -5.01370        0.29740
H          1.32710       -6.72720       -0.03910
H         -0.19030       -7.45490       -1.82960
H         -0.38450       -8.62240       -4.02850
H         -0.06620       -7.10570       -4.86580
H          0.93780       -8.51580       -5.20110
H          3.08390       -7.56900       -4.56090
H          4.60120       -6.82370       -2.77920
H          0.28460        1.06990        2.49960
H          0.45560        3.38260        1.71150
H          1.12770        4.47350       -1.28070
H          2.82050        4.54570       -0.80400
H          1.55500        5.03180        0.33530
H          2.98660        2.10800       -1.47530
H          2.83190       -0.20000       -0.68680
H          2.60820        0.16500        3.44650
H          2.38760       -0.44320        5.81580
H          1.80810       -2.99170        7.17500
H          0.04620       -3.05170        7.09760
H          0.86810       -1.55110        7.55410
H         -0.38090       -3.51690        4.78140
H         -0.17730       -2.89770        2.40660
H          0.45380       -2.65840       -3.39170
H         -0.88020       -0.17050       -7.83790
H         -3.37380       -2.52640       -8.90500
H         -2.35900       -1.16840       -9.41150
H         -3.97900       -0.87820       -8.77070
H         -4.07020       -2.61410       -6.42890
H         -4.20490       -3.26100       -4.17600
H         -3.83280       -1.89190       -3.12240
H         -2.70480       -3.23400       -3.23380
H          0.78380        0.61690       -6.39430
H          1.05570       -0.27140       -4.88710
H          0.04950        1.17280       -4.88680
H         -1.96650        0.94850        2.13480
H         -2.22550       -1.19680        3.28600
H         -2.93400       -3.45930        3.31490
H         -3.28870       -4.22360        1.75820
H         -4.59830       -3.56780        2.73350
H         -4.58640       -2.64900        0.04280
H         -4.36210       -0.49150       -1.09260
H         -4.19720        2.27720        2.01770
H         -3.90790        4.38020        3.24620
H         -3.13960        6.68490        3.27470
H         -1.40520        6.36890        3.28950
H         -2.10650        7.30490        1.97220
H         -1.14180        5.73400        0.29680
H         -1.40770        3.61910       -0.92460
H         -5.09490        2.21620       -7.83650
H         -3.23140        1.71920       -9.35990
H          0.29270        2.20600       -8.56340
H         -0.43450        3.32140       -9.71220
H         -0.85520        1.61210       -9.77790
H         -0.54450        3.74520       -6.73940
H         -2.40820        4.28360       -5.23450
H         -7.34510        2.89990       -4.71210
H         -9.49760        3.61480       -5.65880
H         -9.84090        5.57990       -8.79680
H        -10.68370        4.46670       -7.70610
H        -10.29970        6.10140       -7.17520
H         -7.44070        5.86180       -8.64440
H         -5.28580        5.16130       -7.69310
H         -6.74030        5.57500       -4.33730
H         -9.17280        9.42320       -1.55040
H         -4.81950        8.54020        0.88720
H         -7.07240       10.11090        2.95500
H         -5.25730       11.89270        2.15980
H         -6.89390       13.06790        3.84870
H         -9.17390       13.56470        2.57970
H         -8.94190       12.69680        0.11070
H         -6.44660       13.51470        0.43940
H         -6.40860       11.88220       -0.26570
H         -9.30730       10.60010        1.71480
