235

C         -3.57550       -5.22480        4.86190
C         -4.48320       -6.21670        4.56250
C         -5.57080       -6.12880        3.58710
O         -5.81900       -5.21200        2.82120
C         -6.34920       -7.37460        3.72360
C         -7.47490       -7.74540        2.99260
C         -7.97900       -8.97890        3.33030
C         -7.40420       -9.78410        4.32110
C         -6.29190       -9.43010        5.04810
C         -5.76480       -8.17750        4.72250
C         -4.58790       -7.48220        5.24630
C         -3.72920       -7.98600        6.19520
C         -2.51750       -7.39620        6.60170
N         -1.49590       -7.01520        6.96810
C         -3.92390       -9.19800        6.88560
N         -4.02110      -10.16100        7.50530
C         -8.42080      -10.88310        4.13160
C         -9.54130      -10.97900        5.18810
C        -10.61620      -11.79110        4.50260
C        -11.16160      -11.02800        3.56400
C        -10.46430       -9.68730        3.59940
C        -10.16990       -9.58220        5.10140
C         -9.06250       -9.98440        3.02630
C         -3.34300       -3.99820        4.24450
C         -2.35350       -3.08520        4.69250
N         -1.64920       -3.18250        5.86570
C         -0.29320       -2.80610        5.86780
C          0.25100       -2.09380        6.93180
C          1.59420       -1.77160        6.93240
C          2.42220       -2.13870        5.87860
C          3.88850       -1.83310        5.89840
C          1.86400       -2.83350        4.81170
C          0.52640       -3.16980        4.80240
C         -2.25200       -3.61030        7.06090
C         -3.58130       -3.29250        7.33140
C         -4.17570       -3.73390        8.49650
C         -3.46420       -4.48240        9.42650
C         -4.10980       -4.98320       10.68180
C         -2.12960       -4.76740        9.16160
C         -1.52490       -4.34500        7.99510
C         -2.16870       -2.05310        3.76040
S         -1.14040       -0.66330        3.67460
C         -1.84550       -0.19830        2.12770
C         -2.82700       -1.08990        1.71220
N         -3.63570       -0.99130        0.58480
C         -5.00150       -1.27290        0.74710
C         -5.69850       -2.01120       -0.20450
C         -7.03080       -2.31320       -0.00750
C         -7.70110       -1.89960        1.13630
C         -9.13010       -2.27950        1.37500
C         -7.00270       -1.14850        2.07360
C         -5.67380       -0.83040        1.88420
C         -3.09780       -0.84890       -0.69730
C         -3.74370       -0.04660       -1.63910
C         -3.16540        0.17570       -2.86900
C         -1.94810       -0.40910       -3.20920
C         -1.29850       -0.08740       -4.52080
C         -1.35080       -1.26400       -2.29540
C         -1.90930       -1.48390       -1.04910
C         -3.00680       -2.13110        2.65700
S         -4.09050       -3.47290        2.73390
C         -1.27100        0.96380        1.52810
C         -0.63950        1.98970        2.19140
C          0.02260        2.91300        1.35430
C          0.68850        4.12880        1.83580
C          1.44840        4.11880        3.01810
O          1.59640        2.91360        3.63000
C          2.33050        2.83080        4.83520
C          2.28760        1.38300        5.29920
C          2.01770        5.29250        3.49570
C          1.81420        6.47810        2.81920
C          1.06650        6.51480        1.65950
C          0.51480        5.34500        1.15000
O         -0.24080        5.28720        0.01870
C         -0.45200        6.44770       -0.76110
C          0.76820        6.84490       -1.58740
C         -0.11220        2.56340        0.02580
S         -1.11370        1.16480       -0.18750
C          0.61620        2.97980       -1.13960
C          1.98670        2.88680       -1.27570
N          2.79390        2.36120       -0.24880
C          2.44510        1.04800        0.12090
C          2.24670        0.10420       -0.88470
C          1.80040       -1.16830       -0.58720
C          1.54140       -1.52200        0.72830
S          0.86750       -3.08380        1.21470
C          1.06990       -4.12590       -0.25960
C          1.77340       -0.59710        1.74200
C          2.21750        0.67230        1.44360
C          3.60600        3.19070        0.50580
C          4.49880        2.67850        1.44630
C          5.26590        3.52130        2.22610
C          5.18810        4.89540        2.05590
S          6.07250        6.06260        3.05190
C          7.42900        5.07350        3.74940
C          4.35120        5.41120        1.07220
C          3.57050        4.57340        0.31010
C          2.40360        3.16800       -2.59490
S          3.91280        3.03250       -3.42370
C          3.10890        3.37360       -4.96060
C          1.70840        3.51390       -4.80600
N          0.79700        3.63640       -5.82720
C          0.96860        2.99700       -7.06700
C          1.55520        1.73170       -7.14200
C          1.82430        1.16840       -8.36760
C          1.48940        1.84080       -9.54310
S          1.96000        1.07980      -11.06390
C          1.93890        2.46190      -12.24010
C          0.81520        3.05160       -9.46820
C          0.56570        3.63010       -8.23870
C         -0.40100        4.32710       -5.57530
C         -0.37150        5.55460       -4.91380
C         -1.54320        6.22230       -4.64290
C         -2.76930        5.68450       -5.03190
S         -4.19950        6.62850       -4.61750
C         -5.58280        5.62720       -5.23190
C         -2.79940        4.47340       -5.71150
C         -1.62320        3.80140       -5.98010
C          1.33790        3.41990       -3.45580
S         -0.19570        3.35450       -2.63620
C          3.75120        3.50070       -6.19370
C          5.01390        3.12810       -6.58670
C          6.02310        2.47250       -5.74980
O          6.01470        2.34700       -4.53750
C          7.06120        1.97700       -6.67320
C          8.19440        1.23710       -6.34780
C          8.96760        0.89230       -7.43110
C          8.63850        1.25780       -8.74240
C          7.52450        1.99150       -9.07680
C          6.72450        2.35110       -7.98990
C          5.48070        3.11840       -7.95210
C          4.87570        3.70570       -9.03720
C          3.75590        4.55610       -8.98750
N          2.86400        5.27990       -9.05240
C          5.29810        3.56340      -10.37310
N          5.54520        3.48200      -11.49240
C          9.85200        0.57580       -9.32270
C         11.04910        1.46340       -9.74300
C         10.98350        2.70480       -8.88850
C         11.29640        2.35880       -7.64690
C         11.57880        0.87690       -7.63950
C         12.18990        0.71050       -9.04010
C         10.21960        0.16870       -7.86090
H         -2.92200       -5.42340        5.70190
H         -7.87830       -7.09690        2.23050
H         -5.85840      -10.06540        5.80220
H         -8.02130      -11.85440        3.84570
H         -9.21650      -11.32290        6.16630
H        -10.82350      -12.82150        4.72500
H        -11.91520      -11.29390        2.84590
H        -10.98160       -8.85430        3.13060
H        -11.07930       -9.50220        5.69480
H         -9.49040       -8.77370        5.36430
H         -9.09100      -10.35820        2.00420
H         -0.38090       -1.80000        7.75670
H          2.00520       -1.22530        7.76900
H          4.11610       -1.04800        6.61470
H          4.44770       -2.72490        6.18320
H          4.23330       -1.52710        4.91290
H          2.48650       -3.13060        3.98070
H          0.11530       -3.72600        3.97380
H         -4.14660       -2.70680        6.62130
H         -5.20990       -3.48590        8.68780
H         -3.52920       -4.68890       11.55470
H         -4.15880       -6.07190       10.66870
H         -5.11940       -4.59330       10.78490
H         -1.55890       -5.34790        9.87080
H         -0.49590       -4.59690        7.79470
H         -5.18600       -2.36000       -1.08880
H         -7.55430       -2.89830       -0.74990
H         -9.17140       -3.15570        2.02300
H         -9.67100       -1.47310        1.86650
H         -9.63080       -2.52400        0.44120
H         -7.50780       -0.80790        2.96620
H         -5.14480       -0.24170        2.62030
H         -4.68060        0.42270       -1.37810
H         -3.65270        0.83060       -3.57700
H         -0.44920       -0.73940       -4.70940
H         -2.00670       -0.18990       -5.34150
H         -0.94620        0.94510       -4.51100
H         -0.42390       -1.75190       -2.55930
H         -1.42520       -2.12630       -0.32860
H         -0.64790        2.07110        3.26250
H          1.88050        3.48460        5.59480
H          3.36890        3.14850        4.66610
H          1.25810        1.04790        5.39460
H          2.78770        0.74110        4.58050
H          2.78120        1.29200        6.26190
H          2.61850        5.29430        4.38930
H          2.25130        7.38780        3.20100
H          0.91770        7.46020        1.16540
H         -1.27070        6.16840       -1.43120
H         -0.78750        7.28200       -0.13330
H          0.51590        7.68830       -2.22430
H          1.60500        7.12310       -0.95180
H          1.07480        6.01040       -2.21290
H          2.43270        0.37380       -1.91370
H          1.65630       -1.87120       -1.39140
H          2.10520       -4.09870       -0.58610
H          0.39740       -3.80250       -1.04920
H          0.80640       -5.13140        0.05430
H          1.57340       -0.87400        2.76630
H          2.33710        1.39150        2.23490
H          4.59640        1.61100        1.57040
H          5.92620        3.08930        2.96230
H          8.11860        5.78600        4.19110
H          7.05470        4.40300        4.51810
H          7.92120        4.52280        2.95370
H          4.31220        6.47900        0.92250
H          2.91770        4.98750       -0.44160
H          1.82710        1.21240       -6.23520
H          2.30510        0.20450       -8.43340
H          2.46350        3.31030      -11.81080
H          0.91720        2.71950      -12.50420
H          2.46920        2.10810      -13.11850
H          0.50890        3.57270      -10.35990
H          0.08420        4.59410       -8.18770
H          0.57770        5.98140       -4.62810
H         -1.52640        7.17390       -4.13450
H         -5.51570        5.51970       -6.31060
H         -5.59030        4.66130       -4.73540
H         -6.48020        6.18070       -4.97350
H         -3.73130        4.03720       -6.03240
H         -1.65070        2.85690       -6.50310
H          3.11670        3.89840       -6.97530
H          8.40990        0.97420       -5.32380
H          7.28220        2.26190      -10.09120
H          9.65420       -0.21950      -10.03890
H         11.13880        1.62240      -10.81440
H         10.66930        3.66570       -9.25180
H         11.29530        2.97270       -6.76530
H         12.15190        0.50130       -6.79560
H         12.28110       -0.32880       -9.35300
H         13.15160        1.21120       -9.14250
H         10.26170       -0.89290       -7.62380
