
  xtb     02152201543D
 energy: -377.866515678326 gnorm: 0.000804215005 xtb: 6.4.1 (unknown)
223245  0     0  0            999 V2000
    4.4044    5.4193    2.1518 C   0  0  0  0  0  0  0  0  0  0  0  0
    4.5845    5.4229    3.4973 C   0  0  0  0  0  0  0  0  0  0  0  0
    4.0262    6.5938    4.2334 C   0  0  0  0  0  0  0  0  0  0  0  0
    3.8966    7.7204    3.8144 O   0  0  0  0  0  0  0  0  0  0  0  0
    3.5649    6.0413    5.5197 C   0  0  0  0  0  0  0  0  0  0  0  0
    2.7985    6.6887    6.4868 C   0  0  0  0  0  0  0  0  0  0  0  0
    2.4146    5.8816    7.5308 C   0  0  0  0  0  0  0  0  0  0  0  0
    2.7748    4.5300    7.6170 C   0  0  0  0  0  0  0  0  0  0  0  0
    3.5583    3.8860    6.6886 C   0  0  0  0  0  0  0  0  0  0  0  0
    3.9547    4.6891    5.6170 C   0  0  0  0  0  0  0  0  0  0  0  0
    4.8024    4.3726    4.4665 C   0  0  0  0  0  0  0  0  0  0  0  0
    5.7767    3.4117    4.4479 C   0  0  0  0  0  0  0  0  0  0  0  0
    6.8469    3.4031    3.5290 C   0  0  0  0  0  0  0  0  0  0  0  0
    7.7925    3.4175    2.8786 N   0  0  0  0  0  0  0  0  0  0  0  0
    5.9181    2.4378    5.4553 C   0  0  0  0  0  0  0  0  0  0  0  0
    6.0524    1.6122    6.2424 N   0  0  0  0  0  0  0  0  0  0  0  0
    2.0147    4.3260    8.9040 C   0  0  0  0  0  0  0  0  0  0  0  0
    0.6562    3.6013    8.7932 C   0  0  0  0  0  0  0  0  0  0  0  0
   -0.0569    3.9702   10.0738 C   0  0  0  0  0  0  0  0  0  0  0  0
   -0.3988    5.2495    9.9910 C   0  0  0  0  0  0  0  0  0  0  0  0
    0.0780    5.7669    8.6529 C   0  0  0  0  0  0  0  0  0  0  0  0
   -0.0951    4.5011    7.8036 C   0  0  0  0  0  0  0  0  0  0  0  0
    1.6129    5.8331    8.8084 C   0  0  0  0  0  0  0  0  0  0  0  0
    4.2935    4.3603    1.2171 C   0  0  0  0  0  0  0  0  0  0  0  0
    3.3246    4.3826    0.2105 C   0  0  0  0  0  0  0  0  0  0  0  0
    2.3506    5.3588    0.1095 N   0  0  0  0  0  0  0  0  0  0  0  0
    1.8762    5.6960   -1.1657 C   0  0  0  0  0  0  0  0  0  0  0  0
    0.5284    5.9553   -1.3974 C   0  0  0  0  0  0  0  0  0  0  0  0
    0.0947    6.2747   -2.6691 C   0  0  0  0  0  0  0  0  0  0  0  0
    0.9784    6.3345   -3.7394 C   0  0  0  0  0  0  0  0  0  0  0  0
    0.5079    6.6906   -5.1156 C   0  0  0  0  0  0  0  0  0  0  0  0
    2.3227    6.0732   -3.4986 C   0  0  0  0  0  0  0  0  0  0  0  0
    2.7720    5.7634   -2.2317 C   0  0  0  0  0  0  0  0  0  0  0  0
    1.6639    5.7665    1.2706 C   0  0  0  0  0  0  0  0  0  0  0  0
    1.4081    4.8583    2.2964 C   0  0  0  0  0  0  0  0  0  0  0  0
    0.7421    5.2638    3.4347 C   0  0  0  0  0  0  0  0  0  0  0  0
    0.2975    6.5729    3.5784 C   0  0  0  0  0  0  0  0  0  0  0  0
   -0.4298    6.9993    4.8168 C   0  0  0  0  0  0  0  0  0  0  0  0
    0.5522    7.4701    2.5486 C   0  0  0  0  0  0  0  0  0  0  0  0
    1.2280    7.0800    1.4091 C   0  0  0  0  0  0  0  0  0  0  0  0
    3.3447    3.1951   -0.5468 C   0  0  0  0  0  0  0  0  0  0  0  0
    2.3453    2.5805   -1.8134 S   0  0  0  0  0  0  0  0  0  0  0  0
    3.1312    1.0044   -1.6671 C   0  0  0  0  0  0  0  0  0  0  0  0
    4.2070    1.0136   -0.7899 C   0  0  0  0  0  0  0  0  0  0  0  0
    5.1162   -0.0037   -0.6259 N   0  0  0  0  0  0  0  0  0  0  0  0
    5.4972   -0.8475   -1.6798 C   0  0  0  0  0  0  0  0  0  0  0  0
    6.0893   -2.0767   -1.3967 C   0  0  0  0  0  0  0  0  0  0  0  0
    6.4933   -2.9143   -2.4163 C   0  0  0  0  0  0  0  0  0  0  0  0
    6.3080   -2.5685   -3.7483 C   0  0  0  0  0  0  0  0  0  0  0  0
    6.7052   -3.5007   -4.8516 C   0  0  0  0  0  0  0  0  0  0  0  0
    5.7282   -1.3368   -4.0257 C   0  0  0  0  0  0  0  0  0  0  0  0
    5.3379   -0.4815   -3.0149 C   0  0  0  0  0  0  0  0  0  0  0  0
    5.8172   -0.0694    0.5990 C   0  0  0  0  0  0  0  0  0  0  0  0
    5.1212   -0.0510    1.8025 C   0  0  0  0  0  0  0  0  0  0  0  0
    5.8081   -0.1273    3.0014 C   0  0  0  0  0  0  0  0  0  0  0  0
    7.1927   -0.2139    3.0285 C   0  0  0  0  0  0  0  0  0  0  0  0
    7.9505   -0.3097    4.3151 C   0  0  0  0  0  0  0  0  0  0  0  0
    7.8794   -0.2093    1.8177 C   0  0  0  0  0  0  0  0  0  0  0  0
    7.2074   -0.1369    0.6168 C   0  0  0  0  0  0  0  0  0  0  0  0
    4.2830    2.2660   -0.1191 C   0  0  0  0  0  0  0  0  0  0  0  0
    5.1762    2.8417    1.2424 S   0  0  0  0  0  0  0  0  0  0  0  0
    2.4177   -0.1137   -2.2048 C   0  0  0  0  0  0  0  0  0  0  0  0
    2.0374   -1.2445   -1.5139 C   0  0  0  0  0  0  0  0  0  0  0  0
    2.4313   -1.5843   -0.1995 N   0  0  0  0  0  0  0  0  0  0  0  0
    3.2092   -2.7346   -0.0221 C   0  0  0  0  0  0  0  0  0  0  0  0
    3.7643   -3.0050    1.2278 C   0  0  0  0  0  0  0  0  0  0  0  0
    4.5863   -4.0966    1.4221 C   0  0  0  0  0  0  0  0  0  0  0  0
    4.8635   -4.9560    0.3682 C   0  0  0  0  0  0  0  0  0  0  0  0
    5.9140   -6.3735    0.4844 S   0  0  0  0  0  0  0  0  0  0  0  0
    6.3906   -6.4227    2.2348 C   0  0  0  0  0  0  0  0  0  0  0  0
    4.3077   -4.6972   -0.8802 C   0  0  0  0  0  0  0  0  0  0  0  0
    3.5032   -3.5968   -1.0782 C   0  0  0  0  0  0  0  0  0  0  0  0
    1.4771   -1.2165    0.7775 C   0  0  0  0  0  0  0  0  0  0  0  0
    1.0835    0.1170    0.8885 C   0  0  0  0  0  0  0  0  0  0  0  0
    0.1289    0.4946    1.8083 C   0  0  0  0  0  0  0  0  0  0  0  0
   -0.4590   -0.4515    2.6415 C   0  0  0  0  0  0  0  0  0  0  0  0
   -1.6481    0.1333    3.8137 S   0  0  0  0  0  0  0  0  0  0  0  0
   -2.6550   -1.3400    4.1503 C   0  0  0  0  0  0  0  0  0  0  0  0
   -0.0787   -1.7821    2.5329 C   0  0  0  0  0  0  0  0  0  0  0  0
    0.8713   -2.1598    1.6041 C   0  0  0  0  0  0  0  0  0  0  0  0
    1.0154   -1.9388   -2.1965 C   0  0  0  0  0  0  0  0  0  0  0  0
   -0.0363   -3.2114   -1.7043 S   0  0  0  0  0  0  0  0  0  0  0  0
   -1.0947   -2.8658   -3.0704 C   0  0  0  0  0  0  0  0  0  0  0  0
   -0.5846   -1.8946   -3.9208 C   0  0  0  0  0  0  0  0  0  0  0  0
   -1.1938   -1.4137   -5.0600 N   0  0  0  0  0  0  0  0  0  0  0  0
   -2.5978   -1.4125   -5.1779 C   0  0  0  0  0  0  0  0  0  0  0  0
   -3.2130   -1.9553   -6.3054 C   0  0  0  0  0  0  0  0  0  0  0  0
   -4.5861   -2.0424   -6.3699 C   0  0  0  0  0  0  0  0  0  0  0  0
   -5.3715   -1.5873   -5.3111 C   0  0  0  0  0  0  0  0  0  0  0  0
   -7.1137   -1.8287   -5.4681 S   0  0  0  0  0  0  0  0  0  0  0  0
   -7.7796   -1.3839   -3.8387 C   0  0  0  0  0  0  0  0  0  0  0  0
   -4.7654   -0.9857   -4.2169 C   0  0  0  0  0  0  0  0  0  0  0  0
   -3.3870   -0.8962   -4.1556 C   0  0  0  0  0  0  0  0  0  0  0  0
   -0.4093   -0.9335   -6.1160 C   0  0  0  0  0  0  0  0  0  0  0  0
   -0.8714    0.1169   -6.9102 C   0  0  0  0  0  0  0  0  0  0  0  0
   -0.0982    0.5974   -7.9415 C   0  0  0  0  0  0  0  0  0  0  0  0
    1.1571    0.0494   -8.2036 C   0  0  0  0  0  0  0  0  0  0  0  0
    2.0604    0.7623   -9.5410 S   0  0  0  0  0  0  0  0  0  0  0  0
    3.6404   -0.1317   -9.5283 C   0  0  0  0  0  0  0  0  0  0  0  0
    1.6143   -1.0045   -7.4253 C   0  0  0  0  0  0  0  0  0  0  0  0
    0.8336   -1.4945   -6.3966 C   0  0  0  0  0  0  0  0  0  0  0  0
    0.6211   -1.3632   -3.3913 C   0  0  0  0  0  0  0  0  0  0  0  0
    1.5696    0.0455   -3.7361 S   0  0  0  0  0  0  0  0  0  0  0  0
   -2.4310   -3.3806   -3.0095 C   0  0  0  0  0  0  0  0  0  0  0  0
   -3.1524   -4.4082   -4.1951 S   0  0  0  0  0  0  0  0  0  0  0  0
   -4.7344   -4.3583   -3.4200 C   0  0  0  0  0  0  0  0  0  0  0  0
   -4.6364   -3.6218   -2.2449 C   0  0  0  0  0  0  0  0  0  0  0  0
   -5.7995   -3.0441   -1.1143 S   0  0  0  0  0  0  0  0  0  0  0  0
   -4.6125   -1.9421   -0.3994 C   0  0  0  0  0  0  0  0  0  0  0  0
   -4.9882   -1.0175    0.6179 C   0  0  0  0  0  0  0  0  0  0  0  0
   -6.1989   -0.9167    1.2864 C   0  0  0  0  0  0  0  0  0  0  0  0
   -6.2540    0.1304    2.2173 C   0  0  0  0  0  0  0  0  0  0  0  0
   -5.0893    0.8500    2.2539 C   0  0  0  0  0  0  0  0  0  0  0  0
   -4.7551    2.0249    3.0615 C   0  0  0  0  0  0  0  0  0  0  0  0
   -5.4464    2.4799    3.9391 O   0  0  0  0  0  0  0  0  0  0  0  0
   -3.5749    2.5138    2.6697 O   0  0  0  0  0  0  0  0  0  0  0  0
   -3.0517    3.6640    3.3304 C   0  0  0  0  0  0  0  0  0  0  0  0
   -2.6690    4.7073    2.2928 C   0  0  0  0  0  0  0  0  0  0  0  0
   -3.9082    0.2348    1.1615 S   0  0  0  0  0  0  0  0  0  0  0  0
   -7.5232   -1.9737    1.0103 Cl  0  0  0  0  0  0  0  0  0  0  0  0
   -3.3746   -2.0947   -0.9711 C   0  0  0  0  0  0  0  0  0  0  0  0
   -3.3537   -3.0539   -2.0224 C   0  0  0  0  0  0  0  0  0  0  0  0
   -2.0278   -1.1211   -0.5314 Cl  0  0  0  0  0  0  0  0  0  0  0  0
   -5.8153   -4.8366   -4.1741 C   0  0  0  0  0  0  0  0  0  0  0  0
   -7.1247   -4.9795   -3.7930 C   0  0  0  0  0  0  0  0  0  0  0  0
   -7.6103   -5.0592   -2.4137 C   0  0  0  0  0  0  0  0  0  0  0  0
   -6.9168   -5.1159   -1.4038 O   0  0  0  0  0  0  0  0  0  0  0  0
   -9.0725   -5.1804   -2.4981 C   0  0  0  0  0  0  0  0  0  0  0  0
   -9.4495   -5.2605   -3.8385 C   0  0  0  0  0  0  0  0  0  0  0  0
  -10.8004   -5.3991   -4.1840 C   0  0  0  0  0  0  0  0  0  0  0  0
  -11.7374   -5.4453   -3.1840 C   0  0  0  0  0  0  0  0  0  0  0  0
  -11.3864   -5.3522   -1.8198 C   0  0  0  0  0  0  0  0  0  0  0  0
  -12.3571   -5.3853   -0.7978 C   0  0  0  0  0  0  0  0  0  0  0  0
  -11.9898   -5.2868    0.5160 C   0  0  0  0  0  0  0  0  0  0  0  0
  -10.6376   -5.1516    0.8704 C   0  0  0  0  0  0  0  0  0  0  0  0
   -9.6667   -5.1190   -0.0915 C   0  0  0  0  0  0  0  0  0  0  0  0
  -10.0155   -5.2193   -1.4541 C   0  0  0  0  0  0  0  0  0  0  0  0
   -8.2594   -5.1530   -4.6801 C   0  0  0  0  0  0  0  0  0  0  0  0
   -8.2446   -5.1377   -6.0492 C   0  0  0  0  0  0  0  0  0  0  0  0
   -9.3861   -5.3052   -6.8619 C   0  0  0  0  0  0  0  0  0  0  0  0
  -10.2667   -5.4456   -7.5849 N   0  0  0  0  0  0  0  0  0  0  0  0
   -7.1031   -4.9458   -6.8562 C   0  0  0  0  0  0  0  0  0  0  0  0
   -6.2329   -4.7842   -7.5881 N   0  0  0  0  0  0  0  0  0  0  0  0
    4.0968    6.3847    1.7559 H   0  0  0  0  0  0  0  0  0  0  0  0
    2.5549    7.7352    6.3872 H   0  0  0  0  0  0  0  0  0  0  0  0
    3.8322    2.8464    6.7644 H   0  0  0  0  0  0  0  0  0  0  0  0
    2.6051    3.9972    9.7568 H   0  0  0  0  0  0  0  0  0  0  0  0
    0.7223    2.5429    8.5569 H   0  0  0  0  0  0  0  0  0  0  0  0
   -0.1859    3.3001   10.9033 H   0  0  0  0  0  0  0  0  0  0  0  0
   -0.8699    5.8617   10.7373 H   0  0  0  0  0  0  0  0  0  0  0  0
   -0.3847    6.6814    8.2910 H   0  0  0  0  0  0  0  0  0  0  0  0
   -1.1403    4.2146    7.6980 H   0  0  0  0  0  0  0  0  0  0  0  0
    0.3698    4.5594    6.8213 H   0  0  0  0  0  0  0  0  0  0  0  0
    1.9325    6.5084    9.5995 H   0  0  0  0  0  0  0  0  0  0  0  0
   -0.1768    5.8965   -0.5816 H   0  0  0  0  0  0  0  0  0  0  0  0
   -0.9551    6.4706   -2.8333 H   0  0  0  0  0  0  0  0  0  0  0  0
    0.7564    7.7284   -5.3397 H   0  0  0  0  0  0  0  0  0  0  0  0
    0.9918    6.0637   -5.8618 H   0  0  0  0  0  0  0  0  0  0  0  0
   -0.5693    6.5728   -5.2014 H   0  0  0  0  0  0  0  0  0  0  0  0
    3.0284    6.1196   -4.3151 H   0  0  0  0  0  0  0  0  0  0  0  0
    3.8219    5.5773   -2.0570 H   0  0  0  0  0  0  0  0  0  0  0  0
    1.7285    3.8308    2.1977 H   0  0  0  0  0  0  0  0  0  0  0  0
    0.5516    4.5445    4.2191 H   0  0  0  0  0  0  0  0  0  0  0  0
   -1.1003    6.2146    5.1631 H   0  0  0  0  0  0  0  0  0  0  0  0
    0.2838    7.2030    5.6146 H   0  0  0  0  0  0  0  0  0  0  0  0
   -1.0052    7.9041    4.6366 H   0  0  0  0  0  0  0  0  0  0  0  0
    0.2245    8.4947    2.6417 H   0  0  0  0  0  0  0  0  0  0  0  0
    1.4259    7.7916    0.6217 H   0  0  0  0  0  0  0  0  0  0  0  0
    6.2312   -2.3769   -0.3703 H   0  0  0  0  0  0  0  0  0  0  0  0
    6.9513   -3.8601   -2.1673 H   0  0  0  0  0  0  0  0  0  0  0  0
    7.5139   -4.1537   -4.5331 H   0  0  0  0  0  0  0  0  0  0  0  0
    5.8585   -4.1278   -5.1341 H   0  0  0  0  0  0  0  0  0  0  0  0
    7.0227   -2.9478   -5.7331 H   0  0  0  0  0  0  0  0  0  0  0  0
    5.5892   -1.0313   -5.0532 H   0  0  0  0  0  0  0  0  0  0  0  0
    4.9265    0.4826   -3.2720 H   0  0  0  0  0  0  0  0  0  0  0  0
    4.0427    0.0213    1.7915 H   0  0  0  0  0  0  0  0  0  0  0  0
    5.2564   -0.1198    3.9307 H   0  0  0  0  0  0  0  0  0  0  0  0
    8.6845    0.4926    4.3756 H   0  0  0  0  0  0  0  0  0  0  0  0
    7.2854   -0.2343    5.1708 H   0  0  0  0  0  0  0  0  0  0  0  0
    8.4875   -1.2564    4.3685 H   0  0  0  0  0  0  0  0  0  0  0  0
    8.9583   -0.2544    1.8216 H   0  0  0  0  0  0  0  0  0  0  0  0
    7.7522   -0.1294   -0.3157 H   0  0  0  0  0  0  0  0  0  0  0  0
    3.5586   -2.3487    2.0589 H   0  0  0  0  0  0  0  0  0  0  0  0
    5.0068   -4.2568    2.4019 H   0  0  0  0  0  0  0  0  0  0  0  0
    6.9606   -5.5343    2.4914 H   0  0  0  0  0  0  0  0  0  0  0  0
    5.5057   -6.5182    2.8572 H   0  0  0  0  0  0  0  0  0  0  0  0
    7.0144   -7.3046    2.3430 H   0  0  0  0  0  0  0  0  0  0  0  0
    4.5206   -5.3657   -1.6999 H   0  0  0  0  0  0  0  0  0  0  0  0
    3.1110   -3.4074   -2.0650 H   0  0  0  0  0  0  0  0  0  0  0  0
    1.5185    0.8607    0.2417 H   0  0  0  0  0  0  0  0  0  0  0  0
   -0.1779    1.5268    1.8846 H   0  0  0  0  0  0  0  0  0  0  0  0
   -2.9044   -1.8279    3.2126 H   0  0  0  0  0  0  0  0  0  0  0  0
   -2.1280   -2.0164    4.8172 H   0  0  0  0  0  0  0  0  0  0  0  0
   -3.5583   -0.9790    4.6334 H   0  0  0  0  0  0  0  0  0  0  0  0
   -0.5253   -2.5381    3.1593 H   0  0  0  0  0  0  0  0  0  0  0  0
    1.1388   -3.2017    1.5103 H   0  0  0  0  0  0  0  0  0  0  0  0
   -2.6064   -2.3325   -7.1142 H   0  0  0  0  0  0  0  0  0  0  0  0
   -5.0654   -2.4961   -7.2234 H   0  0  0  0  0  0  0  0  0  0  0  0
   -7.3050   -1.9828   -3.0658 H   0  0  0  0  0  0  0  0  0  0  0  0
   -8.8394   -1.6168   -3.8854 H   0  0  0  0  0  0  0  0  0  0  0  0
   -7.6474   -0.3219   -3.6539 H   0  0  0  0  0  0  0  0  0  0  0  0
   -5.3504   -0.5875   -3.4030 H   0  0  0  0  0  0  0  0  0  0  0  0
   -2.9161   -0.4304   -3.3027 H   0  0  0  0  0  0  0  0  0  0  0  0
   -1.8371    0.5541   -6.7070 H   0  0  0  0  0  0  0  0  0  0  0  0
   -0.4526    1.4118   -8.5543 H   0  0  0  0  0  0  0  0  0  0  0  0
    3.4762   -1.1840   -9.7416 H   0  0  0  0  0  0  0  0  0  0  0  0
    4.2343    0.3146  -10.3199 H   0  0  0  0  0  0  0  0  0  0  0  0
    4.1360    0.0072   -8.5720 H   0  0  0  0  0  0  0  0  0  0  0  0
    2.5713   -1.4639   -7.6119 H   0  0  0  0  0  0  0  0  0  0  0  0
    1.1916   -2.3302   -5.8137 H   0  0  0  0  0  0  0  0  0  0  0  0
   -7.1106    0.3525    2.8261 H   0  0  0  0  0  0  0  0  0  0  0  0
   -3.8091    4.0456    4.0230 H   0  0  0  0  0  0  0  0  0  0  0  0
   -2.1735    3.3348    3.8955 H   0  0  0  0  0  0  0  0  0  0  0  0
   -2.2352    5.5740    2.7820 H   0  0  0  0  0  0  0  0  0  0  0  0
   -3.5458    5.0179    1.7299 H   0  0  0  0  0  0  0  0  0  0  0  0
   -1.9388    4.2932    1.6022 H   0  0  0  0  0  0  0  0  0  0  0  0
   -5.5646   -5.0561   -5.2036 H   0  0  0  0  0  0  0  0  0  0  0  0
  -11.1046   -5.4706   -5.2149 H   0  0  0  0  0  0  0  0  0  0  0  0
  -12.7824   -5.5541   -3.4364 H   0  0  0  0  0  0  0  0  0  0  0  0
  -13.3971   -5.4878   -1.0725 H   0  0  0  0  0  0  0  0  0  0  0  0
  -12.7400   -5.3119    1.2926 H   0  0  0  0  0  0  0  0  0  0  0  0
  -10.3702   -5.0733    1.9138 H   0  0  0  0  0  0  0  0  0  0  0  0
   -8.6246   -5.0201    0.1680 H   0  0  0  0  0  0  0  0  0  0  0  0
  1  2  2  0  0  0  0
  2  3  1  0  0  0  0
  3  4  2  0  0  0  0
  3  5  1  0  0  0  0
  5  6  2  0  0  0  0
  6  7  1  0  0  0  0
  7  8  2  0  0  0  0
  8  9  1  0  0  0  0
  9 10  2  0  0  0  0
 10 11  1  0  0  0  0
 11 12  2  0  0  0  0
 12 13  1  0  0  0  0
 13 14  3  0  0  0  0
 12 15  1  0  0  0  0
 15 16  3  0  0  0  0
  8 17  1  0  0  0  0
 17 18  1  0  0  0  0
 18 19  1  0  0  0  0
 19 20  2  0  0  0  0
 20 21  1  0  0  0  0
 21 22  1  0  0  0  0
 21 23  1  0  0  0  0
  1 24  1  0  0  0  0
 24 25  2  0  0  0  0
 25 26  1  0  0  0  0
 26 27  1  0  0  0  0
 27 28  2  0  0  0  0
 28 29  1  0  0  0  0
 29 30  2  0  0  0  0
 30 31  1  0  0  0  0
 30 32  1  0  0  0  0
 32 33  2  0  0  0  0
 26 34  1  0  0  0  0
 34 35  2  0  0  0  0
 35 36  1  0  0  0  0
 36 37  2  0  0  0  0
 37 38  1  0  0  0  0
 37 39  1  0  0  0  0
 39 40  2  0  0  0  0
 25 41  1  0  0  0  0
 41 42  1  0  0  0  0
 42 43  1  0  0  0  0
 43 44  2  0  0  0  0
 44 45  1  0  0  0  0
 45 46  1  0  0  0  0
 46 47  2  0  0  0  0
 47 48  1  0  0  0  0
 48 49  2  0  0  0  0
 49 50  1  0  0  0  0
 49 51  1  0  0  0  0
 51 52  2  0  0  0  0
 45 53  1  0  0  0  0
 53 54  2  0  0  0  0
 54 55  1  0  0  0  0
 55 56  2  0  0  0  0
 56 57  1  0  0  0  0
 56 58  1  0  0  0  0
 58 59  2  0  0  0  0
 44 60  1  0  0  0  0
 60 61  1  0  0  0  0
 43 62  1  0  0  0  0
 62 63  2  0  0  0  0
 63 64  1  0  0  0  0
 64 65  1  0  0  0  0
 65 66  2  0  0  0  0
 66 67  1  0  0  0  0
 67 68  2  0  0  0  0
 68 69  1  0  0  0  0
 69 70  1  0  0  0  0
 68 71  1  0  0  0  0
 71 72  2  0  0  0  0
 64 73  1  0  0  0  0
 73 74  2  0  0  0  0
 74 75  1  0  0  0  0
 75 76  2  0  0  0  0
 76 77  1  0  0  0  0
 77 78  1  0  0  0  0
 76 79  1  0  0  0  0
 79 80  2  0  0  0  0
 63 81  1  0  0  0  0
 81 82  1  0  0  0  0
 82 83  1  0  0  0  0
 83 84  2  0  0  0  0
 84 85  1  0  0  0  0
 85 86  1  0  0  0  0
 86 87  2  0  0  0  0
 87 88  1  0  0  0  0
 88 89  2  0  0  0  0
 89 90  1  0  0  0  0
 90 91  1  0  0  0  0
 89 92  1  0  0  0  0
 92 93  2  0  0  0  0
 85 94  1  0  0  0  0
 94 95  2  0  0  0  0
 95 96  1  0  0  0  0
 96 97  2  0  0  0  0
 97 98  1  0  0  0  0
 98 99  1  0  0  0  0
 97100  1  0  0  0  0
100101  2  0  0  0  0
 84102  1  0  0  0  0
102103  1  0  0  0  0
 83104  1  0  0  0  0
104105  1  0  0  0  0
105106  1  0  0  0  0
106107  2  0  0  0  0
107108  1  0  0  0  0
108109  1  0  0  0  0
109110  1  0  0  0  0
110111  2  0  0  0  0
111112  1  0  0  0  0
112113  2  0  0  0  0
113114  1  0  0  0  0
114115  2  0  0  0  0
114116  1  0  0  0  0
116117  1  0  0  0  0
117118  1  0  0  0  0
113119  1  0  0  0  0
111120  1  0  0  0  0
109121  2  0  0  0  0
121122  1  0  0  0  0
121123  1  0  0  0  0
106124  1  0  0  0  0
124125  2  0  0  0  0
125126  1  0  0  0  0
126127  2  0  0  0  0
126128  1  0  0  0  0
128129  2  0  0  0  0
129130  1  0  0  0  0
130131  2  0  0  0  0
131132  1  0  0  0  0
132133  2  0  0  0  0
133134  1  0  0  0  0
134135  2  0  0  0  0
135136  1  0  0  0  0
136137  2  0  0  0  0
129138  1  0  0  0  0
138139  2  0  0  0  0
139140  1  0  0  0  0
140141  3  0  0  0  0
139142  1  0  0  0  0
142143  3  0  0  0  0
 11  2  1  0  0  0  0
 23 17  1  0  0  0  0
 61 24  1  0  0  0  0
103 62  1  0  0  0  0
122104  2  0  0  0  0
138125  1  0  0  0  0
 10  5  1  0  0  0  0
 22 18  1  0  0  0  0
 33 27  1  0  0  0  0
 40 34  1  0  0  0  0
 60 41  2  0  0  0  0
 72 65  1  0  0  0  0
 80 73  1  0  0  0  0
102 81  2  0  0  0  0
122107  1  0  0  0  0
137128  1  0  0  0  0
 23  7  1  0  0  0  0
 52 46  1  0  0  0  0
 59 53  1  0  0  0  0
 93 86  1  0  0  0  0
101 94  1  0  0  0  0
119110  1  0  0  0  0
137132  1  0  0  0  0
  1144  1  0  0  0  0
  6145  1  0  0  0  0
  9146  1  0  0  0  0
 17147  1  0  0  0  0
 18148  1  0  0  0  0
 19149  1  0  0  0  0
 20150  1  0  0  0  0
 21151  1  0  0  0  0
 22152  1  0  0  0  0
 22153  1  0  0  0  0
 23154  1  0  0  0  0
 28155  1  0  0  0  0
 29156  1  0  0  0  0
 31157  1  0  0  0  0
 31158  1  0  0  0  0
 31159  1  0  0  0  0
 32160  1  0  0  0  0
 33161  1  0  0  0  0
 35162  1  0  0  0  0
 36163  1  0  0  0  0
 38164  1  0  0  0  0
 38165  1  0  0  0  0
 38166  1  0  0  0  0
 39167  1  0  0  0  0
 40168  1  0  0  0  0
 47169  1  0  0  0  0
 48170  1  0  0  0  0
 50171  1  0  0  0  0
 50172  1  0  0  0  0
 50173  1  0  0  0  0
 51174  1  0  0  0  0
 52175  1  0  0  0  0
 54176  1  0  0  0  0
 55177  1  0  0  0  0
 57178  1  0  0  0  0
 57179  1  0  0  0  0
 57180  1  0  0  0  0
 58181  1  0  0  0  0
 59182  1  0  0  0  0
 66183  1  0  0  0  0
 67184  1  0  0  0  0
 70185  1  0  0  0  0
 70186  1  0  0  0  0
 70187  1  0  0  0  0
 71188  1  0  0  0  0
 72189  1  0  0  0  0
 74190  1  0  0  0  0
 75191  1  0  0  0  0
 78192  1  0  0  0  0
 78193  1  0  0  0  0
 78194  1  0  0  0  0
 79195  1  0  0  0  0
 80196  1  0  0  0  0
 87197  1  0  0  0  0
 88198  1  0  0  0  0
 91199  1  0  0  0  0
 91200  1  0  0  0  0
 91201  1  0  0  0  0
 92202  1  0  0  0  0
 93203  1  0  0  0  0
 95204  1  0  0  0  0
 96205  1  0  0  0  0
 99206  1  0  0  0  0
 99207  1  0  0  0  0
 99208  1  0  0  0  0
100209  1  0  0  0  0
101210  1  0  0  0  0
112211  1  0  0  0  0
117212  1  0  0  0  0
117213  1  0  0  0  0
118214  1  0  0  0  0
118215  1  0  0  0  0
118216  1  0  0  0  0
124217  1  0  0  0  0
130218  1  0  0  0  0
131219  1  0  0  0  0
133220  1  0  0  0  0
134221  1  0  0  0  0
135222  1  0  0  0  0
136223  1  0  0  0  0
M  END
