166

C          6.20300       -7.19890       -4.91780
C          6.28780       -8.54960       -4.79960
C          6.64770       -9.35700       -6.00080
O          7.12180       -8.94200       -7.03320
C          6.24850      -10.73880       -5.67570
C          6.25920      -11.84180       -6.52790
C          5.80080      -13.00080       -5.94930
C          5.36150      -13.06360       -4.61950
C          5.35320      -11.98740       -3.76460
C          5.81840      -10.79820       -4.33330
C          5.98530       -9.47730       -3.73070
C          6.08310       -9.22740       -2.38680
C          6.50110       -7.99360       -1.84730
N          6.87410       -7.02610       -1.35530
C          5.85830      -10.18980       -1.38190
N          5.66290      -10.92220       -0.51950
C          5.02990      -14.53190       -4.71380
C          3.53760      -14.89570       -4.86390
C          3.56210      -16.30620       -5.40700
C          3.97810      -16.24670       -6.66560
C          4.24180      -14.79490       -6.99430
C          3.15710      -14.12940       -6.13740
C          5.52050      -14.46250       -6.19560
C          5.54190       -6.25800       -4.08830
S          5.94940       -4.55790       -4.26360
C          4.75530       -4.10970       -3.08490
C          4.47380       -2.83340       -2.65260
C          3.46120       -2.67250       -1.70700
C          2.97020       -1.47690       -1.13820
C          1.93760       -1.66360       -0.25860
S          1.55430       -3.36540       -0.05240
C          2.77050       -3.81520       -1.21600
C          3.04800       -5.08940       -1.64660
C          4.05730       -5.25070       -2.60040
C          4.52470       -6.44510       -3.18600
C          1.27760       -0.64140        0.47820
C          0.04930       -0.64240        1.13110
N         -0.89540       -1.65220        1.10770
C         -1.66750       -1.84280        2.26600
C         -1.05140       -1.83570        3.51370
C         -1.79340       -1.98220        4.66930
C         -3.16970       -2.14420        4.59250
S         -4.22490       -2.33820        5.99260
C         -3.13060       -2.03740        7.40960
C         -3.78810       -2.16800        3.34290
C         -3.04920       -2.01650        2.19220
C         -1.21390       -2.32860       -0.07400
C         -1.67640       -3.64180       -0.02210
C         -1.95710       -4.33940       -1.17970
C         -1.77280       -3.73740       -2.41690
S         -2.05710       -4.53640       -3.96500
C         -2.66400       -6.18400       -3.50360
C         -1.32930       -2.41740       -2.47390
C         -1.06070       -1.71790       -1.31970
C         -0.16300        0.57980        1.81520
S         -1.48940        1.21580        2.73010
C         -0.62370        2.72420        2.95100
C          0.58430        2.76630        2.24400
N          1.34300        3.89260        2.01390
C          0.74360        5.15490        1.92300
C          1.38920        6.28220        2.42750
C          0.74360        7.50170        2.47300
C         -0.55920        7.61840        2.00440
S         -1.48840        9.11550        2.11420
C         -0.74850        9.92260        3.56700
C         -1.17110        6.52030        1.40360
C         -0.52720        5.30460        1.36320
C          2.72810        3.75320        1.86050
C          3.43220        2.85610        2.65910
C          4.79190        2.68320        2.49460
C          5.47250        3.41310        1.52860
S          7.20170        3.27490        1.21860
C          7.72060        1.87290        2.24820
C          4.77330        4.33050        0.74360
C          3.41740        4.49880        0.90330
C          0.84780        1.51290        1.64610
S          2.11730        0.90070        0.64370
C         -1.21440        3.75020        3.73110
C         -2.61310        3.91680        3.79340
C         -3.22420        5.13720        4.27540
N         -4.55340        5.07140        4.21500
S         -4.98450        3.66820        3.57580
N         -3.52030        3.04180        3.36040
C         -2.45910        6.21670        4.76130
C         -1.09830        5.91130        4.98470
N         -0.21410        6.68290        5.61750
S          1.21480        5.94460        5.62860
N          0.81150        4.64040        4.78240
C         -0.48200        4.70950        4.46510
C         -2.95550        7.52100        5.01450
C         -3.89150        8.17190        4.26510
C         -4.31540        7.78660        2.89720
O         -4.06140        6.77060        2.28200
C         -5.03650        8.95710        2.36200
C         -5.56050        9.09300        1.07960
C         -6.13820       10.31560        0.83730
C         -6.18950       11.33300        1.79940
C         -5.67860       11.21150        3.06940
C         -5.08540        9.97410        3.33520
C         -4.42540        9.48980        4.54240
C         -4.37370       10.13890        5.74890
C         -3.80810        9.60650        6.92680
N         -3.38800        9.24610        7.93330
C         -4.90850       11.42070        5.98940
N         -5.30880       12.46480        6.25210
C         -6.87290       12.29570        0.86080
C         -6.00650       13.41060        0.22360
C         -4.59340       12.88400        0.18290
C         -4.54620       11.91940       -0.72610
C         -5.92710       11.77750       -1.31750
C         -6.40230       13.23760       -1.25130
C         -6.81800       11.16110       -0.21030
H          6.64660       -6.79440       -5.82300
H          6.60840      -11.75280       -7.54450
H          5.01030      -12.04600       -2.74460
H          5.55900      -15.18140       -4.01920
H          2.93560      -14.72380       -3.97570
H          3.33560      -17.17820       -4.82210
H          4.16830      -17.05900       -7.34210
H          4.28060      -14.53070       -8.04760
H          2.15350      -14.37470       -6.48100
H          3.25900      -13.04890       -6.05300
H          6.37560      -15.06770       -6.49020
H          5.01130       -1.97940       -3.03230
H          3.35000       -0.50170       -1.38770
H          2.51320       -5.94340       -1.26260
H          4.08660       -7.40560       -2.97810
H          0.02030       -1.71560        3.57690
H         -1.28380       -1.97390        5.61900
H         -3.77360       -2.05530        8.28410
H         -2.66480       -1.06120        7.31310
H         -2.38760       -2.82620        7.48490
H         -4.85860       -2.29300        3.29140
H         -3.53750       -2.01670        1.22960
H         -1.79880       -4.12450        0.93550
H         -2.30460       -5.35640       -1.09940
H         -2.86740       -6.69240       -4.44100
H         -3.57990       -6.09430       -2.92700
H         -1.89900       -6.72220       -2.95140
H         -1.20220       -1.94760       -3.43710
H         -0.72620       -0.69330       -1.38010
H          2.39040        6.18970        2.82230
H          1.25740        8.35130        2.89360
H         -1.46020       10.67910        3.88340
H          0.19100       10.39770        3.30020
H         -0.60900        9.18570        4.35290
H         -2.16730        6.62100        1.00420
H         -1.01930        4.45530        0.91390
H          2.90760        2.30380        3.42410
H          5.30780        1.98300        3.13090
H          7.61960        2.12200        3.30050
H          7.13950        0.99250        1.99060
H          8.76670        1.70770        2.00970
H          5.30980        4.89840       -0.00080
H          2.87900        5.19770        0.28090
H         -2.44970        8.05480        5.81060
H         -5.49480        8.28690        0.36560
H         -5.71760       12.00540        3.79680
H         -7.85090       12.65690        1.17240
H         -6.14020       14.39410        0.66620
H         -3.81120       13.21450        0.84080
H         -3.71760       11.28260       -0.97510
H         -5.98870       11.27450       -2.27910
H         -5.84320       13.89330       -1.91740
H         -7.47030       13.35500       -1.43060
H         -7.76080       10.78040       -0.59850
