210

C          6.87590        0.75330        5.41890
C          8.09550        1.14930        4.93470
C          9.16770        1.55880        5.87010
O          9.17440        1.43580        7.07610
C         10.19520        2.20580        5.02660
C         11.35180        2.85360        5.45360
C         12.11280        3.37220        4.43360
C         11.75440        3.25370        3.08480
C         10.62240        2.60820        2.64830
C          9.83100        2.08260        3.67170
C          8.57480        1.34000        3.59550
C          8.06740        0.72280        2.47340
C          8.52820        0.94800        1.16490
N          8.82930        1.12520        0.06990
C          7.07530       -0.27010        2.53220
N          6.30340       -1.12240        2.53180
C         12.97490        4.00440        2.61080
C         14.11720        3.15450        2.01660
C         15.32440        4.06060        2.09670
C         15.66770        4.16300        3.37430
C         14.69740        3.32850        4.17910
C         14.42620        2.19940        3.17660
C         13.37940        4.12920        4.11500
C          5.61530        0.74990        4.80320
C          5.08820        1.44180        3.69610
N          5.68830        2.44450        2.97690
C          5.16100        2.75240        1.69210
C          5.11250        1.78540        0.69470
C          4.59220        2.10110       -0.54550
C          4.10910        3.37460       -0.81820
C          3.50260        3.69520       -2.14780
C          4.17290        4.33590        0.18410
C          4.69350        4.03490        1.42630
C          6.61870        3.35130        3.50200
C          7.52500        3.96560        2.63560
C          8.46300        4.85280        3.11960
C          8.54220        5.14560        4.47620
C          9.58470        6.08160        5.00160
C          7.61300        4.56070        5.32810
C          6.65690        3.68450        4.85400
C          3.77480        0.99340        3.41650
S          2.59230        1.41160        2.23080
C          1.48810        0.19670        2.85180
C          1.98700       -0.43440        3.98470
N          1.33750       -1.38770        4.75030
C          2.12100       -2.40940        5.31970
C          1.93030       -2.81070        6.63810
C          2.72410       -3.80170        7.18090
C          3.72880       -4.40720        6.43640
C          4.61380       -5.45470        7.03870
C          3.91200       -3.99960        5.12020
C          3.11780       -3.01960        4.56110
C         -0.01520       -1.26210        5.08940
C         -0.78710       -2.40450        5.30090
C         -2.10990       -2.29240        5.67210
C         -2.70660       -1.04720        5.83940
C         -4.14020       -0.94940        6.26610
C         -1.93750        0.08460        5.60680
C         -0.61100       -0.01360        5.23420
C          3.28980        0.03050        4.28890
S          4.42110       -0.32960        5.53550
C          0.31810       -0.12760        2.07210
C         -0.22960       -1.41840        2.05950
C         -1.25100       -1.76020        1.20840
C         -1.79040       -0.85090        0.29050
C         -1.23740        0.43350        0.28780
F         -1.60920        1.33290       -0.64330
C         -0.23370        0.78830        1.16760
F          0.23750        2.05000        1.10440
C         -2.77200       -1.26470       -0.68140
C         -3.77360       -0.53710       -1.31330
N         -4.24380        0.70440       -0.96410
C         -4.19290        1.21970        0.33900
C         -4.11800        2.60120        0.51110
C         -4.09660        3.14540        1.77720
C         -4.14050        2.33680        2.90740
C         -4.11120        2.94770        4.27520
C         -4.20520        0.96160        2.72920
C         -4.23960        0.40370        1.46510
C         -4.95910        1.44360       -1.93500
C         -6.25660        1.87030       -1.66790
C         -6.96740        2.55840       -2.62900
C         -6.40630        2.83940       -3.87090
C         -7.19140        3.59630       -4.89660
C         -5.10580        2.42280       -4.12180
C         -4.38220        1.73270       -3.16650
C         -4.34420       -1.30010       -2.36670
S         -5.54520       -0.95680       -3.55400
C         -5.39150       -2.58070       -4.22270
C         -4.47980       -3.36240       -3.48930
N         -4.23830       -4.68630       -3.71580
C         -2.98670       -5.23410       -3.37890
C         -2.90350       -6.46210       -2.73090
C         -1.66880       -6.99280       -2.41290
C         -0.49480       -6.31900       -2.72580
C          0.84470       -6.88160       -2.36360
C         -0.58860       -5.09560       -3.38050
C         -1.81530       -4.55700       -3.71040
C         -5.24980       -5.54890       -4.19140
C         -4.92750       -6.55670       -5.09450
C         -5.90970       -7.41180       -5.55420
C         -7.22720       -7.28360       -5.13100
C         -8.29220       -8.19260       -5.66120
C         -7.53440       -6.27740       -4.22200
C         -6.56250       -5.42010       -3.74750
C         -3.86570       -2.59690       -2.47120
S         -2.66160       -2.91930       -1.27350
C         -5.92710       -2.91080       -5.47540
C         -6.74650       -2.15780       -6.27220
C         -6.70410       -2.32940       -7.74140
O         -6.25000       -3.26990       -8.35800
C         -7.27020       -1.07740       -8.29170
C         -7.30950       -0.68140       -9.62650
C         -7.85310        0.56560       -9.82620
C         -8.32870        1.36350       -8.77780
C         -8.30830        0.98160       -7.45720
C         -7.75320       -0.27970       -7.23360
C         -7.57310       -1.01500       -5.98400
C         -8.27470       -0.80940       -4.81980
C         -9.09160        0.30610       -4.57470
N         -9.74720        1.21580       -4.32180
C         -8.30240       -1.77040       -3.78940
N         -8.39280       -2.57330       -2.97270
C         -8.72590        2.48600       -9.70460
C        -10.22940        2.61750      -10.02590
C        -10.25810        3.45170      -11.28610
C         -9.80950        2.69610      -12.28030
C         -9.47060        1.33820      -11.70870
C        -10.54250        1.23650      -10.61600
C         -8.19800        1.59530      -10.87470
H          6.88170        0.43820        6.45850
H         11.59460        2.92110        6.50260
H         10.35170        2.52520        1.60850
H         12.78440        4.91530        2.04560
H         13.89890        2.71310        1.04790
H         15.75650        4.56130        1.25010
H         16.44380        4.76610        3.80810
H         15.00980        3.04480        5.18060
H         15.31200        1.59530        2.98760
H         13.59550        1.55200        3.45090
H         13.46540        5.12280        4.55200
H          5.47110        0.78720        0.89240
H          4.56120        1.34120       -1.31180
H          3.93380        3.07720       -2.93150
H          3.64680        4.74300       -2.40010
H          2.43010        3.50100       -2.11440
H          3.80100        5.33160       -0.00730
H          4.73420        4.78730        2.20060
H          7.49900        3.72850        1.58200
H          9.16040        5.31000        2.43330
H          9.89290        5.78940        6.00260
H          9.18790        7.09610        5.05270
H         10.45620        6.08970        4.35130
H          7.63790        4.79030        6.38300
H          5.93360        3.26330        5.53500
H          1.16460       -2.33740        7.23490
H          2.56730       -4.09990        8.20750
H          4.81880       -6.24680        6.32140
H          4.15770       -5.88900        7.92490
H          5.56740       -5.01240        7.32840
H          4.68760       -4.45530        4.52260
H          3.27380       -2.71550        3.53630
H         -0.33820       -3.37970        5.18110
H         -2.69250       -3.18730        5.83760
H         -4.30150       -1.51020        7.18570
H         -4.42770        0.08490        6.43850
H         -4.79630       -1.37130        5.50460
H         -2.37420        1.06330        5.73520
H         -0.02840        0.88140        5.07440
H          0.19130       -2.17380        2.70010
H         -1.63980       -2.76720        1.22090
H         -4.07110        3.24050       -0.35720
H         -4.03980        4.21820        1.89170
H         -4.51240        2.25980        5.01550
H         -4.69480        3.86580        4.29800
H         -3.08650        3.19810        4.55250
H         -4.23740        0.31080        3.58980
H         -4.32200       -0.66730        1.35740
H         -6.70190        1.64710       -0.70940
H         -7.98110        2.86790       -2.42350
H         -6.81470        3.40210       -5.89850
H         -8.24240        3.32010       -4.84500
H         -7.11760        4.66770       -4.70670
H         -4.65070        2.63810       -5.07800
H         -3.36960        1.41400       -3.36550
H         -3.80920       -6.99230       -2.47680
H         -1.61860       -7.94580       -1.90670
H          0.75950       -7.91600       -2.04110
H          1.28540       -6.30300       -1.55170
H          1.52410       -6.83230       -3.21250
H          0.31330       -4.56180       -3.64160
H         -1.87430       -3.61500       -4.23600
H         -3.90860       -6.66030       -5.43800
H         -5.64890       -8.18610       -6.26070
H         -8.67810       -7.79950       -6.60230
H         -7.89500       -9.18720       -5.85170
H         -9.12150       -8.26880       -4.96220
H         -8.54950       -6.16240       -3.87220
H         -6.82570       -4.64640       -3.04240
H         -5.52140       -3.79900       -5.94820
H         -6.93100       -1.32280      -10.40700
H         -8.67070        1.60040       -6.65360
H         -8.24440        3.44540       -9.52300
H        -10.84360        2.95930       -9.19730
H        -10.53860        4.48850      -11.31340
H         -9.64050        2.97570      -13.30380
H         -9.39460        0.51560      -12.41480
H        -10.39030        0.41290       -9.92100
H        -11.54830        1.18370      -11.02940
H         -7.36480        1.96170      -11.47220
