274

C          7.68620        4.94390        1.31310
C          6.70070        5.76950        1.75110
C          5.27020        5.36090        1.80690
O          4.80660        4.24580        1.70130
C          4.50280        6.61350        1.85990
C          3.11540        6.72910        1.82390
C          2.66640        8.02600        1.82200
C          3.53010        9.12910        1.86620
C          4.90120        9.02800        1.88890
C          5.38370        7.71420        1.87540
C          6.75410        7.21770        1.83450
C          7.89210        7.97900        1.82950
C          9.20380        7.46020        1.82340
N         10.30110        7.12150        1.83660
C          7.91000        9.38780        1.81470
N          7.99780       10.53270        1.77620
C          2.39010       10.11910        1.85690
C          2.02020       10.75740        3.21340
C          0.61980       11.28360        2.99480
C         -0.19770       10.24020        2.93010
C          0.63580        8.99240        3.10490
C          1.70610        9.52220        4.06790
C          1.43140        8.88700        1.78850
C          7.48080        3.53700        1.12540
C          7.50460        2.90540       -0.11170
N          7.84570        3.55330       -1.28750
C          8.45710        2.85790       -2.32870
C          8.28740        3.26160       -3.65190
C          8.90690        2.57110       -4.67370
C          9.70010        1.45950       -4.41670
C         10.38310        0.72570       -5.53020
C          9.86500        1.06330       -3.09520
C          9.26230        1.75100       -2.06180
C          7.38080        4.87800       -1.46090
C          6.03710        5.16780       -1.24630
C          5.59080        6.47390       -1.30930
C          6.46550        7.51290       -1.59860
C          5.99150        8.93390       -1.62840
C          7.79660        7.20580       -1.86530
C          8.25500        5.90460       -1.80400
C          6.93000        1.61980       -0.02440
S          6.30790        0.51530       -1.20390
C          5.37230       -0.31160        0.03690
C          5.65950        0.15160        1.30530
N          5.00810       -0.27860        2.47510
C          4.24760        0.73470        3.10430
C          3.32350        1.44940        2.34970
C          2.61790        2.49370        2.91430
C          2.81850        2.85740        4.23820
C          2.09020        4.01600        4.84970
C          3.72890        2.12540        4.99170
C          4.43850        1.07910        4.43950
C          5.61660       -1.27080        3.24940
C          4.86360       -1.94300        4.21210
C          5.45270       -2.89260        5.01860
C          6.80190       -3.20760        4.89170
C          7.42860       -4.22780        5.79520
C          7.53620       -2.56050        3.90870
C          6.95750       -1.60760        3.09270
C          6.52320        1.27140        1.25520
S          6.86820        2.50980        2.40410
C          4.14530       -0.94370       -0.35610
C          3.37250       -1.93640        0.23230
N          3.81520       -3.02780        0.94280
C          2.88490       -4.10760        1.07900
C          2.09350       -4.27190        2.20840
C          1.26560       -5.37250        2.30840
C          1.21920       -6.31870        1.28600
S          0.17300       -7.71470        1.53550
C          0.32520       -8.66700       -0.00560
C          1.99740       -6.14280        0.14970
C          2.82460       -5.04290        0.05410
C          5.15140       -3.47590        0.96760
C          6.10660       -3.15420        0.00560
C          7.38990       -3.64690        0.10720
C          7.74540       -4.50160        1.14560
S          9.42370       -5.04590        1.18550
C          9.51290       -6.06950        2.68210
C          6.77970       -4.88220        2.06640
C          5.50270       -4.36970        1.97730
C          1.99440       -1.71620       -0.05930
S          0.48570       -2.31800        0.55270
C         -0.43240       -1.12780       -0.37590
C          0.40200       -0.34780       -1.15470
N          0.02750        0.58660       -2.15030
C         -0.01390       -0.02030       -3.42900
C         -0.80650       -1.14930       -3.62180
C         -0.87620       -1.77420       -4.85360
C         -0.14060       -1.28570       -5.92280
S         -0.16160       -1.97840       -7.54700
C         -1.44370       -3.26070       -7.45790
C          0.69870       -0.19190       -5.72220
C          0.77140        0.42430       -4.49310
C          0.44510        1.91230       -1.99790
C          1.11130        2.34160       -0.84810
C          1.53840        3.64530       -0.72370
C          1.27580        4.57160       -1.72420
S          1.83240        6.23330       -1.46530
C          2.02980        6.85430       -3.16480
C          0.54260        4.17810       -2.83440
C          0.13490        2.86620       -2.96900
C          1.75670       -0.67080       -0.93610
S          3.21050        0.07980       -1.46490
C         -1.85440       -1.17490       -0.27590
C         -2.84510       -0.31880       -0.75230
N         -2.69730        0.99780       -1.18910
C         -3.62310        1.40500       -2.18380
C         -3.58980        0.80020       -3.43710
C         -4.50960        1.14900       -4.40130
C         -5.48470        2.10780       -4.13570
S         -6.61170        2.46750       -5.44290
C         -7.85370        3.53980       -4.66630
C         -5.51780        2.71820       -2.88860
C         -4.59800        2.36390       -1.92180
C         -2.11930        1.96730       -0.36750
C         -1.99810        3.27970       -0.83590
C         -1.48030        4.27140       -0.03380
C         -1.04830        3.97710        1.25240
S         -0.38190        5.28540        2.25150
C         -1.35620        5.06380        3.77660
C         -1.12330        2.67360        1.71480
C         -1.66540        1.68290        0.92030
C         -4.12220       -0.91770       -0.62520
S         -5.69460       -0.45020       -1.16080
C         -6.39230       -1.91520       -0.45060
C         -5.44470       -2.61840        0.33240
N         -5.75740       -3.50340        1.31310
C         -7.06080       -3.60910        1.83830
C         -7.60780       -4.87390        2.05430
C         -8.90540       -5.00070        2.49890
C         -9.67980       -3.86960        2.75380
S        -11.35100       -4.14930        3.22570
C        -12.06850       -2.48690        3.33620
C         -9.10680       -2.60850        2.62060
C         -7.81070       -2.48300        2.16480
C         -4.77500       -4.26520        1.97950
C         -4.73970       -4.21950        3.36940
C         -3.81640       -4.96390        4.07360
C         -2.91600       -5.77190        3.39090
S         -1.70410       -6.76650        4.19480
C         -2.06320       -6.55980        5.96500
C         -2.95790       -5.82570        1.99780
C         -3.88060       -5.08160        1.29320
C         -4.14640       -2.10310        0.09870
S         -2.53880       -2.58640        0.52930
C         -7.72340       -2.18960       -0.74680
C         -8.33260       -3.42790       -0.67240
C         -7.61920       -4.70900       -0.75570
O         -6.41660       -4.88900       -0.84860
C         -8.66900       -5.74930       -0.81090
C         -8.48550       -7.12610       -0.88980
C         -9.65650       -7.84760       -0.89880
C        -10.91800       -7.24450       -0.84040
C        -11.11330       -5.88490       -0.76440
C         -9.93510       -5.13640       -0.75170
C         -9.74070       -3.69200       -0.64300
C        -10.72670       -2.76610       -0.39290
C        -10.48050       -1.41100       -0.10490
N        -10.36640       -0.30600        0.19330
C        -12.10000       -3.05680       -0.30290
N        -13.23550       -3.20600       -0.20470
C        -11.64290       -8.56670       -0.89810
C        -12.26700       -8.95410       -2.25520
C        -12.46830      -10.44830       -2.14770
C        -11.27270      -11.02140       -2.19990
C        -10.24330       -9.92390       -2.34380
C        -11.04430       -8.91860       -3.18130
C        -10.23460       -9.24050       -0.96020
H          8.62750        5.35660        0.97080
H          2.47730        5.86180        1.79060
H          5.55400        9.88500        1.90240
H          2.38580       10.83460        1.03670
H          2.75220       11.46140        3.60010
H          0.38440       12.32280        2.85780
H         -1.25260       10.23430        2.72720
H          0.11110        8.08250        3.38100
H          1.29250        9.79010        5.03920
H          2.55050        8.84940        4.20390
H          0.79840        8.75940        0.91360
H          7.66210        4.11380       -3.87350
H          8.76300        2.89810       -5.69370
H         11.37960        1.13780       -5.69450
H         10.49210       -0.32930       -5.28920
H          9.82320        0.82040       -6.45780
H         10.48350        0.20670       -2.86890
H          9.42350        1.43870       -1.04070
H          5.35050        4.36990       -1.00390
H          4.54850        6.68550       -1.11890
H          4.99000        9.01450       -1.21180
H          5.97360        9.30670       -2.65260
H          6.66110        9.57430       -1.05620
H          8.48670        8.00170       -2.10570
H          9.29340        5.67770       -1.99600
H          3.18250        1.20060        1.30890
H          1.91020        3.04190        2.31020
H          1.34860        3.66560        5.56940
H          2.78610        4.66270        5.38170
H          1.58750        4.60320        4.08610
H          3.90530        2.39710        6.02320
H          5.16630        0.54570        5.03310
H          3.81870       -1.69520        4.32850
H          4.85860       -3.39850        5.76710
H          7.05560       -5.22630        5.56300
H          7.18330       -4.01960        6.83540
H          8.51130       -4.22820        5.69060
H          8.58640       -2.78500        3.78590
H          7.55470       -1.11110        2.34240
H          2.13890       -3.54390        3.00350
H          0.64990       -5.51980        3.18170
H          1.34670       -9.01160       -0.13570
H         -0.33580       -9.51910        0.11890
H         -0.00230       -8.06700       -0.84940
H          1.97750       -6.85310       -0.66030
H          3.44320       -4.90840       -0.82180
H          5.85270       -2.54620       -0.84620
H          8.12900       -3.38200       -0.63370
H          9.22370       -5.48240        3.54830
H         10.55190       -6.37200        2.76840
H          8.88210       -6.94700        2.57240
H          7.00580       -5.57420        2.86020
H          4.76440       -4.66470        2.70640
H         -1.36960       -1.55880       -2.79690
H         -1.50930       -2.64070       -4.95810
H         -2.38840       -2.81880       -7.15530
H         -1.13880       -4.04910       -6.77570
H         -1.52800       -3.65860       -8.46440
H          1.30500        0.16110       -6.54230
H          1.45510        1.24690       -4.35060
H          1.28880        1.65870       -0.03370
H          2.09360        3.95210        0.14900
H          2.55090        6.10970       -3.75850
H          2.62980        7.75580       -3.08930
H          1.06270        7.09360       -3.59770
H          0.27670        4.88800       -3.60230
H         -0.45060        2.58190       -3.83070
H         -2.83910        0.05580       -3.64990
H         -4.48470        0.68030       -5.37310
H         -8.28960        3.03540       -3.80910
H         -7.40740        4.48910       -4.38440
H         -8.61300        3.70290       -5.42490
H         -6.26160        3.46060       -2.65010
H         -4.64420        2.82770       -0.94750
H         -2.32140        3.52300       -1.83530
H         -1.40350        5.28320       -0.40030
H         -1.10290        4.12270        4.25400
H         -1.09740        5.88950        4.43160
H         -2.41310        5.09780        3.53020
H         -0.76600        2.42020        2.70180
H         -1.74120        0.68420        1.32040
H         -7.01380       -5.75120        1.84810
H         -9.34350       -5.97750        2.63420
H        -11.60870       -1.93440        4.15030
H        -13.12270       -2.64230        3.54290
H        -11.95680       -1.96580        2.39010
H         -9.66180       -1.71570        2.85660
H         -7.38390       -1.49770        2.05270
H         -5.44070       -3.59190        3.90030
H         -3.80960       -4.90150        5.14920
H         -1.89220       -5.53090        6.26770
H         -1.36350       -7.21350        6.47660
H         -3.08100       -6.87240        6.17760
H         -2.26280       -6.46790        1.48140
H         -3.94790       -5.14990        0.21880
H         -8.30200       -1.35280       -1.12010
H         -7.49550       -7.55400       -0.92790
H        -12.08970       -5.43190       -0.71840
H        -12.29060       -8.78990       -0.05230
H        -13.13190       -8.36310       -2.54390
H        -13.42320      -10.91560       -1.99320
H        -11.02940      -12.06290       -2.09750
H         -9.26430      -10.21680       -2.71410
H        -11.27010       -9.29880       -4.17630
H        -10.57810       -7.93860       -3.26250
H         -9.94430       -9.91300       -0.15470
