141

C         -1.59790       -4.93370        1.32700
C         -1.22110       -5.71390        2.39050
C          0.13430       -5.91530        2.93650
O          1.20670       -5.58540        2.46110
C         -0.04650       -6.59810        4.23070
C          0.95450       -6.93370        5.13960
C          0.49160       -7.53630        6.28390
C         -0.86960       -7.77890        6.51040
C         -1.86600       -7.45350        5.62100
C         -1.41510       -6.84900        4.44450
C         -2.16320       -6.35430        3.29060
C         -3.51670       -6.49230        3.11670
C         -4.27110       -6.03190        2.01780
N         -4.97470       -5.70150        1.17100
C         -4.37450       -7.14550        4.02580
N         -5.13670       -7.67000        4.70650
C         -0.61440       -8.41000        7.85640
C         -0.68170       -9.95410        7.95030
C         -0.34880      -10.48080        6.57640
C          0.93990      -10.25550        6.35800
C          1.50150       -9.57220        7.58030
C          0.64560      -10.22910        8.67490
C          0.90290       -8.14380        7.60160
C         -0.84650       -4.08990        0.49590
C          0.51040       -3.91150        0.26280
C          0.79670       -2.75020       -0.44820
O          1.99730       -2.27400       -0.83000
C          3.14710       -3.06710       -0.57550
C          4.33240       -2.37110       -1.22210
C         -0.34180       -1.97220       -0.72250
S         -1.77500       -2.84630       -0.32030
C         -0.31940       -0.63810       -1.18520
C         -1.27140        0.37330       -1.02320
N         -2.41110        0.31230       -0.23800
C         -3.54490        1.02540       -0.65240
C         -3.89970        1.05370       -1.99790
C         -4.99300        1.78160       -2.42520
C         -5.75740        2.48780       -1.50690
S         -7.16370        3.46610       -1.92860
C         -7.38110        3.18100       -3.70810
C         -5.41360        2.44930       -0.15580
C         -4.31980        1.73080        0.26860
C         -2.40330       -0.36960        0.98270
C         -3.54500       -1.04330        1.42830
C         -3.48290       -1.85870        2.53520
C         -2.28390       -2.02470        3.22750
S         -2.28460       -3.19930        4.54580
C         -0.55480       -3.24910        5.09120
C         -1.17190       -1.28540        2.84530
C         -1.23700       -0.45970        1.74110
C         -0.86150        1.54780       -1.69370
S         -1.55360        3.11980       -1.88960
C         -0.12290        3.67230       -2.76930
C          0.85510        2.68450       -2.84290
N          2.13510        2.81860       -3.35370
C          2.91410        3.95150       -3.10100
C          2.72680        4.72180       -1.95650
C          3.45540        5.87780       -1.75430
C          4.39770        6.27950       -2.69070
S          5.36400        7.75010       -2.56390
C          4.69880        8.58640       -1.09680
C          4.61880        5.48890       -3.81800
C          3.88800        4.34260       -4.02360
C          2.72580        1.67920       -3.92580
C          2.00340        0.90070       -4.82470
C          2.54180       -0.25950       -5.34660
C          3.81980       -0.65530       -4.97880
S          4.60320       -2.13460       -5.53940
C          3.36360       -2.90920       -6.61510
C          4.55840        0.13820       -4.10170
C          4.01970        1.29090       -3.57870
C          0.39750        1.47370       -2.26600
S          1.12420       -0.07710       -2.02070
C         -0.16250        4.99270       -3.28750
C         -1.11420        5.94540       -2.97800
C         -0.93400        7.15560       -3.65930
O         -1.67470        8.28490       -3.59880
C         -2.69790        8.37920       -2.62370
C         -2.14570        8.61200       -1.22220
C          0.16750        7.13830       -4.50840
S          0.95230        5.59060       -4.48210
C          0.65750        8.22310       -5.27510
C          1.79460        8.26520       -6.05680
C          2.00390        9.50780       -6.65280
C          1.02750       10.42470       -6.33190
C          0.94480       11.74810       -6.75650
N          0.88130       12.83990       -7.11020
S         -0.17640        9.74440       -5.27060
H         -2.66430       -4.83730        1.16470
H          1.99050       -6.71940        4.92680
H         -2.90790       -7.64200        5.81610
H         -1.08160       -7.92140        8.70930
H         -1.59050      -10.33910        8.40470
H         -1.07500      -10.89670        5.90290
H          1.50590      -10.44580        5.46490
H          2.58140       -9.61080        7.69840
H          0.72290       -9.73380        9.64190
H          0.85110      -11.29240        8.78870
H          1.42830       -7.48480        8.29070
H          1.24580       -4.59040        0.65040
H          3.00640       -4.06740       -1.00440
H          3.29410       -3.16860        0.50760
H          4.45060       -1.37410       -0.80690
H          4.17230       -2.27830       -2.29270
H          5.23750       -2.94410       -1.04480
H         -3.31500        0.49590       -2.71460
H         -5.23680        1.78420       -3.47500
H         -7.53560        2.12270       -3.89650
H         -8.27040        3.73830       -3.98560
H         -6.52340        3.56070       -4.25580
H         -6.01300        2.99990        0.55280
H         -4.05190        1.71570        1.31430
H         -4.46420       -0.96350        0.86930
H         -4.35470       -2.40910        2.85310
H         -0.27510       -2.29690        5.53260
H         -0.50810       -4.03160        5.84300
H          0.09100       -3.50380        4.25550
H         -0.24440       -1.35020        3.39070
H         -0.36050        0.09750        1.44480
H          1.99750        4.41970       -1.21940
H          3.27750        6.45240       -0.85960
H          3.63500        8.76420       -1.22440
H          4.89900        7.99770       -0.20620
H          5.22630        9.53330       -1.03690
H          5.36140        5.79910       -4.53690
H          4.04740        3.74930       -4.91080
H          1.00730        1.20570       -5.11020
H          1.95220       -0.84200       -6.03570
H          3.15110       -2.26400       -7.46250
H          3.81500       -3.83380       -6.96140
H          2.46400       -3.12780       -6.04720
H          5.55410       -0.17310       -3.82540
H          4.59000        1.89080       -2.88570
H         -1.89730        5.74810       -2.26810
H         -3.33070        7.48400       -2.65050
H         -3.29280        9.23890       -2.94170
H         -2.96730        8.72940       -0.52160
H         -1.52960        7.77370       -0.90490
H         -1.53830        9.51360       -1.21010
H          2.44460        7.41610       -6.17310
H          2.83510        9.74110       -7.29440
