
  xtb     02132201213D
 energy: -407.302378661072 gnorm: 0.000449646599 xtb: 6.4.1 (unknown)
254280  0     0  0            999 V2000
   -3.1666    2.3789    9.3996 C   0  0  0  0  0  0  0  0  0  0  0  0
   -2.2217    2.2927   10.3968 C   0  0  0  0  0  0  0  0  0  0  0  0
   -0.7870    2.5440   10.2504 C   0  0  0  0  0  0  0  0  0  0  0  0
   -0.1727    2.7888    9.2254 O   0  0  0  0  0  0  0  0  0  0  0  0
   -0.2137    2.4702   11.6064 C   0  0  0  0  0  0  0  0  0  0  0  0
    1.1209    2.6447   11.9634 C   0  0  0  0  0  0  0  0  0  0  0  0
    1.3619    2.5017   13.3090 C   0  0  0  0  0  0  0  0  0  0  0  0
    0.3493    2.2088   14.2309 C   0  0  0  0  0  0  0  0  0  0  0  0
   -0.9727    2.0393   13.8913 C   0  0  0  0  0  0  0  0  0  0  0  0
   -1.2402    2.1800   12.5267 C   0  0  0  0  0  0  0  0  0  0  0  0
   -2.4990    2.0473   11.7915 C   0  0  0  0  0  0  0  0  0  0  0  0
   -3.7110    1.7158   12.3496 C   0  0  0  0  0  0  0  0  0  0  0  0
   -3.9384    1.5611   13.7311 C   0  0  0  0  0  0  0  0  0  0  0  0
   -4.2079    1.4364   14.8412 N   0  0  0  0  0  0  0  0  0  0  0  0
   -4.8965    1.4502   11.6384 C   0  0  0  0  0  0  0  0  0  0  0  0
   -5.8984    1.1795   11.1426 N   0  0  0  0  0  0  0  0  0  0  0  0
    1.3058    2.1915   15.3978 C   0  0  0  0  0  0  0  0  0  0  0  0
    1.7206    0.8030   15.9288 C   0  0  0  0  0  0  0  0  0  0  0  0
    2.9857    1.0775   16.7094 C   0  0  0  0  0  0  0  0  0  0  0  0
    3.9455    1.3572   15.8369 C   0  0  0  0  0  0  0  0  0  0  0  0
    3.3452    1.2760   14.4519 C   0  0  0  0  0  0  0  0  0  0  0  0
    2.3205    0.1560   14.6737 C   0  0  0  0  0  0  0  0  0  0  0  0
    2.4352    2.5198   14.3694 C   0  0  0  0  0  0  0  0  0  0  0  0
   -3.0161    2.5576    8.0255 C   0  0  0  0  0  0  0  0  0  0  0  0
   -4.1186    2.6201    7.1333 C   0  0  0  0  0  0  0  0  0  0  0  0
   -5.4325    2.7389    7.4953 N   0  0  0  0  0  0  0  0  0  0  0  0
   -5.8548    3.5097    8.5940 C   0  0  0  0  0  0  0  0  0  0  0  0
   -5.1914    4.6850    8.9381 C   0  0  0  0  0  0  0  0  0  0  0  0
   -5.6153    5.4243   10.0241 C   0  0  0  0  0  0  0  0  0  0  0  0
   -6.7128    5.0275   10.7793 C   0  0  0  0  0  0  0  0  0  0  0  0
   -7.1611    5.8135   11.9725 C   0  0  0  0  0  0  0  0  0  0  0  0
   -7.3859    3.8694   10.4081 C   0  0  0  0  0  0  0  0  0  0  0  0
   -6.9661    3.1121    9.3332 C   0  0  0  0  0  0  0  0  0  0  0  0
   -6.4115    2.1664    6.6573 C   0  0  0  0  0  0  0  0  0  0  0  0
   -6.2459    0.8671    6.1844 C   0  0  0  0  0  0  0  0  0  0  0  0
   -7.1905    0.3111    5.3468 C   0  0  0  0  0  0  0  0  0  0  0  0
   -8.3215    1.0259    4.9669 C   0  0  0  0  0  0  0  0  0  0  0  0
   -9.3227    0.4165    4.0357 C   0  0  0  0  0  0  0  0  0  0  0  0
   -8.4860    2.3143    5.4600 C   0  0  0  0  0  0  0  0  0  0  0  0
   -7.5451    2.8852    6.2946 C   0  0  0  0  0  0  0  0  0  0  0  0
   -3.6848    2.5400    5.7982 C   0  0  0  0  0  0  0  0  0  0  0  0
   -4.4945    2.5064    4.2599 S   0  0  0  0  0  0  0  0  0  0  0  0
   -2.9511    2.4449    3.4456 C   0  0  0  0  0  0  0  0  0  0  0  0
   -1.8755    2.3919    4.3207 C   0  0  0  0  0  0  0  0  0  0  0  0
   -0.5532    2.1803    3.9221 N   0  0  0  0  0  0  0  0  0  0  0  0
   -0.3254    1.1609    2.9834 C   0  0  0  0  0  0  0  0  0  0  0  0
   -1.0594   -0.0205    3.0733 C   0  0  0  0  0  0  0  0  0  0  0  0
   -0.9299   -1.0012    2.1116 C   0  0  0  0  0  0  0  0  0  0  0  0
   -0.0614   -0.8442    1.0390 C   0  0  0  0  0  0  0  0  0  0  0  0
    0.0751   -1.9088   -0.0050 C   0  0  0  0  0  0  0  0  0  0  0  0
    0.6931    0.3195    0.9724 C   0  0  0  0  0  0  0  0  0  0  0  0
    0.5676    1.3108    1.9245 C   0  0  0  0  0  0  0  0  0  0  0  0
    0.4006    3.1716    4.1770 C   0  0  0  0  0  0  0  0  0  0  0  0
    0.0087    4.4923    4.3892 C   0  0  0  0  0  0  0  0  0  0  0  0
    0.9551    5.4805    4.5653 C   0  0  0  0  0  0  0  0  0  0  0  0
    2.3130    5.1901    4.5270 C   0  0  0  0  0  0  0  0  0  0  0  0
    3.3229    6.2859    4.6763 C   0  0  0  0  0  0  0  0  0  0  0  0
    2.6956    3.8656    4.3592 C   0  0  0  0  0  0  0  0  0  0  0  0
    1.7588    2.8641    4.1988 C   0  0  0  0  0  0  0  0  0  0  0  0
   -2.3020    2.4746    5.6634 C   0  0  0  0  0  0  0  0  0  0  0  0
   -1.4688    2.5349    7.1714 S   0  0  0  0  0  0  0  0  0  0  0  0
   -2.7865    2.4309    2.0230 C   0  0  0  0  0  0  0  0  0  0  0  0
   -1.7699    3.0730    1.3847 C   0  0  0  0  0  0  0  0  0  0  0  0
   -1.6178    2.7024    0.0285 C   0  0  0  0  0  0  0  0  0  0  0  0
   -0.5526    3.0348   -0.8220 C   0  0  0  0  0  0  0  0  0  0  0  0
    0.5154    3.9368   -0.3660 C   0  0  0  0  0  0  0  0  0  0  0  0
    1.8501    3.5504   -0.4511 C   0  0  0  0  0  0  0  0  0  0  0  0
    2.8406    4.3663    0.0682 C   0  0  0  0  0  0  0  0  0  0  0  0
    2.5172    5.5583    0.6825 C   0  0  0  0  0  0  0  0  0  0  0  0
    1.1858    5.9629    0.7552 C   0  0  0  0  0  0  0  0  0  0  0  0
    0.8991    7.5136    1.5511 S   0  0  0  0  0  0  0  0  0  0  0  0
   -0.8772    7.8719    1.3148 C   0  0  0  0  0  0  0  0  0  0  0  0
   -1.7621    7.1985    2.3469 C   0  0  0  0  0  0  0  0  0  0  0  0
    0.1926    5.1573    0.2234 C   0  0  0  0  0  0  0  0  0  0  0  0
   -0.5075    2.3627   -2.0313 C   0  0  0  0  0  0  0  0  0  0  0  0
   -1.4657    1.3942   -2.4245 C   0  0  0  0  0  0  0  0  0  0  0  0
   -2.5372    1.0777   -1.5728 C   0  0  0  0  0  0  0  0  0  0  0  0
   -3.4943    0.0087   -1.8915 C   0  0  0  0  0  0  0  0  0  0  0  0
   -3.0402   -1.2786   -2.1700 C   0  0  0  0  0  0  0  0  0  0  0  0
   -3.9475   -2.2930   -2.4073 C   0  0  0  0  0  0  0  0  0  0  0  0
   -5.3087   -2.0409   -2.4052 C   0  0  0  0  0  0  0  0  0  0  0  0
   -5.7655   -0.7536   -2.1581 C   0  0  0  0  0  0  0  0  0  0  0  0
   -7.4823   -0.3257   -2.1223 S   0  0  0  0  0  0  0  0  0  0  0  0
   -8.2312   -1.4675   -3.3396 C   0  0  0  0  0  0  0  0  0  0  0  0
   -7.6865   -1.2489   -4.7374 C   0  0  0  0  0  0  0  0  0  0  0  0
   -4.8584    0.2619   -1.8817 C   0  0  0  0  0  0  0  0  0  0  0  0
   -2.5883    1.7476   -0.3623 C   0  0  0  0  0  0  0  0  0  0  0  0
   -3.6973    1.3944    0.9416 S   0  0  0  0  0  0  0  0  0  0  0  0
   -1.1226    0.7907   -3.6594 C   0  0  0  0  0  0  0  0  0  0  0  0
    0.0659    1.2331   -4.1701 C   0  0  0  0  0  0  0  0  0  0  0  0
    0.7621    2.5147   -3.2083 S   0  0  0  0  0  0  0  0  0  0  0  0
    0.8235    0.6215   -5.2112 C   0  0  0  0  0  0  0  0  0  0  0  0
    2.2023    0.6334   -5.3487 C   0  0  0  0  0  0  0  0  0  0  0  0
    3.0595    1.4696   -4.6042 N   0  0  0  0  0  0  0  0  0  0  0  0
    3.3383    2.7315   -5.1570 C   0  0  0  0  0  0  0  0  0  0  0  0
    3.5172    2.8509   -6.5366 C   0  0  0  0  0  0  0  0  0  0  0  0
    3.7681    4.0773   -7.1100 C   0  0  0  0  0  0  0  0  0  0  0  0
    3.8471    5.2237   -6.3240 C   0  0  0  0  0  0  0  0  0  0  0  0
    4.1876    6.7368   -7.1698 S   0  0  0  0  0  0  0  0  0  0  0  0
    4.2588    7.9735   -5.8431 C   0  0  0  0  0  0  0  0  0  0  0  0
    3.6503    5.1173   -4.9547 C   0  0  0  0  0  0  0  0  0  0  0  0
    3.3925    3.8874   -4.3807 C   0  0  0  0  0  0  0  0  0  0  0  0
    3.5014    1.0368   -3.3568 C   0  0  0  0  0  0  0  0  0  0  0  0
    2.9361   -0.0966   -2.7635 C   0  0  0  0  0  0  0  0  0  0  0  0
    3.3001   -0.4815   -1.4916 C   0  0  0  0  0  0  0  0  0  0  0  0
    4.2323    0.2534   -0.7703 C   0  0  0  0  0  0  0  0  0  0  0  0
    4.5857   -0.2524    0.8939 S   0  0  0  0  0  0  0  0  0  0  0  0
    4.7660    1.3511    1.7350 C   0  0  0  0  0  0  0  0  0  0  0  0
    4.8705    1.3197   -1.3874 C   0  0  0  0  0  0  0  0  0  0  0  0
    4.5191    1.6989   -2.6676 C   0  0  0  0  0  0  0  0  0  0  0  0
    2.6274   -0.3469   -6.2655 C   0  0  0  0  0  0  0  0  0  0  0  0
    4.1728   -0.8770   -6.7969 S   0  0  0  0  0  0  0  0  0  0  0  0
    3.4303   -2.1792   -7.7335 C   0  0  0  0  0  0  0  0  0  0  0  0
    2.0226   -2.1001   -7.7247 C   0  0  0  0  0  0  0  0  0  0  0  0
    1.1545   -2.8449   -8.4843 N   0  0  0  0  0  0  0  0  0  0  0  0
    1.4938   -3.3940   -9.7297 C   0  0  0  0  0  0  0  0  0  0  0  0
    2.4407   -2.8068  -10.5645 C   0  0  0  0  0  0  0  0  0  0  0  0
    2.8175   -3.4163  -11.7438 C   0  0  0  0  0  0  0  0  0  0  0  0
    2.2401   -4.6221  -12.1218 C   0  0  0  0  0  0  0  0  0  0  0  0
    2.7336   -5.5309  -13.5452 S   0  0  0  0  0  0  0  0  0  0  0  0
    4.3573   -4.8194  -13.9414 C   0  0  0  0  0  0  0  0  0  0  0  0
    1.2168   -5.1597  -11.3431 C   0  0  0  0  0  0  0  0  0  0  0  0
    0.8532   -4.5602  -10.1596 C   0  0  0  0  0  0  0  0  0  0  0  0
   -0.2181   -2.8881   -8.1287 C   0  0  0  0  0  0  0  0  0  0  0  0
   -1.1804   -2.5106   -9.0644 C   0  0  0  0  0  0  0  0  0  0  0  0
   -2.5171   -2.5701   -8.7448 C   0  0  0  0  0  0  0  0  0  0  0  0
   -2.9235   -3.0100   -7.4851 C   0  0  0  0  0  0  0  0  0  0  0  0
   -4.6598   -3.0424   -7.1912 S   0  0  0  0  0  0  0  0  0  0  0  0
   -4.8148   -3.9506   -5.6269 C   0  0  0  0  0  0  0  0  0  0  0  0
   -1.9670   -3.3807   -6.5500 C   0  0  0  0  0  0  0  0  0  0  0  0
   -0.6238   -3.3213   -6.8716 C   0  0  0  0  0  0  0  0  0  0  0  0
    1.5965   -1.0742   -6.8507 C   0  0  0  0  0  0  0  0  0  0  0  0
    0.0537   -0.5340   -6.2736 S   0  0  0  0  0  0  0  0  0  0  0  0
    4.3292   -3.0816   -8.3219 C   0  0  0  0  0  0  0  0  0  0  0  0
    4.1411   -4.3710   -8.7481 C   0  0  0  0  0  0  0  0  0  0  0  0
    5.0383   -4.9439   -9.7775 C   0  0  0  0  0  0  0  0  0  0  0  0
    6.0317   -4.4301  -10.2496 O   0  0  0  0  0  0  0  0  0  0  0  0
    4.4118   -6.2164  -10.1848 C   0  0  0  0  0  0  0  0  0  0  0  0
    4.8419   -7.0866  -11.1830 C   0  0  0  0  0  0  0  0  0  0  0  0
    4.0270   -8.1774  -11.3664 C   0  0  0  0  0  0  0  0  0  0  0  0
    2.8735   -8.3973  -10.6028 C   0  0  0  0  0  0  0  0  0  0  0  0
    2.4473   -7.5571   -9.6020 C   0  0  0  0  0  0  0  0  0  0  0  0
    3.2542   -6.4342   -9.4115 C   0  0  0  0  0  0  0  0  0  0  0  0
    3.1241   -5.3401   -8.4521 C   0  0  0  0  0  0  0  0  0  0  0  0
    2.3203   -5.3478   -7.3329 C   0  0  0  0  0  0  0  0  0  0  0  0
    2.4911   -4.4697   -6.2504 C   0  0  0  0  0  0  0  0  0  0  0  0
    2.6070   -3.8067   -5.3179 N   0  0  0  0  0  0  0  0  0  0  0  0
    1.2732   -6.2578   -7.1077 C   0  0  0  0  0  0  0  0  0  0  0  0
    0.3615   -6.9212   -6.8832 N   0  0  0  0  0  0  0  0  0  0  0  0
    2.5460   -9.6815  -11.3219 C   0  0  0  0  0  0  0  0  0  0  0  0
    2.8616  -11.0131  -10.5974 C   0  0  0  0  0  0  0  0  0  0  0  0
    3.9961  -10.7252   -9.6454 C   0  0  0  0  0  0  0  0  0  0  0  0
    5.0887  -10.5186  -10.3685 C   0  0  0  0  0  0  0  0  0  0  0  0
    4.7125  -10.6623  -11.8225 C   0  0  0  0  0  0  0  0  0  0  0  0
    3.6243  -11.7425  -11.7148 C   0  0  0  0  0  0  0  0  0  0  0  0
    3.8324   -9.4369  -12.1723 C   0  0  0  0  0  0  0  0  0  0  0  0
   -4.1962    2.2762    9.7174 H   0  0  0  0  0  0  0  0  0  0  0  0
    1.8686    2.8681   11.2185 H   0  0  0  0  0  0  0  0  0  0  0  0
   -1.7393    1.8176   14.6146 H   0  0  0  0  0  0  0  0  0  0  0  0
    1.1000    2.9066   16.1921 H   0  0  0  0  0  0  0  0  0  0  0  0
    0.9343    0.2598   16.4459 H   0  0  0  0  0  0  0  0  0  0  0  0
    3.0371    1.0947   17.7823 H   0  0  0  0  0  0  0  0  0  0  0  0
    4.9586    1.6547   16.0354 H   0  0  0  0  0  0  0  0  0  0  0  0
    4.0394    1.1632   13.6234 H   0  0  0  0  0  0  0  0  0  0  0  0
    2.7955   -0.7995   14.8901 H   0  0  0  0  0  0  0  0  0  0  0  0
    1.6129    0.0340   13.8559 H   0  0  0  0  0  0  0  0  0  0  0  0
    2.9816    3.4551   14.4778 H   0  0  0  0  0  0  0  0  0  0  0  0
   -4.3412    5.0111    8.3570 H   0  0  0  0  0  0  0  0  0  0  0  0
   -5.0869    6.3305   10.2836 H   0  0  0  0  0  0  0  0  0  0  0  0
   -6.9641    5.2506   12.8850 H   0  0  0  0  0  0  0  0  0  0  0  0
   -6.6373    6.7641   12.0347 H   0  0  0  0  0  0  0  0  0  0  0  0
   -8.2319    6.0037   11.9260 H   0  0  0  0  0  0  0  0  0  0  0  0
   -8.2409    3.5439   10.9810 H   0  0  0  0  0  0  0  0  0  0  0  0
   -7.4862    2.2048    9.0701 H   0  0  0  0  0  0  0  0  0  0  0  0
   -5.3767    0.2992    6.4831 H   0  0  0  0  0  0  0  0  0  0  0  0
   -7.0513   -0.6962    4.9828 H   0  0  0  0  0  0  0  0  0  0  0  0
   -9.5652   -0.5990    4.3431 H   0  0  0  0  0  0  0  0  0  0  0  0
  -10.2369    1.0034    4.0062 H   0  0  0  0  0  0  0  0  0  0  0  0
   -8.9113    0.3699    3.0273 H   0  0  0  0  0  0  0  0  0  0  0  0
   -9.3592    2.8854    5.1802 H   0  0  0  0  0  0  0  0  0  0  0  0
   -7.6792    3.8912    6.6638 H   0  0  0  0  0  0  0  0  0  0  0  0
   -1.7453   -0.1594    3.8963 H   0  0  0  0  0  0  0  0  0  0  0  0
   -1.5194   -1.9031    2.1938 H   0  0  0  0  0  0  0  0  0  0  0  0
   -0.8326   -2.5050   -0.0697 H   0  0  0  0  0  0  0  0  0  0  0  0
    0.2863   -1.4675   -0.9774 H   0  0  0  0  0  0  0  0  0  0  0  0
    0.8995   -2.5769    0.2481 H   0  0  0  0  0  0  0  0  0  0  0  0
    1.3776    0.4605    0.1488 H   0  0  0  0  0  0  0  0  0  0  0  0
    1.1430    2.2194    1.8299 H   0  0  0  0  0  0  0  0  0  0  0  0
   -1.0432    4.7420    4.4042 H   0  0  0  0  0  0  0  0  0  0  0  0
    0.6379    6.5021    4.7154 H   0  0  0  0  0  0  0  0  0  0  0  0
    3.0729    7.1205    4.0228 H   0  0  0  0  0  0  0  0  0  0  0  0
    3.3313    6.6550    5.7018 H   0  0  0  0  0  0  0  0  0  0  0  0
    4.3212    5.9317    4.4315 H   0  0  0  0  0  0  0  0  0  0  0  0
    3.7460    3.6103    4.3549 H   0  0  0  0  0  0  0  0  0  0  0  0
    2.0725    1.8377    4.0824 H   0  0  0  0  0  0  0  0  0  0  0  0
   -1.1065    3.7524    1.8877 H   0  0  0  0  0  0  0  0  0  0  0  0
    2.1131    2.6016   -0.8931 H   0  0  0  0  0  0  0  0  0  0  0  0
    3.8749    4.0633   -0.0023 H   0  0  0  0  0  0  0  0  0  0  0  0
    3.2826    6.1902    1.1056 H   0  0  0  0  0  0  0  0  0  0  0  0
   -0.9382    8.9566    1.4082 H   0  0  0  0  0  0  0  0  0  0  0  0
   -1.1417    7.5957    0.2948 H   0  0  0  0  0  0  0  0  0  0  0  0
   -2.8021    7.4716    2.1756 H   0  0  0  0  0  0  0  0  0  0  0  0
   -1.6757    6.1160    2.2960 H   0  0  0  0  0  0  0  0  0  0  0  0
   -1.4797    7.5162    3.3476 H   0  0  0  0  0  0  0  0  0  0  0  0
   -0.8430    5.4574    0.2429 H   0  0  0  0  0  0  0  0  0  0  0  0
   -1.9815   -1.4852   -2.1655 H   0  0  0  0  0  0  0  0  0  0  0  0
   -3.5925   -3.3001   -2.5774 H   0  0  0  0  0  0  0  0  0  0  0  0
   -6.0005   -2.8502   -2.5806 H   0  0  0  0  0  0  0  0  0  0  0  0
   -8.0884   -2.4914   -2.9954 H   0  0  0  0  0  0  0  0  0  0  0  0
   -9.2940   -1.2314   -3.2921 H   0  0  0  0  0  0  0  0  0  0  0  0
   -6.6164   -1.4422   -4.7744 H   0  0  0  0  0  0  0  0  0  0  0  0
   -7.8588   -0.2223   -5.0517 H   0  0  0  0  0  0  0  0  0  0  0  0
   -8.1838   -1.9152   -5.4396 H   0  0  0  0  0  0  0  0  0  0  0  0
   -5.2259    1.2552   -1.6736 H   0  0  0  0  0  0  0  0  0  0  0  0
   -1.7051    0.0190   -4.1307 H   0  0  0  0  0  0  0  0  0  0  0  0
    3.4694    1.9754   -7.1652 H   0  0  0  0  0  0  0  0  0  0  0  0
    3.9126    4.1601   -8.1763 H   0  0  0  0  0  0  0  0  0  0  0  0
    5.0443    7.7167   -5.1383 H   0  0  0  0  0  0  0  0  0  0  0  0
    3.2938    8.0478   -5.3503 H   0  0  0  0  0  0  0  0  0  0  0  0
    4.4957    8.9129   -6.3329 H   0  0  0  0  0  0  0  0  0  0  0  0
    3.6811    5.9853   -4.3160 H   0  0  0  0  0  0  0  0  0  0  0  0
    3.2125    3.8378   -3.3183 H   0  0  0  0  0  0  0  0  0  0  0  0
    2.2012   -0.6812   -3.2949 H   0  0  0  0  0  0  0  0  0  0  0  0
    2.8562   -1.3549   -1.0408 H   0  0  0  0  0  0  0  0  0  0  0  0
    4.7482    1.1326    2.7979 H   0  0  0  0  0  0  0  0  0  0  0  0
    3.9286    1.9907    1.4733 H   0  0  0  0  0  0  0  0  0  0  0  0
    5.7121    1.8161    1.4734 H   0  0  0  0  0  0  0  0  0  0  0  0
    5.6536    1.8584   -0.8760 H   0  0  0  0  0  0  0  0  0  0  0  0
    5.0504    2.5099   -3.1398 H   0  0  0  0  0  0  0  0  0  0  0  0
    2.8924   -1.8654  -10.2917 H   0  0  0  0  0  0  0  0  0  0  0  0
    3.5649   -2.9403  -12.3569 H   0  0  0  0  0  0  0  0  0  0  0  0
    4.2384   -3.8508  -14.4184 H   0  0  0  0  0  0  0  0  0  0  0  0
    4.9500   -4.7426  -13.0349 H   0  0  0  0  0  0  0  0  0  0  0  0
    4.8223   -5.5131  -14.6349 H   0  0  0  0  0  0  0  0  0  0  0  0
    0.7376   -6.0723  -11.6609 H   0  0  0  0  0  0  0  0  0  0  0  0
    0.0879   -5.0079   -9.5430 H   0  0  0  0  0  0  0  0  0  0  0  0
   -0.8700   -2.1725  -10.0419 H   0  0  0  0  0  0  0  0  0  0  0  0
   -3.2645   -2.2756   -9.4651 H   0  0  0  0  0  0  0  0  0  0  0  0
   -4.4264   -3.3502   -4.8097 H   0  0  0  0  0  0  0  0  0  0  0  0
   -5.8787   -4.1179   -5.4901 H   0  0  0  0  0  0  0  0  0  0  0  0
   -4.2980   -4.9024   -5.7042 H   0  0  0  0  0  0  0  0  0  0  0  0
   -2.2474   -3.7196   -5.5666 H   0  0  0  0  0  0  0  0  0  0  0  0
    0.1100   -3.6128   -6.1366 H   0  0  0  0  0  0  0  0  0  0  0  0
    5.3244   -2.6865   -8.5065 H   0  0  0  0  0  0  0  0  0  0  0  0
    5.7439   -6.8912  -11.7423 H   0  0  0  0  0  0  0  0  0  0  0  0
    1.5572   -7.7341   -9.0208 H   0  0  0  0  0  0  0  0  0  0  0  0
    1.5902   -9.7064  -11.8415 H   0  0  0  0  0  0  0  0  0  0  0  0
    1.9949  -11.5130  -10.1731 H   0  0  0  0  0  0  0  0  0  0  0  0
    3.8789  -10.6466   -8.5804 H   0  0  0  0  0  0  0  0  0  0  0  0
    6.0667  -10.2331  -10.0277 H   0  0  0  0  0  0  0  0  0  0  0  0
    5.5308  -10.8439  -12.5145 H   0  0  0  0  0  0  0  0  0  0  0  0
    4.0179  -12.7066  -11.3963 H   0  0  0  0  0  0  0  0  0  0  0  0
    3.0432  -11.8653  -12.6277 H   0  0  0  0  0  0  0  0  0  0  0  0
    3.7131   -9.2993  -13.2451 H   0  0  0  0  0  0  0  0  0  0  0  0
  1  2  2  0  0  0  0
  2  3  1  0  0  0  0
  3  4  2  0  0  0  0
  3  5  1  0  0  0  0
  5  6  2  0  0  0  0
  6  7  1  0  0  0  0
  7  8  2  0  0  0  0
  8  9  1  0  0  0  0
  9 10  2  0  0  0  0
 10 11  1  0  0  0  0
 11 12  2  0  0  0  0
 12 13  1  0  0  0  0
 13 14  3  0  0  0  0
 12 15  1  0  0  0  0
 15 16  3  0  0  0  0
  8 17  1  0  0  0  0
 17 18  1  0  0  0  0
 18 19  1  0  0  0  0
 19 20  2  0  0  0  0
 20 21  1  0  0  0  0
 21 22  1  0  0  0  0
 21 23  1  0  0  0  0
  1 24  1  0  0  0  0
 24 25  2  0  0  0  0
 25 26  1  0  0  0  0
 26 27  1  0  0  0  0
 27 28  2  0  0  0  0
 28 29  1  0  0  0  0
 29 30  2  0  0  0  0
 30 31  1  0  0  0  0
 30 32  1  0  0  0  0
 32 33  2  0  0  0  0
 26 34  1  0  0  0  0
 34 35  2  0  0  0  0
 35 36  1  0  0  0  0
 36 37  2  0  0  0  0
 37 38  1  0  0  0  0
 37 39  1  0  0  0  0
 39 40  2  0  0  0  0
 25 41  1  0  0  0  0
 41 42  1  0  0  0  0
 42 43  1  0  0  0  0
 43 44  2  0  0  0  0
 44 45  1  0  0  0  0
 45 46  1  0  0  0  0
 46 47  2  0  0  0  0
 47 48  1  0  0  0  0
 48 49  2  0  0  0  0
 49 50  1  0  0  0  0
 49 51  1  0  0  0  0
 51 52  2  0  0  0  0
 45 53  1  0  0  0  0
 53 54  2  0  0  0  0
 54 55  1  0  0  0  0
 55 56  2  0  0  0  0
 56 57  1  0  0  0  0
 56 58  1  0  0  0  0
 58 59  2  0  0  0  0
 44 60  1  0  0  0  0
 60 61  1  0  0  0  0
 43 62  1  0  0  0  0
 62 63  2  0  0  0  0
 63 64  1  0  0  0  0
 64 65  2  0  0  0  0
 65 66  1  0  0  0  0
 66 67  2  0  0  0  0
 67 68  1  0  0  0  0
 68 69  2  0  0  0  0
 69 70  1  0  0  0  0
 70 71  1  0  0  0  0
 71 72  1  0  0  0  0
 72 73  1  0  0  0  0
 70 74  2  0  0  0  0
 65 75  1  0  0  0  0
 75 76  2  0  0  0  0
 76 77  1  0  0  0  0
 77 78  1  0  0  0  0
 78 79  2  0  0  0  0
 79 80  1  0  0  0  0
 80 81  2  0  0  0  0
 81 82  1  0  0  0  0
 82 83  1  0  0  0  0
 83 84  1  0  0  0  0
 84 85  1  0  0  0  0
 82 86  2  0  0  0  0
 77 87  2  0  0  0  0
 87 88  1  0  0  0  0
 76 89  1  0  0  0  0
 89 90  2  0  0  0  0
 90 91  1  0  0  0  0
 90 92  1  0  0  0  0
 92 93  2  0  0  0  0
 93 94  1  0  0  0  0
 94 95  1  0  0  0  0
 95 96  2  0  0  0  0
 96 97  1  0  0  0  0
 97 98  2  0  0  0  0
 98 99  1  0  0  0  0
 99100  1  0  0  0  0
 98101  1  0  0  0  0
101102  2  0  0  0  0
 94103  1  0  0  0  0
103104  2  0  0  0  0
104105  1  0  0  0  0
105106  2  0  0  0  0
106107  1  0  0  0  0
107108  1  0  0  0  0
106109  1  0  0  0  0
109110  2  0  0  0  0
 93111  1  0  0  0  0
111112  1  0  0  0  0
112113  1  0  0  0  0
113114  2  0  0  0  0
114115  1  0  0  0  0
115116  1  0  0  0  0
116117  2  0  0  0  0
117118  1  0  0  0  0
118119  2  0  0  0  0
119120  1  0  0  0  0
120121  1  0  0  0  0
119122  1  0  0  0  0
122123  2  0  0  0  0
115124  1  0  0  0  0
124125  2  0  0  0  0
125126  1  0  0  0  0
126127  2  0  0  0  0
127128  1  0  0  0  0
128129  1  0  0  0  0
127130  1  0  0  0  0
130131  2  0  0  0  0
114132  1  0  0  0  0
132133  1  0  0  0  0
113134  1  0  0  0  0
134135  2  0  0  0  0
135136  1  0  0  0  0
136137  2  0  0  0  0
136138  1  0  0  0  0
138139  2  0  0  0  0
139140  1  0  0  0  0
140141  2  0  0  0  0
141142  1  0  0  0  0
142143  2  0  0  0  0
143144  1  0  0  0  0
144145  2  0  0  0  0
145146  1  0  0  0  0
146147  3  0  0  0  0
145148  1  0  0  0  0
148149  3  0  0  0  0
141150  1  0  0  0  0
150151  1  0  0  0  0
151152  1  0  0  0  0
152153  2  0  0  0  0
153154  1  0  0  0  0
154155  1  0  0  0  0
154156  1  0  0  0  0
 11  2  1  0  0  0  0
 23 17  1  0  0  0  0
 61 24  1  0  0  0  0
 88 62  1  0  0  0  0
133 92  1  0  0  0  0
144135  1  0  0  0  0
156150  1  0  0  0  0
 10  5  1  0  0  0  0
 22 18  1  0  0  0  0
 33 27  1  0  0  0  0
 40 34  1  0  0  0  0
 60 41  2  0  0  0  0
 87 64  1  0  0  0  0
102 95  1  0  0  0  0
110103  1  0  0  0  0
132111  2  0  0  0  0
143138  1  0  0  0  0
155151  1  0  0  0  0
 23  7  1  0  0  0  0
 52 46  1  0  0  0  0
 59 53  1  0  0  0  0
 74 66  1  0  0  0  0
 91 75  1  0  0  0  0
123116  1  0  0  0  0
131124  1  0  0  0  0
156140  1  0  0  0  0
 86 78  1  0  0  0  0
  1157  1  0  0  0  0
  6158  1  0  0  0  0
  9159  1  0  0  0  0
 17160  1  0  0  0  0
 18161  1  0  0  0  0
 19162  1  0  0  0  0
 20163  1  0  0  0  0
 21164  1  0  0  0  0
 22165  1  0  0  0  0
 22166  1  0  0  0  0
 23167  1  0  0  0  0
 28168  1  0  0  0  0
 29169  1  0  0  0  0
 31170  1  0  0  0  0
 31171  1  0  0  0  0
 31172  1  0  0  0  0
 32173  1  0  0  0  0
 33174  1  0  0  0  0
 35175  1  0  0  0  0
 36176  1  0  0  0  0
 38177  1  0  0  0  0
 38178  1  0  0  0  0
 38179  1  0  0  0  0
 39180  1  0  0  0  0
 40181  1  0  0  0  0
 47182  1  0  0  0  0
 48183  1  0  0  0  0
 50184  1  0  0  0  0
 50185  1  0  0  0  0
 50186  1  0  0  0  0
 51187  1  0  0  0  0
 52188  1  0  0  0  0
 54189  1  0  0  0  0
 55190  1  0  0  0  0
 57191  1  0  0  0  0
 57192  1  0  0  0  0
 57193  1  0  0  0  0
 58194  1  0  0  0  0
 59195  1  0  0  0  0
 63196  1  0  0  0  0
 67197  1  0  0  0  0
 68198  1  0  0  0  0
 69199  1  0  0  0  0
 72200  1  0  0  0  0
 72201  1  0  0  0  0
 73202  1  0  0  0  0
 73203  1  0  0  0  0
 73204  1  0  0  0  0
 74205  1  0  0  0  0
 79206  1  0  0  0  0
 80207  1  0  0  0  0
 81208  1  0  0  0  0
 84209  1  0  0  0  0
 84210  1  0  0  0  0
 85211  1  0  0  0  0
 85212  1  0  0  0  0
 85213  1  0  0  0  0
 86214  1  0  0  0  0
 89215  1  0  0  0  0
 96216  1  0  0  0  0
 97217  1  0  0  0  0
100218  1  0  0  0  0
100219  1  0  0  0  0
100220  1  0  0  0  0
101221  1  0  0  0  0
102222  1  0  0  0  0
104223  1  0  0  0  0
105224  1  0  0  0  0
108225  1  0  0  0  0
108226  1  0  0  0  0
108227  1  0  0  0  0
109228  1  0  0  0  0
110229  1  0  0  0  0
117230  1  0  0  0  0
118231  1  0  0  0  0
121232  1  0  0  0  0
121233  1  0  0  0  0
121234  1  0  0  0  0
122235  1  0  0  0  0
123236  1  0  0  0  0
125237  1  0  0  0  0
126238  1  0  0  0  0
129239  1  0  0  0  0
129240  1  0  0  0  0
129241  1  0  0  0  0
130242  1  0  0  0  0
131243  1  0  0  0  0
134244  1  0  0  0  0
139245  1  0  0  0  0
142246  1  0  0  0  0
150247  1  0  0  0  0
151248  1  0  0  0  0
152249  1  0  0  0  0
153250  1  0  0  0  0
154251  1  0  0  0  0
155252  1  0  0  0  0
155253  1  0  0  0  0
156254  1  0  0  0  0
M  END
