
  xtb     02162209403D
 energy: -350.802209180774 gnorm: 0.000516027188 xtb: 6.4.1 (unknown)
217237  0     0  0            999 V2000
    7.8366   -2.3858   -1.2349 C   0  0  0  0  0  0  0  0  0  0  0  0
    8.3272   -2.2040   -2.5098 C   0  0  0  0  0  0  0  0  0  0  0  0
    7.7092   -1.3140   -3.5045 C   0  0  0  0  0  0  0  0  0  0  0  0
    6.6869   -0.6639   -3.3827 O   0  0  0  0  0  0  0  0  0  0  0  0
    8.6579   -1.2599   -4.6372 C   0  0  0  0  0  0  0  0  0  0  0  0
    8.5196   -0.5290   -5.8130 C   0  0  0  0  0  0  0  0  0  0  0  0
    9.5648   -0.6823   -6.6934 C   0  0  0  0  0  0  0  0  0  0  0  0
   10.6709   -1.4953   -6.4209 C   0  0  0  0  0  0  0  0  0  0  0  0
   10.8215   -2.2190   -5.2609 C   0  0  0  0  0  0  0  0  0  0  0  0
    9.7668   -2.0805   -4.3562 C   0  0  0  0  0  0  0  0  0  0  0  0
    9.5632   -2.6972   -3.0467 C   0  0  0  0  0  0  0  0  0  0  0  0
   10.3268   -3.6998   -2.4988 C   0  0  0  0  0  0  0  0  0  0  0  0
   11.4698   -4.2516   -3.1038 C   0  0  0  0  0  0  0  0  0  0  0  0
   12.3993   -4.7558   -3.5546 N   0  0  0  0  0  0  0  0  0  0  0  0
   10.0082   -4.3620   -1.2971 C   0  0  0  0  0  0  0  0  0  0  0  0
    9.7945   -4.9660   -0.3432 N   0  0  0  0  0  0  0  0  0  0  0  0
   11.3396   -1.1648   -7.7330 C   0  0  0  0  0  0  0  0  0  0  0  0
   12.5015   -0.1509   -7.6798 C   0  0  0  0  0  0  0  0  0  0  0  0
   12.6270    0.3316   -9.1069 C   0  0  0  0  0  0  0  0  0  0  0  0
   11.5775    1.1009   -9.3664 C   0  0  0  0  0  0  0  0  0  0  0  0
   10.7251    1.1510   -8.1190 C   0  0  0  0  0  0  0  0  0  0  0  0
   11.8200    1.0696   -7.0475 C   0  0  0  0  0  0  0  0  0  0  0  0
   10.1035   -0.2592   -8.0384 C   0  0  0  0  0  0  0  0  0  0  0  0
    6.5044   -2.2295   -0.8423 C   0  0  0  0  0  0  0  0  0  0  0  0
    5.3011   -2.3349   -1.5712 C   0  0  0  0  0  0  0  0  0  0  0  0
    5.1596   -2.7851   -2.8512 N   0  0  0  0  0  0  0  0  0  0  0  0
    4.0204   -2.4061   -3.5941 C   0  0  0  0  0  0  0  0  0  0  0  0
    3.6139   -1.0762   -3.6310 C   0  0  0  0  0  0  0  0  0  0  0  0
    2.4937   -0.7206   -4.3551 C   0  0  0  0  0  0  0  0  0  0  0  0
    1.7608   -1.6711   -5.0568 C   0  0  0  0  0  0  0  0  0  0  0  0
    0.5267   -1.2808   -5.8102 C   0  0  0  0  0  0  0  0  0  0  0  0
    2.1890   -2.9931   -5.0276 C   0  0  0  0  0  0  0  0  0  0  0  0
    3.3066   -3.3639   -4.3060 C   0  0  0  0  0  0  0  0  0  0  0  0
    6.0873   -3.6375   -3.4661 C   0  0  0  0  0  0  0  0  0  0  0  0
    6.4173   -3.4501   -4.8066 C   0  0  0  0  0  0  0  0  0  0  0  0
    7.3599   -4.2606   -5.4117 C   0  0  0  0  0  0  0  0  0  0  0  0
    7.9892   -5.2781   -4.7079 C   0  0  0  0  0  0  0  0  0  0  0  0
    9.0441   -6.1285   -5.3427 C   0  0  0  0  0  0  0  0  0  0  0  0
    7.6198   -5.4874   -3.3808 C   0  0  0  0  0  0  0  0  0  0  0  0
    6.6855   -4.6832   -2.7639 C   0  0  0  0  0  0  0  0  0  0  0  0
    4.1946   -2.0236   -0.7438 C   0  0  0  0  0  0  0  0  0  0  0  0
    2.4792   -2.0147   -0.9914 S   0  0  0  0  0  0  0  0  0  0  0  0
    2.2246   -1.5851    0.6812 C   0  0  0  0  0  0  0  0  0  0  0  0
    3.4006   -1.5112    1.4076 C   0  0  0  0  0  0  0  0  0  0  0  0
    3.4247   -1.3631    2.7830 N   0  0  0  0  0  0  0  0  0  0  0  0
    4.4010   -0.6035    3.4198 C   0  0  0  0  0  0  0  0  0  0  0  0
    4.7354   -0.8515    4.7508 C   0  0  0  0  0  0  0  0  0  0  0  0
    5.7111   -0.1015    5.3741 C   0  0  0  0  0  0  0  0  0  0  0  0
    6.3918    0.9052    4.6978 C   0  0  0  0  0  0  0  0  0  0  0  0
    7.4738    1.6878    5.3775 C   0  0  0  0  0  0  0  0  0  0  0  0
    6.0550    1.1453    3.3725 C   0  0  0  0  0  0  0  0  0  0  0  0
    5.0707    0.4115    2.7389 C   0  0  0  0  0  0  0  0  0  0  0  0
    2.4025   -2.0213    3.4951 C   0  0  0  0  0  0  0  0  0  0  0  0
    1.6472   -1.3739    4.4667 C   0  0  0  0  0  0  0  0  0  0  0  0
    0.5965   -2.0327    5.0766 C   0  0  0  0  0  0  0  0  0  0  0  0
    0.2803   -3.3449    4.7430 C   0  0  0  0  0  0  0  0  0  0  0  0
   -0.8841   -4.0439    5.3712 C   0  0  0  0  0  0  0  0  0  0  0  0
    1.0598   -3.9932    3.7932 C   0  0  0  0  0  0  0  0  0  0  0  0
    2.1089   -3.3449    3.1773 C   0  0  0  0  0  0  0  0  0  0  0  0
    4.5204   -1.7570    0.5800 C   0  0  0  0  0  0  0  0  0  0  0  0
    6.2133   -1.8860    0.8706 S   0  0  0  0  0  0  0  0  0  0  0  0
    0.9045   -1.2712    1.1879 C   0  0  0  0  0  0  0  0  0  0  0  0
   -0.2026   -2.0736    1.0202 C   0  0  0  0  0  0  0  0  0  0  0  0
   -0.0859   -3.2700    0.4181 F   0  0  0  0  0  0  0  0  0  0  0  0
   -1.4721   -1.6785    1.4518 C   0  0  0  0  0  0  0  0  0  0  0  0
   -2.4796   -2.5447    1.2223 F   0  0  0  0  0  0  0  0  0  0  0  0
   -1.7257   -0.4698    2.0883 C   0  0  0  0  0  0  0  0  0  0  0  0
   -0.5781    0.3334    2.3738 C   0  0  0  0  0  0  0  0  0  0  0  0
   -0.6805    1.4614    3.0944 N   0  0  0  0  0  0  0  0  0  0  0  0
    0.3593    2.2456    3.2401 C   0  0  0  0  0  0  0  0  0  0  0  0
    0.2183    3.4053    4.1774 C   0  0  0  0  0  0  0  0  0  0  0  0
    1.0984    3.2157    5.4153 C   0  0  0  0  0  0  0  0  0  0  0  0
    1.5711    1.9717    2.5432 C   0  0  0  0  0  0  0  0  0  0  0  0
    1.7161    0.8292    1.9226 N   0  0  0  0  0  0  0  0  0  0  0  0
    0.6964   -0.0392    1.8674 C   0  0  0  0  0  0  0  0  0  0  0  0
    2.7209    2.9288    2.4384 C   0  0  0  0  0  0  0  0  0  0  0  0
    3.1316    3.1205    0.9785 C   0  0  0  0  0  0  0  0  0  0  0  0
   -3.0840    0.0050    2.2338 C   0  0  0  0  0  0  0  0  0  0  0  0
   -3.6658    0.9026    3.1161 C   0  0  0  0  0  0  0  0  0  0  0  0
   -3.1363    1.3910    4.3023 N   0  0  0  0  0  0  0  0  0  0  0  0
   -2.7277    0.5212    5.3143 C   0  0  0  0  0  0  0  0  0  0  0  0
   -3.2588   -0.7624    5.4171 C   0  0  0  0  0  0  0  0  0  0  0  0
   -2.9303   -1.5707    6.4883 C   0  0  0  0  0  0  0  0  0  0  0  0
   -2.0520   -1.1403    7.4736 C   0  0  0  0  0  0  0  0  0  0  0  0
   -1.7017   -2.0047    8.6472 C   0  0  0  0  0  0  0  0  0  0  0  0
   -1.4958    0.1290    7.3453 C   0  0  0  0  0  0  0  0  0  0  0  0
   -1.8272    0.9503    6.2882 C   0  0  0  0  0  0  0  0  0  0  0  0
   -3.3557    2.7526    4.5565 C   0  0  0  0  0  0  0  0  0  0  0  0
   -3.7569    3.2192    5.8053 C   0  0  0  0  0  0  0  0  0  0  0  0
   -3.9896    4.5668    6.0005 C   0  0  0  0  0  0  0  0  0  0  0  0
   -3.8454    5.4822    4.9657 C   0  0  0  0  0  0  0  0  0  0  0  0
   -4.1351    6.9372    5.1692 C   0  0  0  0  0  0  0  0  0  0  0  0
   -3.4489    5.0088    3.7197 C   0  0  0  0  0  0  0  0  0  0  0  0
   -3.2029    3.6673    3.5138 C   0  0  0  0  0  0  0  0  0  0  0  0
   -4.9779    1.2485    2.7021 C   0  0  0  0  0  0  0  0  0  0  0  0
   -6.1610    2.3402    3.3182 S   0  0  0  0  0  0  0  0  0  0  0  0
   -7.2979    1.8645    2.0458 C   0  0  0  0  0  0  0  0  0  0  0  0
   -6.7216    0.9527    1.1368 C   0  0  0  0  0  0  0  0  0  0  0  0
   -7.2403    0.5319   -0.0525 N   0  0  0  0  0  0  0  0  0  0  0  0
   -8.1764    1.2680   -0.7887 C   0  0  0  0  0  0  0  0  0  0  0  0
   -9.2024    0.6069   -1.4607 C   0  0  0  0  0  0  0  0  0  0  0  0
  -10.1581    1.3260   -2.1537 C   0  0  0  0  0  0  0  0  0  0  0  0
  -10.1166    2.7126   -2.2037 C   0  0  0  0  0  0  0  0  0  0  0  0
  -11.1759    3.5007   -2.9082 C   0  0  0  0  0  0  0  0  0  0  0  0
   -9.0589    3.3629   -1.5718 C   0  0  0  0  0  0  0  0  0  0  0  0
   -8.1014    2.6582   -0.8738 C   0  0  0  0  0  0  0  0  0  0  0  0
   -6.7936   -0.6996   -0.5843 C   0  0  0  0  0  0  0  0  0  0  0  0
   -6.3883   -0.7799   -1.9111 C   0  0  0  0  0  0  0  0  0  0  0  0
   -5.9231   -1.9795   -2.4154 C   0  0  0  0  0  0  0  0  0  0  0  0
   -5.8531   -3.1140   -1.6163 C   0  0  0  0  0  0  0  0  0  0  0  0
   -5.3066   -4.4029   -2.1457 C   0  0  0  0  0  0  0  0  0  0  0  0
   -6.2877   -3.0258   -0.2979 C   0  0  0  0  0  0  0  0  0  0  0  0
   -6.7559   -1.8354    0.2189 C   0  0  0  0  0  0  0  0  0  0  0  0
   -5.4158    0.5998    1.5594 C   0  0  0  0  0  0  0  0  0  0  0  0
   -4.2014   -0.4623    0.9498 S   0  0  0  0  0  0  0  0  0  0  0  0
   -8.5586    2.4661    2.0752 C   0  0  0  0  0  0  0  0  0  0  0  0
   -9.7065    1.9678    1.4971 C   0  0  0  0  0  0  0  0  0  0  0  0
   -9.9541    0.5307    1.2661 C   0  0  0  0  0  0  0  0  0  0  0  0
   -9.2000   -0.3927    1.5104 O   0  0  0  0  0  0  0  0  0  0  0  0
  -11.3520    0.4427    0.8073 C   0  0  0  0  0  0  0  0  0  0  0  0
  -12.0966   -0.6692    0.4587 C   0  0  0  0  0  0  0  0  0  0  0  0
  -13.3986   -0.4875    0.0352 C   0  0  0  0  0  0  0  0  0  0  0  0
  -13.9646    0.7920   -0.0266 C   0  0  0  0  0  0  0  0  0  0  0  0
  -15.2460    0.8429   -0.4564 O   0  0  0  0  0  0  0  0  0  0  0  0
  -15.8874    2.0962   -0.5489 C   0  0  0  0  0  0  0  0  0  0  0  0
  -13.2168    1.9140    0.3403 C   0  0  0  0  0  0  0  0  0  0  0  0
  -11.9094    1.7288    0.7495 C   0  0  0  0  0  0  0  0  0  0  0  0
  -10.8915    2.6975    1.1547 C   0  0  0  0  0  0  0  0  0  0  0  0
  -10.9941    4.0649    1.0513 C   0  0  0  0  0  0  0  0  0  0  0  0
   -9.9383    4.9566    1.3217 C   0  0  0  0  0  0  0  0  0  0  0  0
   -9.1152    5.7393    1.4959 N   0  0  0  0  0  0  0  0  0  0  0  0
  -12.1371    4.7334    0.5803 C   0  0  0  0  0  0  0  0  0  0  0  0
  -13.0396    5.3255    0.1838 N   0  0  0  0  0  0  0  0  0  0  0  0
    8.5331   -2.6312   -0.4419 H   0  0  0  0  0  0  0  0  0  0  0  0
    7.6502    0.0865   -5.9856 H   0  0  0  0  0  0  0  0  0  0  0  0
   11.6814   -2.8360   -5.0594 H   0  0  0  0  0  0  0  0  0  0  0  0
   11.5418   -2.0089   -8.3899 H   0  0  0  0  0  0  0  0  0  0  0  0
   13.4072   -0.5206   -7.2067 H   0  0  0  0  0  0  0  0  0  0  0  0
   13.4107    0.0284   -9.7762 H   0  0  0  0  0  0  0  0  0  0  0  0
   11.3095    1.5686  -10.2957 H   0  0  0  0  0  0  0  0  0  0  0  0
   10.0124    1.9683   -8.0458 H   0  0  0  0  0  0  0  0  0  0  0  0
   12.4641    1.9475   -7.0492 H   0  0  0  0  0  0  0  0  0  0  0  0
   11.4434    0.8955   -6.0414 H   0  0  0  0  0  0  0  0  0  0  0  0
    9.4820   -0.5003   -8.8992 H   0  0  0  0  0  0  0  0  0  0  0  0
    4.2008   -0.3333   -3.1142 H   0  0  0  0  0  0  0  0  0  0  0  0
    2.1859    0.3145   -4.3816 H   0  0  0  0  0  0  0  0  0  0  0  0
   -0.3350   -1.3026   -5.1422 H   0  0  0  0  0  0  0  0  0  0  0  0
    0.6169   -0.2724   -6.2078 H   0  0  0  0  0  0  0  0  0  0  0  0
    0.3357   -1.9694   -6.6297 H   0  0  0  0  0  0  0  0  0  0  0  0
    1.6365   -3.7449   -5.5721 H   0  0  0  0  0  0  0  0  0  0  0  0
    3.6287   -4.3948   -4.2858 H   0  0  0  0  0  0  0  0  0  0  0  0
    5.9398   -2.6587   -5.3646 H   0  0  0  0  0  0  0  0  0  0  0  0
    7.6193   -4.0860   -6.4459 H   0  0  0  0  0  0  0  0  0  0  0  0
   10.0233   -5.8873   -4.9278 H   0  0  0  0  0  0  0  0  0  0  0  0
    8.8558   -7.1826   -5.1480 H   0  0  0  0  0  0  0  0  0  0  0  0
    9.0801   -5.9677   -6.4171 H   0  0  0  0  0  0  0  0  0  0  0  0
    8.0786   -6.2894   -2.8213 H   0  0  0  0  0  0  0  0  0  0  0  0
    6.4184   -4.8618   -1.7332 H   0  0  0  0  0  0  0  0  0  0  0  0
    4.2318   -1.6404    5.2894 H   0  0  0  0  0  0  0  0  0  0  0  0
    5.9583   -0.3087    6.4055 H   0  0  0  0  0  0  0  0  0  0  0  0
    7.6371    2.6407    4.8794 H   0  0  0  0  0  0  0  0  0  0  0  0
    7.2229    1.8723    6.4201 H   0  0  0  0  0  0  0  0  0  0  0  0
    8.4097    1.1286    5.3528 H   0  0  0  0  0  0  0  0  0  0  0  0
    6.5658    1.9246    2.8247 H   0  0  0  0  0  0  0  0  0  0  0  0
    4.8088    0.6308    1.7163 H   0  0  0  0  0  0  0  0  0  0  0  0
    1.8788   -0.3517    4.7304 H   0  0  0  0  0  0  0  0  0  0  0  0
    0.0014   -1.5122    5.8117 H   0  0  0  0  0  0  0  0  0  0  0  0
   -1.8043   -3.7499    4.8661 H   0  0  0  0  0  0  0  0  0  0  0  0
   -0.9760   -3.7760    6.4200 H   0  0  0  0  0  0  0  0  0  0  0  0
   -0.7791   -5.1229    5.2860 H   0  0  0  0  0  0  0  0  0  0  0  0
    0.8416   -5.0179    3.5302 H   0  0  0  0  0  0  0  0  0  0  0  0
    2.7037   -3.8580    2.4359 H   0  0  0  0  0  0  0  0  0  0  0  0
    0.4917    4.3329    3.6695 H   0  0  0  0  0  0  0  0  0  0  0  0
   -0.8283    3.4789    4.4711 H   0  0  0  0  0  0  0  0  0  0  0  0
    0.9327    4.0310    6.1154 H   0  0  0  0  0  0  0  0  0  0  0  0
    2.1530    3.1945    5.1515 H   0  0  0  0  0  0  0  0  0  0  0  0
    0.8555    2.2783    5.9105 H   0  0  0  0  0  0  0  0  0  0  0  0
    2.4660    3.8915    2.8786 H   0  0  0  0  0  0  0  0  0  0  0  0
    3.5650    2.5049    2.9899 H   0  0  0  0  0  0  0  0  0  0  0  0
    3.3258    2.1561    0.5181 H   0  0  0  0  0  0  0  0  0  0  0  0
    2.3364    3.6118    0.4216 H   0  0  0  0  0  0  0  0  0  0  0  0
    4.0283    3.7316    0.9164 H   0  0  0  0  0  0  0  0  0  0  0  0
   -3.9595   -1.1154    4.6748 H   0  0  0  0  0  0  0  0  0  0  0  0
   -3.3859   -2.5471    6.5694 H   0  0  0  0  0  0  0  0  0  0  0  0
   -1.9077   -1.4811    9.5799 H   0  0  0  0  0  0  0  0  0  0  0  0
   -0.6396   -2.2525    8.6363 H   0  0  0  0  0  0  0  0  0  0  0  0
   -2.2745   -2.9289    8.6361 H   0  0  0  0  0  0  0  0  0  0  0  0
   -0.7989    0.4800    8.0939 H   0  0  0  0  0  0  0  0  0  0  0  0
   -1.4072    1.9403    6.2189 H   0  0  0  0  0  0  0  0  0  0  0  0
   -3.9010    2.5229    6.6178 H   0  0  0  0  0  0  0  0  0  0  0  0
   -4.3057    4.9104    6.9749 H   0  0  0  0  0  0  0  0  0  0  0  0
   -3.3927    7.5539    4.6663 H   0  0  0  0  0  0  0  0  0  0  0  0
   -5.1111    7.1827    4.7499 H   0  0  0  0  0  0  0  0  0  0  0  0
   -4.1460    7.1893    6.2267 H   0  0  0  0  0  0  0  0  0  0  0  0
   -3.3302    5.7033    2.9006 H   0  0  0  0  0  0  0  0  0  0  0  0
   -2.8809    3.3108    2.5464 H   0  0  0  0  0  0  0  0  0  0  0  0
   -9.2546   -0.4705   -1.4191 H   0  0  0  0  0  0  0  0  0  0  0  0
  -10.9596    0.7963   -2.6477 H   0  0  0  0  0  0  0  0  0  0  0  0
  -11.7161    4.1278   -2.1986 H   0  0  0  0  0  0  0  0  0  0  0  0
  -11.8877    2.8426   -3.3998 H   0  0  0  0  0  0  0  0  0  0  0  0
  -10.7312    4.1579   -3.6540 H   0  0  0  0  0  0  0  0  0  0  0  0
   -8.9919    4.4402   -1.6199 H   0  0  0  0  0  0  0  0  0  0  0  0
   -7.2940    3.1851   -0.3876 H   0  0  0  0  0  0  0  0  0  0  0  0
   -6.4311    0.0994   -2.5376 H   0  0  0  0  0  0  0  0  0  0  0  0
   -5.6002   -2.0307   -3.4452 H   0  0  0  0  0  0  0  0  0  0  0  0
   -5.2457   -4.3876   -3.2309 H   0  0  0  0  0  0  0  0  0  0  0  0
   -5.9283   -5.2411   -1.8376 H   0  0  0  0  0  0  0  0  0  0  0  0
   -4.3054   -4.5669   -1.7470 H   0  0  0  0  0  0  0  0  0  0  0  0
   -6.2566   -3.9031    0.3309 H   0  0  0  0  0  0  0  0  0  0  0  0
   -7.1184   -1.7720    1.2329 H   0  0  0  0  0  0  0  0  0  0  0  0
   -8.6224    3.3896    2.6387 H   0  0  0  0  0  0  0  0  0  0  0  0
  -11.6585   -1.6539    0.5099 H   0  0  0  0  0  0  0  0  0  0  0  0
  -14.0128   -1.3242   -0.2578 H   0  0  0  0  0  0  0  0  0  0  0  0
  -16.8863    1.8853   -0.9267 H   0  0  0  0  0  0  0  0  0  0  0  0
  -15.3690    2.7633   -1.2437 H   0  0  0  0  0  0  0  0  0  0  0  0
  -15.9647    2.5805    0.4289 H   0  0  0  0  0  0  0  0  0  0  0  0
  -13.6494    2.8989    0.3113 H   0  0  0  0  0  0  0  0  0  0  0  0
  1  2  2  0  0  0  0
  2  3  1  0  0  0  0
  3  4  2  0  0  0  0
  3  5  1  0  0  0  0
  5  6  2  0  0  0  0
  6  7  1  0  0  0  0
  7  8  2  0  0  0  0
  8  9  1  0  0  0  0
  9 10  2  0  0  0  0
 10 11  1  0  0  0  0
 11 12  2  0  0  0  0
 12 13  1  0  0  0  0
 13 14  3  0  0  0  0
 12 15  1  0  0  0  0
 15 16  3  0  0  0  0
  8 17  1  0  0  0  0
 17 18  1  0  0  0  0
 18 19  1  0  0  0  0
 19 20  2  0  0  0  0
 20 21  1  0  0  0  0
 21 22  1  0  0  0  0
 21 23  1  0  0  0  0
  1 24  1  0  0  0  0
 24 25  2  0  0  0  0
 25 26  1  0  0  0  0
 26 27  1  0  0  0  0
 27 28  2  0  0  0  0
 28 29  1  0  0  0  0
 29 30  2  0  0  0  0
 30 31  1  0  0  0  0
 30 32  1  0  0  0  0
 32 33  2  0  0  0  0
 26 34  1  0  0  0  0
 34 35  2  0  0  0  0
 35 36  1  0  0  0  0
 36 37  2  0  0  0  0
 37 38  1  0  0  0  0
 37 39  1  0  0  0  0
 39 40  2  0  0  0  0
 25 41  1  0  0  0  0
 41 42  1  0  0  0  0
 42 43  1  0  0  0  0
 43 44  2  0  0  0  0
 44 45  1  0  0  0  0
 45 46  1  0  0  0  0
 46 47  2  0  0  0  0
 47 48  1  0  0  0  0
 48 49  2  0  0  0  0
 49 50  1  0  0  0  0
 49 51  1  0  0  0  0
 51 52  2  0  0  0  0
 45 53  1  0  0  0  0
 53 54  2  0  0  0  0
 54 55  1  0  0  0  0
 55 56  2  0  0  0  0
 56 57  1  0  0  0  0
 56 58  1  0  0  0  0
 58 59  2  0  0  0  0
 44 60  1  0  0  0  0
 60 61  1  0  0  0  0
 43 62  1  0  0  0  0
 62 63  2  0  0  0  0
 63 64  1  0  0  0  0
 63 65  1  0  0  0  0
 65 66  1  0  0  0  0
 65 67  2  0  0  0  0
 67 68  1  0  0  0  0
 68 69  2  0  0  0  0
 69 70  1  0  0  0  0
 70 71  1  0  0  0  0
 71 72  1  0  0  0  0
 70 73  2  0  0  0  0
 73 74  1  0  0  0  0
 74 75  2  0  0  0  0
 73 76  1  0  0  0  0
 76 77  1  0  0  0  0
 67 78  1  0  0  0  0
 78 79  2  0  0  0  0
 79 80  1  0  0  0  0
 80 81  1  0  0  0  0
 81 82  2  0  0  0  0
 82 83  1  0  0  0  0
 83 84  2  0  0  0  0
 84 85  1  0  0  0  0
 84 86  1  0  0  0  0
 86 87  2  0  0  0  0
 80 88  1  0  0  0  0
 88 89  2  0  0  0  0
 89 90  1  0  0  0  0
 90 91  2  0  0  0  0
 91 92  1  0  0  0  0
 91 93  1  0  0  0  0
 93 94  2  0  0  0  0
 79 95  1  0  0  0  0
 95 96  1  0  0  0  0
 96 97  1  0  0  0  0
 97 98  2  0  0  0  0
 98 99  1  0  0  0  0
 99100  1  0  0  0  0
100101  2  0  0  0  0
101102  1  0  0  0  0
102103  2  0  0  0  0
103104  1  0  0  0  0
103105  1  0  0  0  0
105106  2  0  0  0  0
 99107  1  0  0  0  0
107108  2  0  0  0  0
108109  1  0  0  0  0
109110  2  0  0  0  0
110111  1  0  0  0  0
110112  1  0  0  0  0
112113  2  0  0  0  0
 98114  1  0  0  0  0
114115  1  0  0  0  0
 97116  1  0  0  0  0
116117  2  0  0  0  0
117118  1  0  0  0  0
118119  2  0  0  0  0
118120  1  0  0  0  0
120121  2  0  0  0  0
121122  1  0  0  0  0
122123  2  0  0  0  0
123124  1  0  0  0  0
124125  1  0  0  0  0
123126  1  0  0  0  0
126127  2  0  0  0  0
127128  1  0  0  0  0
128129  2  0  0  0  0
129130  1  0  0  0  0
130131  3  0  0  0  0
129132  1  0  0  0  0
132133  3  0  0  0  0
 11  2  1  0  0  0  0
 23 17  1  0  0  0  0
 61 24  1  0  0  0  0
 75 62  1  0  0  0  0
115 78  1  0  0  0  0
128117  1  0  0  0  0
 10  5  1  0  0  0  0
 22 18  1  0  0  0  0
 33 27  1  0  0  0  0
 40 34  1  0  0  0  0
 60 41  2  0  0  0  0
 75 68  1  0  0  0  0
 87 81  1  0  0  0  0
 94 88  1  0  0  0  0
114 95  2  0  0  0  0
127120  1  0  0  0  0
 23  7  1  0  0  0  0
 52 46  1  0  0  0  0
 59 53  1  0  0  0  0
106100  1  0  0  0  0
113107  1  0  0  0  0
  1134  1  0  0  0  0
  6135  1  0  0  0  0
  9136  1  0  0  0  0
 17137  1  0  0  0  0
 18138  1  0  0  0  0
 19139  1  0  0  0  0
 20140  1  0  0  0  0
 21141  1  0  0  0  0
 22142  1  0  0  0  0
 22143  1  0  0  0  0
 23144  1  0  0  0  0
 28145  1  0  0  0  0
 29146  1  0  0  0  0
 31147  1  0  0  0  0
 31148  1  0  0  0  0
 31149  1  0  0  0  0
 32150  1  0  0  0  0
 33151  1  0  0  0  0
 35152  1  0  0  0  0
 36153  1  0  0  0  0
 38154  1  0  0  0  0
 38155  1  0  0  0  0
 38156  1  0  0  0  0
 39157  1  0  0  0  0
 40158  1  0  0  0  0
 47159  1  0  0  0  0
 48160  1  0  0  0  0
 50161  1  0  0  0  0
 50162  1  0  0  0  0
 50163  1  0  0  0  0
 51164  1  0  0  0  0
 52165  1  0  0  0  0
 54166  1  0  0  0  0
 55167  1  0  0  0  0
 57168  1  0  0  0  0
 57169  1  0  0  0  0
 57170  1  0  0  0  0
 58171  1  0  0  0  0
 59172  1  0  0  0  0
 71173  1  0  0  0  0
 71174  1  0  0  0  0
 72175  1  0  0  0  0
 72176  1  0  0  0  0
 72177  1  0  0  0  0
 76178  1  0  0  0  0
 76179  1  0  0  0  0
 77180  1  0  0  0  0
 77181  1  0  0  0  0
 77182  1  0  0  0  0
 82183  1  0  0  0  0
 83184  1  0  0  0  0
 85185  1  0  0  0  0
 85186  1  0  0  0  0
 85187  1  0  0  0  0
 86188  1  0  0  0  0
 87189  1  0  0  0  0
 89190  1  0  0  0  0
 90191  1  0  0  0  0
 92192  1  0  0  0  0
 92193  1  0  0  0  0
 92194  1  0  0  0  0
 93195  1  0  0  0  0
 94196  1  0  0  0  0
101197  1  0  0  0  0
102198  1  0  0  0  0
104199  1  0  0  0  0
104200  1  0  0  0  0
104201  1  0  0  0  0
105202  1  0  0  0  0
106203  1  0  0  0  0
108204  1  0  0  0  0
109205  1  0  0  0  0
111206  1  0  0  0  0
111207  1  0  0  0  0
111208  1  0  0  0  0
112209  1  0  0  0  0
113210  1  0  0  0  0
116211  1  0  0  0  0
121212  1  0  0  0  0
122213  1  0  0  0  0
125214  1  0  0  0  0
125215  1  0  0  0  0
125216  1  0  0  0  0
126217  1  0  0  0  0
M  END
