
  xtb     02052200373D
 energy: -331.023068799715 gnorm: 0.002584001140 xtb: 6.4.1 (unknown)
202223  0     0  0            999 V2000
   -8.9290    2.8905   -0.7019 C   0  0  0  0  0  0  0  0  0  0  0  0
   -9.7547    3.5343   -1.5862 C   0  0  0  0  0  0  0  0  0  0  0  0
   -9.4652    3.9034   -2.9905 C   0  0  0  0  0  0  0  0  0  0  0  0
   -8.5856    3.4923   -3.7212 O   0  0  0  0  0  0  0  0  0  0  0  0
  -10.4429    4.9549   -3.3318 C   0  0  0  0  0  0  0  0  0  0  0  0
  -10.5016    5.6813   -4.5178 C   0  0  0  0  0  0  0  0  0  0  0  0
  -11.4980    6.6273   -4.5455 C   0  0  0  0  0  0  0  0  0  0  0  0
  -12.3703    6.8423   -3.4701 C   0  0  0  0  0  0  0  0  0  0  0  0
  -12.3322    6.1230   -2.2989 C   0  0  0  0  0  0  0  0  0  0  0  0
  -11.3285    5.1522   -2.2539 C   0  0  0  0  0  0  0  0  0  0  0  0
  -10.9768    4.2085   -1.1988 C   0  0  0  0  0  0  0  0  0  0  0  0
  -11.7298    3.9167   -0.0892 C   0  0  0  0  0  0  0  0  0  0  0  0
  -12.9309    4.5694    0.2510 C   0  0  0  0  0  0  0  0  0  0  0  0
  -13.9096    5.0673    0.5856 N   0  0  0  0  0  0  0  0  0  0  0  0
  -11.4346    2.8716    0.8087 C   0  0  0  0  0  0  0  0  0  0  0  0
  -11.2735    2.0111    1.5530 N   0  0  0  0  0  0  0  0  0  0  0  0
  -13.0905    7.9641   -4.1754 C   0  0  0  0  0  0  0  0  0  0  0  0
  -12.7488    9.4168   -3.7589 C   0  0  0  0  0  0  0  0  0  0  0  0
  -11.3368    9.3936   -3.2285 C   0  0  0  0  0  0  0  0  0  0  0  0
  -10.5217    9.1852   -4.2539 C   0  0  0  0  0  0  0  0  0  0  0  0
  -11.3687    9.0618   -5.4963 C   0  0  0  0  0  0  0  0  0  0  0  0
  -12.5069   10.0336   -5.1460 C   0  0  0  0  0  0  0  0  0  0  0  0
  -12.1271    7.7166   -5.3786 C   0  0  0  0  0  0  0  0  0  0  0  0
   -7.7665    2.1424   -0.9538 C   0  0  0  0  0  0  0  0  0  0  0  0
   -7.2990    1.5508   -2.1144 C   0  0  0  0  0  0  0  0  0  0  0  0
   -6.0892    0.8798   -1.9490 C   0  0  0  0  0  0  0  0  0  0  0  0
   -5.3437    0.2587   -2.8878 O   0  0  0  0  0  0  0  0  0  0  0  0
   -5.7704    0.3274   -4.2403 C   0  0  0  0  0  0  0  0  0  0  0  0
   -5.5472    1.6974   -4.8698 C   0  0  0  0  0  0  0  0  0  0  0  0
   -5.6187    0.9193   -0.6307 C   0  0  0  0  0  0  0  0  0  0  0  0
   -6.6866    1.8176    0.3841 S   0  0  0  0  0  0  0  0  0  0  0  0
   -4.4326    0.2919   -0.1604 C   0  0  0  0  0  0  0  0  0  0  0  0
   -3.9518   -0.9544   -0.5497 C   0  0  0  0  0  0  0  0  0  0  0  0
   -4.6839   -1.9006   -1.2327 N   0  0  0  0  0  0  0  0  0  0  0  0
   -4.0219   -2.8068   -2.0719 C   0  0  0  0  0  0  0  0  0  0  0  0
   -2.9584   -2.3855   -2.8707 C   0  0  0  0  0  0  0  0  0  0  0  0
   -2.2864   -3.2899   -3.6616 C   0  0  0  0  0  0  0  0  0  0  0  0
   -2.6661   -4.6308   -3.6832 C   0  0  0  0  0  0  0  0  0  0  0  0
   -1.7152   -5.6965   -4.7199 S   0  0  0  0  0  0  0  0  0  0  0  0
   -2.4691   -7.3297   -4.4807 C   0  0  0  0  0  0  0  0  0  0  0  0
   -3.7431   -5.0473   -2.9113 C   0  0  0  0  0  0  0  0  0  0  0  0
   -4.4113   -4.1422   -2.1106 C   0  0  0  0  0  0  0  0  0  0  0  0
   -6.0837   -1.9328   -1.1274 C   0  0  0  0  0  0  0  0  0  0  0  0
   -6.7183   -1.6455    0.0784 C   0  0  0  0  0  0  0  0  0  0  0  0
   -8.0943   -1.5488    0.1523 C   0  0  0  0  0  0  0  0  0  0  0  0
   -8.8672   -1.7575   -0.9820 C   0  0  0  0  0  0  0  0  0  0  0  0
  -10.6210   -1.5824   -1.0362 S   0  0  0  0  0  0  0  0  0  0  0  0
  -11.0872   -1.1793    0.6695 C   0  0  0  0  0  0  0  0  0  0  0  0
   -8.2403   -2.1205   -2.1733 C   0  0  0  0  0  0  0  0  0  0  0  0
   -6.8685   -2.2095   -2.2468 C   0  0  0  0  0  0  0  0  0  0  0  0
   -2.6450   -1.1606   -0.0433 C   0  0  0  0  0  0  0  0  0  0  0  0
   -1.4623   -2.4065   -0.2289 S   0  0  0  0  0  0  0  0  0  0  0  0
   -0.3207   -1.4949    0.7486 C   0  0  0  0  0  0  0  0  0  0  0  0
   -0.8790   -0.3380    1.2851 C   0  0  0  0  0  0  0  0  0  0  0  0
   -0.3009    0.5123    2.2115 N   0  0  0  0  0  0  0  0  0  0  0  0
   -0.5928    1.8871    2.1262 C   0  0  0  0  0  0  0  0  0  0  0  0
   -0.8969    2.6112    3.2740 C   0  0  0  0  0  0  0  0  0  0  0  0
   -1.1709    3.9627    3.2007 C   0  0  0  0  0  0  0  0  0  0  0  0
   -1.1487    4.6099    1.9715 C   0  0  0  0  0  0  0  0  0  0  0  0
   -1.4488    6.3353    1.7544 S   0  0  0  0  0  0  0  0  0  0  0  0
   -1.9045    6.9148    3.4139 C   0  0  0  0  0  0  0  0  0  0  0  0
   -0.8487    3.8850    0.8188 C   0  0  0  0  0  0  0  0  0  0  0  0
   -0.5703    2.5387    0.8937 C   0  0  0  0  0  0  0  0  0  0  0  0
    0.6309    0.0626    3.1508 C   0  0  0  0  0  0  0  0  0  0  0  0
    1.6744    0.8961    3.5598 C   0  0  0  0  0  0  0  0  0  0  0  0
    2.6952    0.4034    4.3417 C   0  0  0  0  0  0  0  0  0  0  0  0
    2.7050   -0.9341    4.7190 C   0  0  0  0  0  0  0  0  0  0  0  0
    4.1286   -1.5546    5.5673 S   0  0  0  0  0  0  0  0  0  0  0  0
    4.2615   -3.2271    4.8585 C   0  0  0  0  0  0  0  0  0  0  0  0
    1.6185   -1.7400    4.4084 C   0  0  0  0  0  0  0  0  0  0  0  0
    0.5872   -1.2426    3.6391 C   0  0  0  0  0  0  0  0  0  0  0  0
   -2.1889   -0.1434    0.7822 C   0  0  0  0  0  0  0  0  0  0  0  0
   -3.3619    1.1156    0.9627 S   0  0  0  0  0  0  0  0  0  0  0  0
    1.0288   -1.9404    0.8323 C   0  0  0  0  0  0  0  0  0  0  0  0
    2.1351   -1.1712    1.0529 C   0  0  0  0  0  0  0  0  0  0  0  0
    3.3475   -1.8957    1.0858 C   0  0  0  0  0  0  0  0  0  0  0  0
    4.6364   -1.4125    1.3655 C   0  0  0  0  0  0  0  0  0  0  0  0
    4.8608    0.0043    1.6781 C   0  0  0  0  0  0  0  0  0  0  0  0
    5.6222    0.3743    2.7852 C   0  0  0  0  0  0  0  0  0  0  0  0
    5.7807    1.7110    3.0964 C   0  0  0  0  0  0  0  0  0  0  0  0
    5.1684    2.6976    2.3426 C   0  0  0  0  0  0  0  0  0  0  0  0
    4.4003    2.3363    1.2451 C   0  0  0  0  0  0  0  0  0  0  0  0
    3.5336    3.4778    0.2049 S   0  0  0  0  0  0  0  0  0  0  0  0
    3.4352    5.0173    1.1810 C   0  0  0  0  0  0  0  0  0  0  0  0
    2.5564    4.8709    2.4084 C   0  0  0  0  0  0  0  0  0  0  0  0
    4.2782    0.9963    0.9002 C   0  0  0  0  0  0  0  0  0  0  0  0
    5.6676   -2.3427    1.3601 C   0  0  0  0  0  0  0  0  0  0  0  0
    5.4566   -3.7214    1.0845 C   0  0  0  0  0  0  0  0  0  0  0  0
    4.1559   -4.2115    0.8376 C   0  0  0  0  0  0  0  0  0  0  0  0
    3.8908   -5.6347    0.5891 C   0  0  0  0  0  0  0  0  0  0  0  0
    4.3173   -6.6064    1.4903 C   0  0  0  0  0  0  0  0  0  0  0  0
    4.0284   -7.9406    1.2679 C   0  0  0  0  0  0  0  0  0  0  0  0
    3.3155   -8.3231    0.1447 C   0  0  0  0  0  0  0  0  0  0  0  0
    2.8945   -7.3576   -0.7560 C   0  0  0  0  0  0  0  0  0  0  0  0
    1.9819   -7.8450   -2.2146 S   0  0  0  0  0  0  0  0  0  0  0  0
    0.3026   -7.9140   -1.4854 C   0  0  0  0  0  0  0  0  0  0  0  0
   -0.2755   -6.5326   -1.2538 C   0  0  0  0  0  0  0  0  0  0  0  0
    3.1792   -6.0217   -0.5431 C   0  0  0  0  0  0  0  0  0  0  0  0
    3.1372   -3.2799    0.8421 C   0  0  0  0  0  0  0  0  0  0  0  0
    1.4406   -3.6291    0.6048 S   0  0  0  0  0  0  0  0  0  0  0  0
    6.6701   -4.4263    1.0416 C   0  0  0  0  0  0  0  0  0  0  0  0
    7.7861   -3.6411    1.2642 C   0  0  0  0  0  0  0  0  0  0  0  0
    7.3536   -1.9721    1.5818 S   0  0  0  0  0  0  0  0  0  0  0  0
    9.0937   -4.1701    1.1870 C   0  0  0  0  0  0  0  0  0  0  0  0
   10.3059   -3.5466    1.2527 C   0  0  0  0  0  0  0  0  0  0  0  0
   10.5408   -2.1016    1.4357 C   0  0  0  0  0  0  0  0  0  0  0  0
    9.7267   -1.2472    1.7266 O   0  0  0  0  0  0  0  0  0  0  0  0
   11.9772   -1.8873    1.1947 C   0  0  0  0  0  0  0  0  0  0  0  0
   12.6479   -0.6667    1.1792 C   0  0  0  0  0  0  0  0  0  0  0  0
   13.9858   -0.7685    0.8845 C   0  0  0  0  0  0  0  0  0  0  0  0
   14.6120   -1.9938    0.6175 C   0  0  0  0  0  0  0  0  0  0  0  0
   13.9622   -3.2050    0.6341 C   0  0  0  0  0  0  0  0  0  0  0  0
   12.6006   -3.1263    0.9431 C   0  0  0  0  0  0  0  0  0  0  0  0
   11.5977   -4.1830    1.0523 C   0  0  0  0  0  0  0  0  0  0  0  0
   11.8550   -5.5285    1.0184 C   0  0  0  0  0  0  0  0  0  0  0  0
   13.1377   -6.0909    0.8453 C   0  0  0  0  0  0  0  0  0  0  0  0
   14.1500   -6.6157    0.7106 N   0  0  0  0  0  0  0  0  0  0  0  0
   10.9011   -6.5540    1.1904 C   0  0  0  0  0  0  0  0  0  0  0  0
   10.1918   -7.4462    1.3347 N   0  0  0  0  0  0  0  0  0  0  0  0
   15.9545   -1.3464    0.3843 C   0  0  0  0  0  0  0  0  0  0  0  0
   17.0129   -1.4481    1.5104 C   0  0  0  0  0  0  0  0  0  0  0  0
   16.2496   -1.6013    2.8024 C   0  0  0  0  0  0  0  0  0  0  0  0
   15.6549   -0.4444    3.0608 C   0  0  0  0  0  0  0  0  0  0  0  0
   16.0062    0.5127    1.9485 C   0  0  0  0  0  0  0  0  0  0  0  0
   17.4259    0.0290    1.6131 C   0  0  0  0  0  0  0  0  0  0  0  0
   15.2571    0.0174    0.6866 C   0  0  0  0  0  0  0  0  0  0  0  0
   -9.1615    3.0011    0.3515 H   0  0  0  0  0  0  0  0  0  0  0  0
   -9.8075    5.4890   -5.3213 H   0  0  0  0  0  0  0  0  0  0  0  0
  -13.0077    6.2966   -1.4775 H   0  0  0  0  0  0  0  0  0  0  0  0
  -14.1571    7.8205   -4.3363 H   0  0  0  0  0  0  0  0  0  0  0  0
  -13.4923    9.8899   -3.1231 H   0  0  0  0  0  0  0  0  0  0  0  0
  -11.0865    9.4732   -2.1865 H   0  0  0  0  0  0  0  0  0  0  0  0
   -9.4550    9.0553   -4.2400 H   0  0  0  0  0  0  0  0  0  0  0  0
  -10.8570    9.2110   -6.4435 H   0  0  0  0  0  0  0  0  0  0  0  0
  -12.1749   11.0697   -5.0946 H   0  0  0  0  0  0  0  0  0  0  0  0
  -13.3655    9.9548   -5.8119 H   0  0  0  0  0  0  0  0  0  0  0  0
  -12.5652    7.4016   -6.3239 H   0  0  0  0  0  0  0  0  0  0  0  0
   -7.8387    1.6192   -3.0381 H   0  0  0  0  0  0  0  0  0  0  0  0
   -5.1547   -0.4232   -4.7447 H   0  0  0  0  0  0  0  0  0  0  0  0
   -6.8226    0.0291   -4.3176 H   0  0  0  0  0  0  0  0  0  0  0  0
   -5.7675    1.6424   -5.9321 H   0  0  0  0  0  0  0  0  0  0  0  0
   -6.1913    2.4490   -4.4213 H   0  0  0  0  0  0  0  0  0  0  0  0
   -4.5107    1.9998   -4.7399 H   0  0  0  0  0  0  0  0  0  0  0  0
   -2.6771   -1.3434   -2.8724 H   0  0  0  0  0  0  0  0  0  0  0  0
   -1.4599   -2.9695   -4.2772 H   0  0  0  0  0  0  0  0  0  0  0  0
   -2.4203   -7.6103   -3.4329 H   0  0  0  0  0  0  0  0  0  0  0  0
   -1.8718   -8.0145   -5.0746 H   0  0  0  0  0  0  0  0  0  0  0  0
   -3.4935   -7.3243   -4.8421 H   0  0  0  0  0  0  0  0  0  0  0  0
   -4.0689   -6.0747   -2.9162 H   0  0  0  0  0  0  0  0  0  0  0  0
   -5.2415   -4.4721   -1.5035 H   0  0  0  0  0  0  0  0  0  0  0  0
   -6.1294   -1.4754    0.9677 H   0  0  0  0  0  0  0  0  0  0  0  0
   -8.5483   -1.2976    1.0969 H   0  0  0  0  0  0  0  0  0  0  0  0
  -10.7683   -1.9748    1.3366 H   0  0  0  0  0  0  0  0  0  0  0  0
  -12.1714   -1.1176    0.6645 H   0  0  0  0  0  0  0  0  0  0  0  0
  -10.6742   -0.2175    0.9604 H   0  0  0  0  0  0  0  0  0  0  0  0
   -8.8467   -2.3109   -3.0458 H   0  0  0  0  0  0  0  0  0  0  0  0
   -6.3906   -2.4680   -3.1796 H   0  0  0  0  0  0  0  0  0  0  0  0
   -0.9147    2.1090    4.2299 H   0  0  0  0  0  0  0  0  0  0  0  0
   -1.4016    4.4962    4.1083 H   0  0  0  0  0  0  0  0  0  0  0  0
   -2.1376    7.9688    3.3003 H   0  0  0  0  0  0  0  0  0  0  0  0
   -1.0672    6.7948    4.0951 H   0  0  0  0  0  0  0  0  0  0  0  0
   -2.7814    6.3784    3.7640 H   0  0  0  0  0  0  0  0  0  0  0  0
   -0.8241    4.3953   -0.1315 H   0  0  0  0  0  0  0  0  0  0  0  0
   -0.3227    1.9855    0.0001 H   0  0  0  0  0  0  0  0  0  0  0  0
    1.7083    1.9188    3.2168 H   0  0  0  0  0  0  0  0  0  0  0  0
    3.5179    1.0393    4.6270 H   0  0  0  0  0  0  0  0  0  0  0  0
    5.2907   -3.5377    5.0078 H   0  0  0  0  0  0  0  0  0  0  0  0
    4.0341   -3.1803    3.7977 H   0  0  0  0  0  0  0  0  0  0  0  0
    3.5936   -3.9134    5.3712 H   0  0  0  0  0  0  0  0  0  0  0  0
    1.5768   -2.7622    4.7511 H   0  0  0  0  0  0  0  0  0  0  0  0
   -0.2481   -1.8805    3.3926 H   0  0  0  0  0  0  0  0  0  0  0  0
    2.0864   -0.1081    1.1762 H   0  0  0  0  0  0  0  0  0  0  0  0
    6.0662   -0.3799    3.4146 H   0  0  0  0  0  0  0  0  0  0  0  0
    6.3797    1.9935    3.9494 H   0  0  0  0  0  0  0  0  0  0  0  0
    5.3065    3.7327    2.6128 H   0  0  0  0  0  0  0  0  0  0  0  0
    4.4472    5.3363    1.4291 H   0  0  0  0  0  0  0  0  0  0  0  0
    3.0046    5.7350    0.4826 H   0  0  0  0  0  0  0  0  0  0  0  0
    2.9675    4.1367    3.0988 H   0  0  0  0  0  0  0  0  0  0  0  0
    2.4811    5.8269    2.9233 H   0  0  0  0  0  0  0  0  0  0  0  0
    1.5579    4.5528    2.1168 H   0  0  0  0  0  0  0  0  0  0  0  0
    3.7367    0.7392    0.0027 H   0  0  0  0  0  0  0  0  0  0  0  0
    4.8606   -6.3085    2.3755 H   0  0  0  0  0  0  0  0  0  0  0  0
    4.3619   -8.6874    1.9729 H   0  0  0  0  0  0  0  0  0  0  0  0
    3.0904   -9.3625   -0.0395 H   0  0  0  0  0  0  0  0  0  0  0  0
   -0.2822   -8.4756   -2.2132 H   0  0  0  0  0  0  0  0  0  0  0  0
    0.3705   -8.4861   -0.5602 H   0  0  0  0  0  0  0  0  0  0  0  0
    0.3171   -5.9855   -0.5240 H   0  0  0  0  0  0  0  0  0  0  0  0
   -1.2949   -6.6082   -0.8778 H   0  0  0  0  0  0  0  0  0  0  0  0
   -0.2867   -5.9657   -2.1816 H   0  0  0  0  0  0  0  0  0  0  0  0
    2.8648   -5.2864   -1.2679 H   0  0  0  0  0  0  0  0  0  0  0  0
    6.7386   -5.4771    0.8191 H   0  0  0  0  0  0  0  0  0  0  0  0
    9.1005   -5.2364    0.9935 H   0  0  0  0  0  0  0  0  0  0  0  0
   12.1248    0.2554    1.3789 H   0  0  0  0  0  0  0  0  0  0  0  0
   14.4549   -4.1378    0.4173 H   0  0  0  0  0  0  0  0  0  0  0  0
   16.3862   -1.4900   -0.6043 H   0  0  0  0  0  0  0  0  0  0  0  0
   17.7982   -2.1764    1.3271 H   0  0  0  0  0  0  0  0  0  0  0  0
   16.1762   -2.5238    3.3479 H   0  0  0  0  0  0  0  0  0  0  0  0
   14.9846   -0.2068    3.8659 H   0  0  0  0  0  0  0  0  0  0  0  0
   15.8750    1.5697    2.1651 H   0  0  0  0  0  0  0  0  0  0  0  0
   18.1349    0.2129    2.4189 H   0  0  0  0  0  0  0  0  0  0  0  0
   17.8145    0.4372    0.6810 H   0  0  0  0  0  0  0  0  0  0  0  0
   15.2360    0.7657   -0.1036 H   0  0  0  0  0  0  0  0  0  0  0  0
  1  2  2  0  0  0  0
  2  3  1  0  0  0  0
  3  4  2  0  0  0  0
  3  5  1  0  0  0  0
  5  6  2  0  0  0  0
  6  7  1  0  0  0  0
  7  8  2  0  0  0  0
  8  9  1  0  0  0  0
  9 10  2  0  0  0  0
 10 11  1  0  0  0  0
 11 12  2  0  0  0  0
 12 13  1  0  0  0  0
 13 14  3  0  0  0  0
 12 15  1  0  0  0  0
 15 16  3  0  0  0  0
  8 17  1  0  0  0  0
 17 18  1  0  0  0  0
 18 19  1  0  0  0  0
 19 20  2  0  0  0  0
 20 21  1  0  0  0  0
 21 22  1  0  0  0  0
 21 23  1  0  0  0  0
  1 24  1  0  0  0  0
 24 25  2  0  0  0  0
 25 26  1  0  0  0  0
 26 27  1  0  0  0  0
 27 28  1  0  0  0  0
 28 29  1  0  0  0  0
 26 30  2  0  0  0  0
 30 31  1  0  0  0  0
 30 32  1  0  0  0  0
 32 33  2  0  0  0  0
 33 34  1  0  0  0  0
 34 35  1  0  0  0  0
 35 36  2  0  0  0  0
 36 37  1  0  0  0  0
 37 38  2  0  0  0  0
 38 39  1  0  0  0  0
 39 40  1  0  0  0  0
 38 41  1  0  0  0  0
 41 42  2  0  0  0  0
 34 43  1  0  0  0  0
 43 44  2  0  0  0  0
 44 45  1  0  0  0  0
 45 46  2  0  0  0  0
 46 47  1  0  0  0  0
 47 48  1  0  0  0  0
 46 49  1  0  0  0  0
 49 50  2  0  0  0  0
 33 51  1  0  0  0  0
 51 52  1  0  0  0  0
 52 53  1  0  0  0  0
 53 54  2  0  0  0  0
 54 55  1  0  0  0  0
 55 56  1  0  0  0  0
 56 57  2  0  0  0  0
 57 58  1  0  0  0  0
 58 59  2  0  0  0  0
 59 60  1  0  0  0  0
 60 61  1  0  0  0  0
 59 62  1  0  0  0  0
 62 63  2  0  0  0  0
 55 64  1  0  0  0  0
 64 65  2  0  0  0  0
 65 66  1  0  0  0  0
 66 67  2  0  0  0  0
 67 68  1  0  0  0  0
 68 69  1  0  0  0  0
 67 70  1  0  0  0  0
 70 71  2  0  0  0  0
 54 72  1  0  0  0  0
 72 73  1  0  0  0  0
 53 74  1  0  0  0  0
 74 75  2  0  0  0  0
 75 76  1  0  0  0  0
 76 77  2  0  0  0  0
 77 78  1  0  0  0  0
 78 79  2  0  0  0  0
 79 80  1  0  0  0  0
 80 81  2  0  0  0  0
 81 82  1  0  0  0  0
 82 83  1  0  0  0  0
 83 84  1  0  0  0  0
 84 85  1  0  0  0  0
 82 86  2  0  0  0  0
 77 87  1  0  0  0  0
 87 88  2  0  0  0  0
 88 89  1  0  0  0  0
 89 90  1  0  0  0  0
 90 91  2  0  0  0  0
 91 92  1  0  0  0  0
 92 93  2  0  0  0  0
 93 94  1  0  0  0  0
 94 95  1  0  0  0  0
 95 96  1  0  0  0  0
 96 97  1  0  0  0  0
 94 98  2  0  0  0  0
 89 99  2  0  0  0  0
 99100  1  0  0  0  0
 88101  1  0  0  0  0
101102  2  0  0  0  0
102103  1  0  0  0  0
102104  1  0  0  0  0
104105  2  0  0  0  0
105106  1  0  0  0  0
106107  2  0  0  0  0
106108  1  0  0  0  0
108109  2  0  0  0  0
109110  1  0  0  0  0
110111  2  0  0  0  0
111112  1  0  0  0  0
112113  2  0  0  0  0
113114  1  0  0  0  0
114115  2  0  0  0  0
115116  1  0  0  0  0
116117  3  0  0  0  0
115118  1  0  0  0  0
118119  3  0  0  0  0
111120  1  0  0  0  0
120121  1  0  0  0  0
121122  1  0  0  0  0
122123  2  0  0  0  0
123124  1  0  0  0  0
124125  1  0  0  0  0
124126  1  0  0  0  0
 11  2  1  0  0  0  0
 23 17  1  0  0  0  0
 31 24  1  0  0  0  0
 73 32  1  0  0  0  0
100 74  1  0  0  0  0
114105  1  0  0  0  0
126120  1  0  0  0  0
 10  5  1  0  0  0  0
 22 18  1  0  0  0  0
 42 35  1  0  0  0  0
 50 43  1  0  0  0  0
 72 51  2  0  0  0  0
 99 76  1  0  0  0  0
113108  1  0  0  0  0
125121  1  0  0  0  0
 23  7  1  0  0  0  0
 63 56  1  0  0  0  0
 71 64  1  0  0  0  0
 86 78  1  0  0  0  0
103 87  1  0  0  0  0
126110  1  0  0  0  0
 98 90  1  0  0  0  0
  1127  1  0  0  0  0
  6128  1  0  0  0  0
  9129  1  0  0  0  0
 17130  1  0  0  0  0
 18131  1  0  0  0  0
 19132  1  0  0  0  0
 20133  1  0  0  0  0
 21134  1  0  0  0  0
 22135  1  0  0  0  0
 22136  1  0  0  0  0
 23137  1  0  0  0  0
 25138  1  0  0  0  0
 28139  1  0  0  0  0
 28140  1  0  0  0  0
 29141  1  0  0  0  0
 29142  1  0  0  0  0
 29143  1  0  0  0  0
 36144  1  0  0  0  0
 37145  1  0  0  0  0
 40146  1  0  0  0  0
 40147  1  0  0  0  0
 40148  1  0  0  0  0
 41149  1  0  0  0  0
 42150  1  0  0  0  0
 44151  1  0  0  0  0
 45152  1  0  0  0  0
 48153  1  0  0  0  0
 48154  1  0  0  0  0
 48155  1  0  0  0  0
 49156  1  0  0  0  0
 50157  1  0  0  0  0
 57158  1  0  0  0  0
 58159  1  0  0  0  0
 61160  1  0  0  0  0
 61161  1  0  0  0  0
 61162  1  0  0  0  0
 62163  1  0  0  0  0
 63164  1  0  0  0  0
 65165  1  0  0  0  0
 66166  1  0  0  0  0
 69167  1  0  0  0  0
 69168  1  0  0  0  0
 69169  1  0  0  0  0
 70170  1  0  0  0  0
 71171  1  0  0  0  0
 75172  1  0  0  0  0
 79173  1  0  0  0  0
 80174  1  0  0  0  0
 81175  1  0  0  0  0
 84176  1  0  0  0  0
 84177  1  0  0  0  0
 85178  1  0  0  0  0
 85179  1  0  0  0  0
 85180  1  0  0  0  0
 86181  1  0  0  0  0
 91182  1  0  0  0  0
 92183  1  0  0  0  0
 93184  1  0  0  0  0
 96185  1  0  0  0  0
 96186  1  0  0  0  0
 97187  1  0  0  0  0
 97188  1  0  0  0  0
 97189  1  0  0  0  0
 98190  1  0  0  0  0
101191  1  0  0  0  0
104192  1  0  0  0  0
109193  1  0  0  0  0
112194  1  0  0  0  0
120195  1  0  0  0  0
121196  1  0  0  0  0
122197  1  0  0  0  0
123198  1  0  0  0  0
124199  1  0  0  0  0
125200  1  0  0  0  0
125201  1  0  0  0  0
126202  1  0  0  0  0
M  END
