
  xtb     02062215023D
 energy: -293.208596111377 gnorm: 0.000452870981 xtb: 6.4.1 (unknown)
160179  0     0  0            999 V2000
   -4.4658   -0.4367   -6.9528 C   0  0  0  0  0  0  0  0  0  0  0  0
   -5.6336   -1.1270   -7.0334 C   0  0  0  0  0  0  0  0  0  0  0  0
   -6.5685   -0.8377   -8.1621 C   0  0  0  0  0  0  0  0  0  0  0  0
   -6.3137   -0.2228   -9.1712 O   0  0  0  0  0  0  0  0  0  0  0  0
   -7.8634   -1.4116   -7.7499 C   0  0  0  0  0  0  0  0  0  0  0  0
   -9.0883   -1.2896   -8.4033 C   0  0  0  0  0  0  0  0  0  0  0  0
  -10.1303   -1.9141   -7.7602 C   0  0  0  0  0  0  0  0  0  0  0  0
   -9.9720   -2.6085   -6.5524 C   0  0  0  0  0  0  0  0  0  0  0  0
   -8.7696   -2.7455   -5.9009 C   0  0  0  0  0  0  0  0  0  0  0  0
   -7.6962   -2.1204   -6.5411 C   0  0  0  0  0  0  0  0  0  0  0  0
   -6.2869   -2.0793   -6.1677 C   0  0  0  0  0  0  0  0  0  0  0  0
   -5.6642   -2.9574   -5.3187 C   0  0  0  0  0  0  0  0  0  0  0  0
   -6.3261   -3.9260   -4.5385 C   0  0  0  0  0  0  0  0  0  0  0  0
   -6.7996   -4.7294   -3.8686 N   0  0  0  0  0  0  0  0  0  0  0  0
   -4.2680   -3.0592   -5.1993 C   0  0  0  0  0  0  0  0  0  0  0  0
   -3.1344   -3.2134   -5.0892 N   0  0  0  0  0  0  0  0  0  0  0  0
  -11.4359   -2.9618   -6.4707 C   0  0  0  0  0  0  0  0  0  0  0  0
  -12.2907   -2.1339   -5.4877 C   0  0  0  0  0  0  0  0  0  0  0  0
  -13.7079   -2.3584   -5.9632 C   0  0  0  0  0  0  0  0  0  0  0  0
  -13.8581   -1.7034   -7.1074 C   0  0  0  0  0  0  0  0  0  0  0  0
  -12.5450   -1.0247   -7.4243 C   0  0  0  0  0  0  0  0  0  0  0  0
  -12.0624   -0.7070   -6.0030 C   0  0  0  0  0  0  0  0  0  0  0  0
  -11.6123   -2.1902   -7.8179 C   0  0  0  0  0  0  0  0  0  0  0  0
   -3.6032   -0.2236   -5.8398 C   0  0  0  0  0  0  0  0  0  0  0  0
   -2.3160    0.2884   -6.0162 C   0  0  0  0  0  0  0  0  0  0  0  0
   -1.8913    0.5472   -7.2602 F   0  0  0  0  0  0  0  0  0  0  0  0
   -1.4166    0.5524   -4.9787 C   0  0  0  0  0  0  0  0  0  0  0  0
   -0.2551    1.1465   -5.3130 F   0  0  0  0  0  0  0  0  0  0  0  0
   -1.7016    0.3184   -3.6347 C   0  0  0  0  0  0  0  0  0  0  0  0
   -3.0459   -0.0888   -3.4050 C   0  0  0  0  0  0  0  0  0  0  0  0
   -3.9729   -0.3647   -4.4745 C   0  0  0  0  0  0  0  0  0  0  0  0
   -5.1197   -0.6930   -3.9153 N   0  0  0  0  0  0  0  0  0  0  0  0
   -4.9240   -0.6421   -2.5924 O   0  0  0  0  0  0  0  0  0  0  0  0
   -3.6785   -0.2841   -2.2703 N   0  0  0  0  0  0  0  0  0  0  0  0
   -0.8100    0.5027   -2.5467 C   0  0  0  0  0  0  0  0  0  0  0  0
    0.5904    0.4443   -2.5087 C   0  0  0  0  0  0  0  0  0  0  0  0
    1.4161   -0.0053   -3.5069 N   0  0  0  0  0  0  0  0  0  0  0  0
    1.0512   -1.0636   -4.3537 C   0  0  0  0  0  0  0  0  0  0  0  0
    0.2456   -2.1024   -3.8951 C   0  0  0  0  0  0  0  0  0  0  0  0
   -0.0984   -3.1478   -4.7267 C   0  0  0  0  0  0  0  0  0  0  0  0
    0.3513   -3.1671   -6.0422 C   0  0  0  0  0  0  0  0  0  0  0  0
   -0.0265   -4.4372   -7.1946 S   0  0  0  0  0  0  0  0  0  0  0  0
   -1.1492   -5.5345   -6.2857 C   0  0  0  0  0  0  0  0  0  0  0  0
    1.1665   -2.1311   -6.5022 C   0  0  0  0  0  0  0  0  0  0  0  0
    1.5164   -1.0942   -5.6700 C   0  0  0  0  0  0  0  0  0  0  0  0
    2.7253    0.4970   -3.5494 C   0  0  0  0  0  0  0  0  0  0  0  0
    2.9471    1.8585   -3.3513 C   0  0  0  0  0  0  0  0  0  0  0  0
    4.2302    2.3615   -3.2997 C   0  0  0  0  0  0  0  0  0  0  0  0
    5.3164    1.5075   -3.4513 C   0  0  0  0  0  0  0  0  0  0  0  0
    6.9899    2.0376   -3.3441 S   0  0  0  0  0  0  0  0  0  0  0  0
    6.8673    3.6176   -2.4571 C   0  0  0  0  0  0  0  0  0  0  0  0
    5.0948    0.1544   -3.7100 C   0  0  0  0  0  0  0  0  0  0  0  0
    3.8155   -0.3491   -3.7565 C   0  0  0  0  0  0  0  0  0  0  0  0
    1.0604    0.7950   -1.2162 C   0  0  0  0  0  0  0  0  0  0  0  0
    2.6345    0.9348   -0.5203 S   0  0  0  0  0  0  0  0  0  0  0  0
    1.9296    1.2843    1.0483 C   0  0  0  0  0  0  0  0  0  0  0  0
    0.5357    1.3689    1.0083 C   0  0  0  0  0  0  0  0  0  0  0  0
   -0.2777    1.8303    2.0124 N   0  0  0  0  0  0  0  0  0  0  0  0
   -1.6204    1.4221    2.0482 C   0  0  0  0  0  0  0  0  0  0  0  0
   -1.9602    0.0967    1.7903 C   0  0  0  0  0  0  0  0  0  0  0  0
   -3.2846   -0.2875    1.7309 C   0  0  0  0  0  0  0  0  0  0  0  0
   -4.2888    0.6500    1.9378 C   0  0  0  0  0  0  0  0  0  0  0  0
   -6.0037    0.2711    1.8173 S   0  0  0  0  0  0  0  0  0  0  0  0
   -6.0187   -1.2339    0.8016 C   0  0  0  0  0  0  0  0  0  0  0  0
   -3.9478    1.9612    2.2697 C   0  0  0  0  0  0  0  0  0  0  0  0
   -2.6277    2.3467    2.3228 C   0  0  0  0  0  0  0  0  0  0  0  0
    0.2122    2.6879    3.0081 C   0  0  0  0  0  0  0  0  0  0  0  0
   -0.1481    2.4916    4.3392 C   0  0  0  0  0  0  0  0  0  0  0  0
    0.4803    3.1991    5.3456 C   0  0  0  0  0  0  0  0  0  0  0  0
    1.4723    4.1218    5.0351 C   0  0  0  0  0  0  0  0  0  0  0  0
    2.4452    4.9593    6.2427 S   0  0  0  0  0  0  0  0  0  0  0  0
    2.2815    3.8916    7.7014 C   0  0  0  0  0  0  0  0  0  0  0  0
    1.7372    4.4125    3.6965 C   0  0  0  0  0  0  0  0  0  0  0  0
    1.1125    3.7070    2.6935 C   0  0  0  0  0  0  0  0  0  0  0  0
    0.0611    1.0508   -0.2920 C   0  0  0  0  0  0  0  0  0  0  0  0
   -1.5161    0.8696   -0.9789 S   0  0  0  0  0  0  0  0  0  0  0  0
    2.7883    1.4618    2.1813 C   0  0  0  0  0  0  0  0  0  0  0  0
    3.9936    2.1454    2.1400 C   0  0  0  0  0  0  0  0  0  0  0  0
    4.4308    2.6472    0.9696 F   0  0  0  0  0  0  0  0  0  0  0  0
    4.7651    2.4330    3.2804 C   0  0  0  0  0  0  0  0  0  0  0  0
    5.8737    3.1641    3.0982 F   0  0  0  0  0  0  0  0  0  0  0  0
    4.4483    1.9993    4.5553 C   0  0  0  0  0  0  0  0  0  0  0  0
    3.2553    1.2363    4.6325 C   0  0  0  0  0  0  0  0  0  0  0  0
    2.4499    0.9668    3.4709 C   0  0  0  0  0  0  0  0  0  0  0  0
    1.4244    0.2412    3.8671 N   0  0  0  0  0  0  0  0  0  0  0  0
    1.5623    0.0865    5.1790 O   0  0  0  0  0  0  0  0  0  0  0  0
    2.6446    0.6916    5.6653 N   0  0  0  0  0  0  0  0  0  0  0  0
    5.2226    2.3362    5.7209 C   0  0  0  0  0  0  0  0  0  0  0  0
    5.4931    1.4513    6.7094 C   0  0  0  0  0  0  0  0  0  0  0  0
    5.3771   -0.0281    6.5461 C   0  0  0  0  0  0  0  0  0  0  0  0
    5.0372   -0.6294    5.5513 O   0  0  0  0  0  0  0  0  0  0  0  0
    5.9054   -0.6070    7.7910 C   0  0  0  0  0  0  0  0  0  0  0  0
    5.9999   -1.9624    8.1032 C   0  0  0  0  0  0  0  0  0  0  0  0
    6.5615   -2.2166    9.3307 C   0  0  0  0  0  0  0  0  0  0  0  0
    7.0066   -1.1977   10.1856 C   0  0  0  0  0  0  0  0  0  0  0  0
    6.9235    0.1415    9.8900 C   0  0  0  0  0  0  0  0  0  0  0  0
    6.3486    0.4243    8.6457 C   0  0  0  0  0  0  0  0  0  0  0  0
    6.0953    1.7102    8.0063 C   0  0  0  0  0  0  0  0  0  0  0  0
    6.3110    2.9426    8.5615 C   0  0  0  0  0  0  0  0  0  0  0  0
    5.9915    4.1730    7.9470 C   0  0  0  0  0  0  0  0  0  0  0  0
    5.7421    5.2121    7.5276 N   0  0  0  0  0  0  0  0  0  0  0  0
    6.8623    3.1601    9.8423 C   0  0  0  0  0  0  0  0  0  0  0  0
    7.3033    3.4118   10.8716 N   0  0  0  0  0  0  0  0  0  0  0  0
    7.4745   -2.1735   11.2358 C   0  0  0  0  0  0  0  0  0  0  0  0
    8.9948   -2.4298   11.3089 C   0  0  0  0  0  0  0  0  0  0  0  0
    9.1054   -3.7384   12.0578 C   0  0  0  0  0  0  0  0  0  0  0  0
    8.6832   -4.7026   11.2498 C   0  0  0  0  0  0  0  0  0  0  0  0
    8.2802   -4.0621    9.9412 C   0  0  0  0  0  0  0  0  0  0  0  0
    9.2973   -2.9149    9.8852 C   0  0  0  0  0  0  0  0  0  0  0  0
    6.9770   -3.3086   10.2843 C   0  0  0  0  0  0  0  0  0  0  0  0
   -4.1880    0.0928   -7.8597 H   0  0  0  0  0  0  0  0  0  0  0  0
   -9.1703   -0.7477   -9.3324 H   0  0  0  0  0  0  0  0  0  0  0  0
   -8.6562   -3.2765   -4.9701 H   0  0  0  0  0  0  0  0  0  0  0  0
  -11.6664   -4.0250   -6.4441 H   0  0  0  0  0  0  0  0  0  0  0  0
  -12.0903   -2.3261   -4.4372 H   0  0  0  0  0  0  0  0  0  0  0  0
  -14.4147   -2.9945   -5.4636 H   0  0  0  0  0  0  0  0  0  0  0  0
  -14.7154   -1.6831   -7.7543 H   0  0  0  0  0  0  0  0  0  0  0  0
  -12.5770   -0.2059   -8.1379 H   0  0  0  0  0  0  0  0  0  0  0  0
  -12.7034    0.0177   -5.5038 H   0  0  0  0  0  0  0  0  0  0  0  0
  -11.0272   -0.3755   -5.9487 H   0  0  0  0  0  0  0  0  0  0  0  0
  -11.9610   -2.7389   -8.6907 H   0  0  0  0  0  0  0  0  0  0  0  0
   -0.1038   -2.1024   -2.8731 H   0  0  0  0  0  0  0  0  0  0  0  0
   -0.7196   -3.9354   -4.3378 H   0  0  0  0  0  0  0  0  0  0  0  0
   -0.6132   -6.0260   -5.4787 H   0  0  0  0  0  0  0  0  0  0  0  0
   -1.9926   -4.9600   -5.9136 H   0  0  0  0  0  0  0  0  0  0  0  0
   -1.4874   -6.2722   -7.0067 H   0  0  0  0  0  0  0  0  0  0  0  0
    1.5115   -2.1490   -7.5242 H   0  0  0  0  0  0  0  0  0  0  0  0
    2.1310   -0.2859   -6.0351 H   0  0  0  0  0  0  0  0  0  0  0  0
    2.1031    2.5231   -3.2414 H   0  0  0  0  0  0  0  0  0  0  0  0
    4.3723    3.4181   -3.1433 H   0  0  0  0  0  0  0  0  0  0  0  0
    6.2467    3.4882   -1.5755 H   0  0  0  0  0  0  0  0  0  0  0  0
    6.4738    4.3902   -3.1113 H   0  0  0  0  0  0  0  0  0  0  0  0
    7.8817    3.8698   -2.1643 H   0  0  0  0  0  0  0  0  0  0  0  0
    5.9427   -0.4983   -3.8475 H   0  0  0  0  0  0  0  0  0  0  0  0
    3.6515   -1.4027   -3.9242 H   0  0  0  0  0  0  0  0  0  0  0  0
   -1.1775   -0.6323    1.6447 H   0  0  0  0  0  0  0  0  0  0  0  0
   -3.5225   -1.3175    1.5233 H   0  0  0  0  0  0  0  0  0  0  0  0
   -7.0494   -1.3693    0.4895 H   0  0  0  0  0  0  0  0  0  0  0  0
   -5.6999   -2.0906    1.3883 H   0  0  0  0  0  0  0  0  0  0  0  0
   -5.3847   -1.0859   -0.0669 H   0  0  0  0  0  0  0  0  0  0  0  0
   -4.7336    2.6759    2.4586 H   0  0  0  0  0  0  0  0  0  0  0  0
   -2.3659    3.3691    2.5507 H   0  0  0  0  0  0  0  0  0  0  0  0
   -0.8867    1.7440    4.5852 H   0  0  0  0  0  0  0  0  0  0  0  0
    0.2095    3.0020    6.3700 H   0  0  0  0  0  0  0  0  0  0  0  0
    1.3001    4.0096    8.1514 H   0  0  0  0  0  0  0  0  0  0  0  0
    2.4658    2.8586    7.4175 H   0  0  0  0  0  0  0  0  0  0  0  0
    3.0437    4.2342    8.3944 H   0  0  0  0  0  0  0  0  0  0  0  0
    2.4550    5.1825    3.4604 H   0  0  0  0  0  0  0  0  0  0  0  0
    1.3391    3.9211    1.6598 H   0  0  0  0  0  0  0  0  0  0  0  0
    5.5972    3.3512    5.7641 H   0  0  0  0  0  0  0  0  0  0  0  0
    5.6450   -2.7133    7.4151 H   0  0  0  0  0  0  0  0  0  0  0  0
    7.2745    0.9119   10.5560 H   0  0  0  0  0  0  0  0  0  0  0  0
    7.0119   -2.0734   12.2156 H   0  0  0  0  0  0  0  0  0  0  0  0
    9.5786   -1.5966   11.6901 H   0  0  0  0  0  0  0  0  0  0  0  0
    9.4173   -3.8185   13.0824 H   0  0  0  0  0  0  0  0  0  0  0  0
    8.5717   -5.7491   11.4648 H   0  0  0  0  0  0  0  0  0  0  0  0
    8.2136   -4.7161    9.0760 H   0  0  0  0  0  0  0  0  0  0  0  0
   10.3191   -3.2761    9.7824 H   0  0  0  0  0  0  0  0  0  0  0  0
    9.0928   -2.1773    9.1113 H   0  0  0  0  0  0  0  0  0  0  0  0
    6.1823   -3.9675   10.6288 H   0  0  0  0  0  0  0  0  0  0  0  0
  1  2  2  0  0  0  0
  2  3  1  0  0  0  0
  3  4  2  0  0  0  0
  3  5  1  0  0  0  0
  5  6  2  0  0  0  0
  6  7  1  0  0  0  0
  7  8  2  0  0  0  0
  8  9  1  0  0  0  0
  9 10  2  0  0  0  0
 10 11  1  0  0  0  0
 11 12  2  0  0  0  0
 12 13  1  0  0  0  0
 13 14  3  0  0  0  0
 12 15  1  0  0  0  0
 15 16  3  0  0  0  0
  8 17  1  0  0  0  0
 17 18  1  0  0  0  0
 18 19  1  0  0  0  0
 19 20  2  0  0  0  0
 20 21  1  0  0  0  0
 21 22  1  0  0  0  0
 21 23  1  0  0  0  0
  1 24  1  0  0  0  0
 24 25  2  0  0  0  0
 25 26  1  0  0  0  0
 25 27  1  0  0  0  0
 27 28  1  0  0  0  0
 27 29  2  0  0  0  0
 29 30  1  0  0  0  0
 30 31  1  0  0  0  0
 31 32  2  0  0  0  0
 32 33  1  0  0  0  0
 33 34  1  0  0  0  0
 29 35  1  0  0  0  0
 35 36  2  0  0  0  0
 36 37  1  0  0  0  0
 37 38  1  0  0  0  0
 38 39  2  0  0  0  0
 39 40  1  0  0  0  0
 40 41  2  0  0  0  0
 41 42  1  0  0  0  0
 42 43  1  0  0  0  0
 41 44  1  0  0  0  0
 44 45  2  0  0  0  0
 37 46  1  0  0  0  0
 46 47  2  0  0  0  0
 47 48  1  0  0  0  0
 48 49  2  0  0  0  0
 49 50  1  0  0  0  0
 50 51  1  0  0  0  0
 49 52  1  0  0  0  0
 52 53  2  0  0  0  0
 36 54  1  0  0  0  0
 54 55  1  0  0  0  0
 55 56  1  0  0  0  0
 56 57  2  0  0  0  0
 57 58  1  0  0  0  0
 58 59  1  0  0  0  0
 59 60  2  0  0  0  0
 60 61  1  0  0  0  0
 61 62  2  0  0  0  0
 62 63  1  0  0  0  0
 63 64  1  0  0  0  0
 62 65  1  0  0  0  0
 65 66  2  0  0  0  0
 58 67  1  0  0  0  0
 67 68  2  0  0  0  0
 68 69  1  0  0  0  0
 69 70  2  0  0  0  0
 70 71  1  0  0  0  0
 71 72  1  0  0  0  0
 70 73  1  0  0  0  0
 73 74  2  0  0  0  0
 57 75  1  0  0  0  0
 75 76  1  0  0  0  0
 56 77  1  0  0  0  0
 77 78  2  0  0  0  0
 78 79  1  0  0  0  0
 78 80  1  0  0  0  0
 80 81  1  0  0  0  0
 80 82  2  0  0  0  0
 82 83  1  0  0  0  0
 83 84  1  0  0  0  0
 84 85  2  0  0  0  0
 85 86  1  0  0  0  0
 86 87  1  0  0  0  0
 82 88  1  0  0  0  0
 88 89  2  0  0  0  0
 89 90  1  0  0  0  0
 90 91  2  0  0  0  0
 90 92  1  0  0  0  0
 92 93  2  0  0  0  0
 93 94  1  0  0  0  0
 94 95  2  0  0  0  0
 95 96  1  0  0  0  0
 96 97  2  0  0  0  0
 97 98  1  0  0  0  0
 98 99  2  0  0  0  0
 99100  1  0  0  0  0
100101  3  0  0  0  0
 99102  1  0  0  0  0
102103  3  0  0  0  0
 95104  1  0  0  0  0
104105  1  0  0  0  0
105106  1  0  0  0  0
106107  2  0  0  0  0
107108  1  0  0  0  0
108109  1  0  0  0  0
108110  1  0  0  0  0
 11  2  1  0  0  0  0
 23 17  1  0  0  0  0
 31 24  1  0  0  0  0
 76 35  1  0  0  0  0
 84 77  1  0  0  0  0
 98 89  1  0  0  0  0
110104  1  0  0  0  0
 10  5  1  0  0  0  0
 22 18  1  0  0  0  0
 34 30  2  0  0  0  0
 45 38  1  0  0  0  0
 53 46  1  0  0  0  0
 75 54  2  0  0  0  0
 87 83  2  0  0  0  0
 97 92  1  0  0  0  0
109105  1  0  0  0  0
 23  7  1  0  0  0  0
 66 59  1  0  0  0  0
 74 67  1  0  0  0  0
110 94  1  0  0  0  0
  1111  1  0  0  0  0
  6112  1  0  0  0  0
  9113  1  0  0  0  0
 17114  1  0  0  0  0
 18115  1  0  0  0  0
 19116  1  0  0  0  0
 20117  1  0  0  0  0
 21118  1  0  0  0  0
 22119  1  0  0  0  0
 22120  1  0  0  0  0
 23121  1  0  0  0  0
 39122  1  0  0  0  0
 40123  1  0  0  0  0
 43124  1  0  0  0  0
 43125  1  0  0  0  0
 43126  1  0  0  0  0
 44127  1  0  0  0  0
 45128  1  0  0  0  0
 47129  1  0  0  0  0
 48130  1  0  0  0  0
 51131  1  0  0  0  0
 51132  1  0  0  0  0
 51133  1  0  0  0  0
 52134  1  0  0  0  0
 53135  1  0  0  0  0
 60136  1  0  0  0  0
 61137  1  0  0  0  0
 64138  1  0  0  0  0
 64139  1  0  0  0  0
 64140  1  0  0  0  0
 65141  1  0  0  0  0
 66142  1  0  0  0  0
 68143  1  0  0  0  0
 69144  1  0  0  0  0
 72145  1  0  0  0  0
 72146  1  0  0  0  0
 72147  1  0  0  0  0
 73148  1  0  0  0  0
 74149  1  0  0  0  0
 88150  1  0  0  0  0
 93151  1  0  0  0  0
 96152  1  0  0  0  0
104153  1  0  0  0  0
105154  1  0  0  0  0
106155  1  0  0  0  0
107156  1  0  0  0  0
108157  1  0  0  0  0
109158  1  0  0  0  0
109159  1  0  0  0  0
110160  1  0  0  0  0
M  END
