202

C          2.10540        5.74360        2.95930
C          3.23460        5.59390        3.72820
C          3.85090        4.32930        4.13960
O          3.36220        3.21270        4.11030
C          5.21120        4.66890        4.59830
C          6.19560        3.78640        5.03380
C          7.37630        4.39470        5.38740
C          7.56470        5.78050        5.31250
C          6.59970        6.66340        4.88750
C          5.39140        6.06470        4.52330
C          4.14740        6.66660        4.04620
C          3.90260        8.01400        3.93490
C          2.64530        8.58630        3.66150
N          1.65090        9.13600        3.48680
C          4.87350        9.01890        4.10470
N          5.61940        9.88960        4.18200
C          8.98050        5.69640        5.82600
C          9.23770        6.09230        7.30070
C          7.94590        5.84820        8.04060
C          7.76390        4.53660        8.11520
C          8.92980        3.87010        7.42760
C         10.04840        4.87010        7.76070
C          8.76900        4.15200        5.91320
C          1.24040        4.78360        2.43010
C          0.29700        5.05330        1.40590
N          0.21380        6.23750        0.71320
C          1.37740        6.98520        0.43320
C          1.38530        8.37150        0.57010
C          2.55180        9.07850        0.35910
C          3.73520        8.43280        0.01790
C          5.00290        9.21360       -0.14010
C          3.70660        7.05410       -0.15640
C          2.54320        6.33520        0.03510
C         -1.03400        6.74550        0.31850
C         -1.13880        7.53030       -0.82880
C         -2.33760        8.12910       -1.15260
C         -3.47290        7.93570       -0.37230
C         -4.74920        8.63750       -0.71650
C         -3.37320        7.10850        0.73750
C         -2.17010        6.52940        1.09250
C         -0.49310        3.92090        1.14460
S         -1.75020        3.54210        0.00050
C         -1.77540        1.87260        0.56060
C         -0.92370        1.67260        1.64110
N         -0.87790        0.50030        2.37840
C          0.36960        0.07120        2.85810
C          0.52440       -0.39470        4.16010
C          1.77680       -0.73680        4.62490
C          2.90270       -0.61540        3.81880
C          4.26350       -0.90960        4.37060
C          2.73440       -0.17990        2.51170
C          1.48410        0.15220        2.02890
C         -2.07030       -0.10680        2.78890
C         -2.11780       -1.48600        2.97720
C         -3.29580       -2.09810        3.35010
C         -4.45720       -1.36050        3.55520
C         -5.73380       -2.04310        3.94350
C         -4.39770        0.01640        3.38400
C         -3.22540        0.64070        3.00220
C         -0.17060        2.82670        1.94060
S          1.16310        3.11470        2.99060
C         -2.42910        0.79100       -0.10670
C         -3.66090        0.66510       -0.72490
N         -4.64380        1.64680       -0.81600
C         -5.96290        1.23550       -0.57100
C         -6.21030        0.33230        0.45980
C         -7.49020       -0.11670        0.71860
C         -8.55290        0.33450       -0.05110
S        -10.23230       -0.15600        0.18570
C        -10.14370       -1.39040        1.51420
C         -8.30970        1.23560       -1.08640
C         -7.03300        1.67720       -1.34990
C         -4.37030        2.84660       -1.47750
C         -5.10090        3.99830       -1.18170
C         -4.87060        5.16330       -1.87620
C         -3.89370        5.21380       -2.86750
S         -3.71880        6.72770       -3.75910
C         -2.02290        6.63000       -4.40060
C         -3.14440        4.08160       -3.14670
C         -3.38300        2.90830       -2.45860
C         -3.84150       -0.63960       -1.25060
S         -5.09670       -1.38740       -2.17770
C         -4.13100       -2.84890       -2.33210
C         -2.87740       -2.72760       -1.73590
N         -1.83760       -3.62150       -1.85030
C         -0.96570       -3.75370       -0.75070
C          0.40710       -3.60360       -0.90930
C          1.25170       -3.68760        0.18050
C          0.73370       -3.95130        1.44210
S          1.69840       -4.05920        2.91150
C          3.40100       -3.83120        2.33290
C         -0.63970       -4.14310        1.59290
C         -1.48510       -4.02600        0.51290
C         -1.59640       -4.32600       -3.02990
C         -1.92890       -3.78020       -4.26950
C         -1.75550       -4.50180       -5.43190
C         -1.21740       -5.78040       -5.37980
S         -1.00040       -6.80280       -6.80490
C         -1.87660       -5.92700       -8.12840
C         -0.81830       -6.30620       -4.15270
C         -1.00850       -5.59110       -2.99130
C         -2.75400       -1.47850       -1.08500
S         -1.47880       -0.69870       -0.22760
C         -4.61990       -3.99490       -3.02430
C         -5.56810       -3.94690       -4.07570
N         -5.62110       -4.91240       -4.94630
C         -4.90440       -6.03540       -4.75230
C         -4.31500       -6.21500       -3.48250
N         -4.11470       -5.19030       -2.69890
C         -4.76950       -6.91140       -5.86650
C         -3.98290       -8.00920       -5.97180
S         -3.00540       -8.75350       -4.72680
C         -2.30540       -9.86130       -5.88630
C         -1.36410      -10.78530       -5.51660
C         -0.86970      -10.78210       -4.19760
N         -0.45470      -10.75910       -3.12830
C         -0.83920      -11.77930       -6.36170
N         -0.39140      -12.63350       -6.98480
N         -2.83290       -9.68940       -7.12480
C         -2.32730      -10.35780       -8.28000
C         -3.11320      -11.29560       -8.92800
C         -2.61810      -11.92270      -10.05740
C         -1.35570      -11.60930      -10.53080
C         -0.58430      -10.65800       -9.88460
C         -1.06800      -10.02250       -8.75650
C         -3.78360       -8.68650       -7.25750
O         -4.31910       -8.40410       -8.30350
H          1.87670        6.75800        2.66100
H          6.00910        2.72450        5.07460
H          6.75940        7.72750        4.83530
H          9.75350        6.06760        5.15580
H          9.68900        7.07190        7.43290
H          7.28860        6.63080        8.37160
H          6.92350        4.00430        8.52100
H          9.10130        2.82600        7.67700
H         10.95860        4.71110        7.18390
H         10.28620        4.89790        8.82300
H          9.40700        3.51500        5.30320
H          0.48720        8.88540        0.87480
H          2.54980       10.14990        0.49150
H          4.86480       10.02920       -0.84800
H          5.81270        8.57850       -0.49040
H          5.29480        9.65140        0.81480
H          4.60790        6.53280       -0.44580
H          2.53790        5.26300       -0.09780
H         -0.26720        7.68840       -1.44740
H         -2.39780        8.76330       -2.02420
H         -4.66410        9.69810       -0.47910
H         -5.58530        8.22980       -0.15380
H         -4.95580        8.55240       -1.78200
H         -4.24220        6.93560        1.35560
H         -2.10190        5.93490        1.99140
H         -0.33630       -0.46630        4.80820
H          1.88710       -1.08490        5.64140
H          4.60550       -0.05450        4.95400
H          4.98440       -1.08610        3.57540
H          4.23840       -1.77510        5.02970
H          3.59430       -0.08600        1.86280
H          1.36180        0.48660        1.00840
H         -1.22220       -2.06490        2.81830
H         -3.31880       -3.17030        3.48220
H         -6.51490       -1.31580        4.15190
H         -5.58470       -2.65700        4.83050
H         -6.07190       -2.69910        3.14070
H         -5.27990        0.61660        3.55780
H         -3.20560        1.71340        2.87740
H         -5.39050       -0.02120        1.06790
H         -7.63940       -0.81460        1.52610
H         -9.50410       -2.21430        1.21170
H         -9.78870       -0.92860        2.43090
H        -11.16070       -1.74410        1.65150
H         -9.13700        1.57480       -1.69060
H         -6.85850        2.35630       -2.17040
H         -5.85270        3.96710       -0.40800
H         -5.44850        6.04680       -1.66110
H         -1.97270        5.94280       -5.24030
H         -1.35890        6.32510       -3.59750
H         -1.77100        7.63140       -4.73540
H         -2.38620        4.09110       -3.91330
H         -2.81230        2.02390       -2.70140
H          0.81090       -3.40630       -1.89140
H          2.30890       -3.54150        0.03220
H          4.02440       -3.92630        3.21610
H          3.51100       -2.83770        1.90920
H          3.65620       -4.60670        1.61660
H         -1.02710       -4.39290        2.56870
H         -2.55010       -4.15730        0.63110
H         -2.33970       -2.78290       -4.32680
H         -2.03740       -4.05240       -6.37060
H         -1.33350       -5.02750       -8.40410
H         -2.88980       -5.70040       -7.80880
H         -1.90620       -6.61430       -8.96900
H         -0.37460       -7.28940       -4.11490
H         -0.72640       -6.02040       -2.04280
H         -6.21550       -3.09520       -4.23000
H         -4.00310       -7.17550       -3.09960
H         -5.31170       -6.62460       -6.76010
H         -4.09640      -11.52870       -8.54880
H         -3.22040      -12.66030      -10.56500
H         -0.97150      -12.10670      -11.40820
H          0.39740      -10.40900      -10.25690
H         -0.47990       -9.27600       -8.24220
