248

C          2.42750        6.90600       -5.49780
C          2.97100        6.62190       -6.72820
C          3.76870        5.44330       -7.09800
O          4.43400        4.72550       -6.37370
C          3.63150        5.30450       -8.56150
C          4.09430        4.25870       -9.35660
C          3.80100        4.39930      -10.69210
C          3.09840        5.49850      -11.20200
C          2.64050        6.54020      -10.42990
C          2.93020        6.41570       -9.06880
C          2.62670        7.30960       -7.95360
C          2.20680        8.61040       -8.06720
C          2.21170        9.53660       -7.00730
N          2.27740       10.37460       -6.22420
C          1.84840        9.22850       -9.28110
N          1.52520        9.78490      -10.23270
C          3.15640        4.98100      -12.61800
C          4.18740        5.64600      -13.55390
C          4.35420        4.64670      -14.67580
C          5.02280        3.60680      -14.19370
C          5.31820        3.88550      -12.73750
C          5.49730        5.40810      -12.79150
C          3.94260        3.75610      -12.04980
C          2.55990        6.20930       -4.28910
C          1.65120        6.28870       -3.20730
N          0.53240        7.08540       -3.15240
C          0.59700        8.44970       -3.49750
C         -0.44880        9.04900       -4.19290
C         -0.40650       10.40110       -4.47000
C          0.66970       11.18200       -4.06720
C          0.73270       12.63910       -4.39310
C          1.71280       10.57000       -3.37930
C          1.68500        9.22100       -3.09690
C         -0.65070        6.58430       -2.58480
C         -1.49400        7.41540       -1.85010
C         -2.67260        6.92450       -1.32890
C         -3.03490        5.59250       -1.49900
C         -4.32430        5.08490       -0.93140
C         -2.18420        4.76650       -2.22230
C         -1.01310        5.25220       -2.77120
C          1.99040        5.36480       -2.20250
S          1.29480        4.94450       -0.67240
C          2.56730        3.74810       -0.40380
C          3.52570        3.75510       -1.40630
N          4.71530        3.05240       -1.44090
C          5.59320        2.96520       -0.35900
C          5.39270        3.68090        0.81930
C          6.28100        3.56630        1.87150
C          7.40550        2.75880        1.78480
C          8.37470        2.63780        2.92040
C          7.61800        2.06990        0.59670
C          6.72930        2.15920       -0.45280
C          5.13700        2.67350       -2.73970
C          4.29470        1.88540       -3.51470
C          4.65330        1.55020       -4.80680
C          5.85160        1.98920       -5.35050
C          6.23950        1.66120       -6.75840
C          6.68980        2.77270       -4.56460
C          6.34090        3.11970       -3.27640
C          3.15790        4.65610       -2.44480
S          3.83650        5.03010       -3.98270
C          2.33880        2.84220        0.67510
C          2.50690        1.47350        0.70720
N          3.10950        0.67960       -0.29610
C          2.13090       -0.06860       -0.99590
C          2.10810       -1.46000       -0.98050
C          1.07900       -2.15660       -1.58320
C          0.04500       -1.47060       -2.20510
S         -1.33580       -2.27000       -2.96490
C         -1.33380       -3.92000       -2.20760
C          0.07430       -0.07870       -2.24420
C          1.10230        0.61510       -1.64380
C          4.34240        0.08250       -0.00270
C          4.91820        0.15510        1.26470
C          6.13840       -0.43360        1.50990
C          6.81780       -1.10480        0.49850
S          8.38470       -1.80040        0.93350
C          8.99980       -2.50210       -0.62350
C          6.25570       -1.17290       -0.76820
C          5.03250       -0.58190       -1.01410
C          1.80220        0.89960        1.78700
S          1.46400       -0.73110        2.22070
C          0.30810       -0.19490        3.44190
C          0.28370        1.19080        3.56430
N         -0.49970        1.93460        4.43490
C         -1.04930        3.12130        3.92760
C         -1.00920        4.30640        4.66000
C         -1.47560        5.47810        4.10070
C         -1.96760        5.48110        2.80450
S         -2.46320        7.02070        2.05070
C         -0.80350        7.58540        1.56560
C         -2.04270        4.30330        2.08000
C         -1.59560        3.12610        2.64370
C         -0.56230        1.64080        5.79960
C          0.49060        0.99700        6.44410
C          0.41070        0.68450        7.78810
C         -0.72600        1.01360        8.51140
S         -0.94350        0.66170       10.22820
C          0.41860       -0.47420       10.61440
C         -1.77660        1.67330        7.87410
C         -1.69820        1.98400        6.53750
C          1.12010        1.79600        2.59060
S          1.39540        3.41850        2.04610
C         -0.52220       -1.22290        3.97050
C         -0.68690       -2.43870        3.35870
C         -1.61220       -3.29070        3.99170
C         -2.06590       -4.54750        3.53940
C         -1.48070       -5.17470        2.37580
C         -0.16470       -5.21220        1.99670
C          0.06270       -5.92120        0.80620
C         -1.08770       -6.42730        0.26750
S         -1.20530       -7.34150       -1.21320
C         -2.93550       -7.93590       -1.10590
C         -3.21790       -8.90160       -2.23870
S         -2.47680       -6.02800        1.22840
C         -3.10570       -5.12420        4.25930
C         -3.64900       -4.53980        5.43680
C         -3.17180       -3.28750        5.91150
C         -3.68740       -2.63870        7.08970
C         -3.01860       -1.81350        7.96090
C         -3.80960       -1.31410        9.00260
C         -5.10890       -1.74160        8.93360
S         -6.37570       -1.32980       10.05210
C         -7.72640       -2.42650        9.47100
C         -8.92990       -2.28270       10.37960
S         -5.36210       -2.77880        7.56770
C         -2.17150       -2.69500        5.14820
S         -1.51400       -1.09490        5.40600
C         -4.63340       -5.36550        5.99320
C         -4.89300       -6.51870        5.27270
S         -3.86540       -6.63940        3.86360
C         -5.90230       -7.41710        5.66530
C         -6.35350       -8.56420        5.07280
C         -5.81650       -9.18570        3.85120
O         -4.90370       -8.79010        3.15000
C         -6.60530      -10.41070        3.63390
C         -6.45030      -11.33110        2.59950
C         -7.33090      -12.38440        2.65160
C         -8.29150      -12.51610        3.66320
C         -8.45240      -11.61760        4.69100
C         -7.57070      -10.53240        4.65340
C         -7.44810       -9.38620        5.55250
C         -8.25840       -9.13730        6.63210
C         -9.31880       -9.97130        7.04410
N        -10.19840      -10.59440        7.44060
C         -8.18510       -8.01800        7.48700
N         -8.21330       -7.13990        8.22850
C         -8.83510      -13.80120        3.09010
C        -10.16590      -13.70050        2.31480
C        -10.19710      -14.96330        1.48460
C         -9.28820      -14.83860        0.52600
C         -8.62740      -13.48920        0.69220
C         -9.81500      -12.67800        1.22620
C         -7.76470      -13.65380        1.96160
H          1.71220        7.72220       -5.47140
H          4.62270        3.42360       -8.92450
H          2.09320        7.37640      -10.83230
H          2.19580        4.80540      -13.09870
H          3.95120        6.66760      -13.83850
H          3.93460        4.77020      -15.65690
H          5.27260        2.68810      -14.69150
H          6.11350        3.30300      -12.27970
H          5.53410        5.88570      -11.81420
H          6.37060        5.69980      -13.37270
H          3.50640        2.76410      -12.15370
H         -1.29000        8.44890       -4.50880
H         -1.22080       10.85450       -5.01630
H          1.39530       12.78170       -5.24600
H         -0.24930       13.02730       -4.65150
H          1.13340       13.20780       -3.55660
H          2.55860       11.16180       -3.06370
H          2.49660        8.75380       -2.55770
H         -1.22000        8.44770       -1.69190
H         -3.31780        7.58040       -0.76440
H         -5.15490        5.38310       -1.57180
H         -4.32450        3.99930       -0.86250
H         -4.49880        5.50850        0.05610
H         -2.44580        3.72870       -2.37290
H         -0.37930        4.60140       -3.35650
H          4.54930        4.34610        0.91860
H          6.09340        4.12690        2.77660
H          9.24540        3.26960        2.74200
H          8.72300        1.61140        3.01720
H          7.91760        2.94730        3.85720
H          8.49130        1.44200        0.49800
H          6.90830        1.58910       -1.35040
H          3.35490        1.54790       -3.10190
H          3.98380        0.94420       -5.40060
H          7.21560        1.17830       -6.78780
H          6.30590        2.58210       -7.33610
H          5.50840        1.00460       -7.22370
H          7.61950        3.13440       -4.97880
H          6.98720        3.75130       -2.68480
H          2.89050       -2.00240       -0.47110
H          1.08470       -3.23430       -1.54370
H         -0.52900       -4.52900       -2.60890
H         -2.28930       -4.36380       -2.46900
H         -1.25180       -3.82410       -1.12910
H         -0.72610        0.45020       -2.73870
H          1.10260        1.69530       -1.65330
H          4.41820        0.68190        2.06240
H          6.57770       -0.38000        2.49400
H          8.33980       -3.29590       -0.96130
H          9.97900       -2.91070       -0.39380
H          9.09220       -1.72000       -1.37160
H          6.75910       -1.67610       -1.57830
H          4.60680       -0.62920       -2.00540
H         -0.59350        4.30660        5.65640
H         -1.43860        6.39990        4.66130
H         -0.38530        6.88570        0.84710
H         -0.92510        8.56350        1.11310
H         -0.17450        7.65300        2.44830
H         -2.43470        4.31620        1.07580
H         -1.64750        2.20340        2.08410
H          1.38120        0.73820        5.89050
H          1.24610        0.18840        8.25560
H          0.40020       -1.31550        9.92790
H          0.23330       -0.81940       11.62680
H          1.36970        0.04910       10.57400
H         -2.65890        1.92600        8.44130
H         -2.52380        2.47610        6.04680
H         -0.19900       -2.68350        2.43330
H          0.62840       -4.78890        2.58660
H          1.03160       -6.07150        0.36660
H         -3.58320       -7.05990       -1.15860
H         -3.05260       -8.41420       -0.13300
H         -3.07330       -8.41590       -3.20110
H         -2.55280       -9.76020       -2.18250
H         -4.24620       -9.25000       -2.17390
H         -1.96750       -1.60550        7.88030
H         -3.44550       -0.66990        9.78120
H         -7.96370       -2.13610        8.44690
H         -7.34350       -3.44730        9.48120
H         -9.72270       -2.94460       10.03920
H         -8.66950       -2.54730       11.40170
H         -9.29790       -1.25930       10.36990
H         -5.16310       -5.15210        6.90350
H         -6.39590       -7.11400        6.58060
H         -5.69180      -11.19280        1.84480
H         -9.19270      -11.73940        5.46350
H         -8.78770      -14.67020        3.74350
H        -11.03720      -13.49770        2.93130
H        -10.81720      -15.81190        1.70630
H         -8.99730      -15.56210       -0.21300
H         -8.09790      -13.09420       -0.17080
H         -9.54540      -11.69580        1.60990
H        -10.60830      -12.57500        0.48760
H         -7.00310      -14.42510        1.86180
