172

C          7.61640        0.20630       -4.26920
C          8.51080       -0.71330       -4.74440
C          9.90630       -0.64070       -4.25250
O         10.43730        0.30580       -3.70580
C         10.47520       -1.97970       -4.48990
C         11.70000       -2.46910       -4.04470
C         11.92060       -3.79000       -4.35400
C         10.99710       -4.56900       -5.06270
C          9.79180       -4.09430       -5.52510
C          9.54550       -2.75730       -5.21120
C          8.38210       -1.92350       -5.51110
C          7.47040       -2.14930       -6.51270
C          7.42030       -3.32070       -7.29140
N          7.31340       -4.26380       -7.93850
C          6.53070       -1.18200       -6.92080
N          5.76230       -0.41550       -7.29610
C         11.85210       -5.80800       -4.97240
C         11.44480       -6.88390       -3.93470
C         10.69550       -6.16310       -2.84160
C         11.56890       -5.42380       -2.17120
C         12.92530       -5.63240       -2.79860
C         12.79770       -7.09960       -3.23810
C         12.88200       -4.93940       -4.18370
C          6.23050        0.12440       -4.07450
C          5.30800       -0.89560       -4.27750
C          4.07540       -0.65370       -3.67990
O          2.97180       -1.42650       -3.69220
C          2.91110       -2.49190       -4.62910
C          1.46980       -2.96920       -4.68560
C          4.05120        0.52630       -2.92250
S          5.50460        1.42370       -3.16000
C          3.01750        0.90020       -2.03390
C          3.10360        1.64590       -0.85660
N          4.27990        2.02780       -0.23370
C          4.30960        3.22840        0.48610
C          5.00580        3.31890        1.69210
C          5.01620        4.49980        2.39760
C          4.32710        5.61600        1.92390
S          4.40920        7.06670        2.92480
C          3.39680        8.27800        2.02920
C          3.63530        5.53080        0.72390
C          3.63190        4.34760        0.01120
C          5.39570        1.18140       -0.26560
C          6.68590        1.70440       -0.35260
C          7.77570        0.87650       -0.54200
C          7.59680       -0.49650       -0.64950
S          8.89000       -1.64130       -1.01030
C         10.40760       -0.68420       -0.74380
C          6.31760       -1.02980       -0.49150
C          5.23420       -0.20630       -0.29170
C          1.81790        1.83770       -0.29820
S          1.22780        2.64030        1.11710
C         -0.40860        2.08480        0.77270
C         -0.46740        1.26390       -0.34700
N         -1.55960        0.52320       -0.76290
C         -1.66600        0.19350       -2.12200
C         -1.39080        1.14460       -3.10020
C         -1.41600        0.80660       -4.43940
C         -1.72110       -0.49240       -4.81970
S         -1.73290       -1.05250       -6.49470
C         -0.88790        0.27900       -7.39500
C         -2.04470       -1.43540       -3.84510
C         -2.01860       -1.09880       -2.51130
C         -2.48040       -0.00200        0.15560
C         -2.07530       -0.42980        1.42070
C         -3.01190       -0.79860        2.36020
C         -4.37210       -0.76690        2.05800
S         -5.47970       -1.15970        3.37450
C         -7.11560       -1.17780        2.59130
C         -4.77510       -0.41830        0.77580
C         -3.83610       -0.04300       -0.16450
C          0.80260        1.17730       -0.97210
S          1.39310        0.30840       -2.34520
C         -1.46300        2.39920        1.68050
S         -3.08370        2.72310        1.07970
C         -3.70030        2.61440        2.68520
C         -4.90470        2.50860        3.37200
C         -4.56310        2.32760        4.74120
N         -3.19760        2.31850        4.88320
C         -2.47180        2.21390        6.12180
C         -2.26670        3.58260        6.76810
C         -2.66220        2.47940        3.63470
C         -1.39360        2.37640        3.05650
C         -5.66460        2.12420        5.54760
C         -6.85750        2.09840        4.81590
S         -6.59210        2.36550        3.09140
C         -8.09150        1.87500        5.43590
C         -9.34250        1.68300        4.90180
C         -9.66200        1.55310        3.47830
O         -8.90830        1.68990        2.52770
C        -11.08530        1.18010        3.40490
C        -11.82420        0.91250        2.25550
C        -13.13430        0.57600        2.49880
C        -13.67000        0.51250        3.79140
C        -12.95260        0.78020        4.93350
C        -11.61660        1.12160        4.70880
C        -10.55620        1.45950        5.65840
C        -10.71840        1.57380        7.01670
C         -9.71810        1.94640        7.93790
N         -8.97190        2.24960        8.75800
C        -11.93190        1.35100        7.69920
N        -12.87890        1.18420        8.32760
C        -15.03170        0.09780        3.29330
C        -15.42470       -1.39440        3.42660
C        -14.13730       -2.18040        3.41900
C        -13.63230       -2.11860        2.19410
C        -14.56900       -1.28880        1.35150
C        -15.91410       -1.66260        1.99440
C        -14.43560        0.17080        1.85220
H          8.08270        1.07270       -3.80870
H         12.38770       -1.83890       -3.50250
H          9.08330       -4.70260       -6.06370
H         12.16870       -6.24210       -5.91860
H         10.95490       -7.75660       -4.35830
H          9.63090       -6.21500       -2.70780
H         11.37490       -4.73680       -1.36830
H         13.78390       -5.36650       -2.18710
H         12.73300       -7.78750       -2.39620
H         13.58830       -7.42010       -3.91530
H         13.87290       -4.80720       -4.61380
H          5.54710       -1.81610       -4.77400
H          3.57540       -3.30540       -4.30640
H          3.24140       -2.13710       -5.61370
H          1.14740       -3.29620       -3.70100
H          1.38200       -3.79430       -5.38580
H          0.81990       -2.15950       -5.00510
H          5.52920        2.45460        2.07220
H          5.55070        4.57240        3.33220
H          3.41650        9.17860        2.63510
H          3.83310        8.48050        1.05540
H          2.37690        7.91560        1.93990
H          3.10000        6.37740        0.32600
H          3.10510        4.29190       -0.92990
H          6.82870        2.77370       -0.31690
H          8.75380        1.31710       -0.64630
H         11.21400       -1.41120       -0.75470
H         10.36240       -0.19400        0.22380
H         10.54700        0.02930       -1.55250
H          6.18710       -2.10030       -0.53440
H          4.25010       -0.63470       -0.17500
H         -1.15240        2.15630       -2.80670
H         -1.19580        1.56530       -5.17270
H          0.06450        0.49410       -6.91970
H         -1.51700        1.16340       -7.43920
H         -0.72360       -0.10350       -8.39760
H         -2.29600       -2.43940       -4.15090
H         -2.24920       -1.83790       -1.75880
H         -1.02480       -0.45400        1.66850
H         -2.70140       -1.10700        3.34700
H         -7.12230       -1.89490        1.77570
H         -7.80350       -1.49860        3.36840
H         -7.38630       -0.18160        2.25200
H         -5.81820       -0.39820        0.50700
H         -4.15720        0.26520       -1.14800
H         -1.50550        1.74830        5.91210
H         -3.03510        1.56080        6.79360
H         -3.22690        4.04770        6.97800
H         -1.71840        3.47690        7.69990
H         -1.70410        4.23310        6.10240
H         -0.47180        2.21200        3.58440
H         -5.64730        1.97500        6.61230
H         -8.01530        1.81890        6.51520
H        -11.37130        0.97510        1.27820
H        -13.38200        0.72640        5.91980
H        -15.85420        0.76620        3.53990
H        -16.11260       -1.60870        4.24000
H        -13.71020       -2.63820        4.29200
H        -12.69850       -2.51430        1.83920
H        -14.47880       -1.40730        0.27470
H        -16.18480       -2.70450        1.82970
H        -16.73570       -1.01630        1.68870
H        -14.86810        0.88890        1.15810
