
  xtb     02162203253D
 energy: -325.969979101748 gnorm: 0.000393003526 xtb: 6.4.1 (unknown)
203223  0     0  0            999 V2000
    2.8003    5.6782   -4.8056 C   0  0  0  0  0  0  0  0  0  0  0  0
    4.1356    5.8951   -5.0666 C   0  0  0  0  0  0  0  0  0  0  0  0
    5.2130    4.9128   -4.9398 C   0  0  0  0  0  0  0  0  0  0  0  0
    5.1252    3.7483   -4.5850 O   0  0  0  0  0  0  0  0  0  0  0  0
    6.4495    5.5986   -5.3599 C   0  0  0  0  0  0  0  0  0  0  0  0
    7.7404    5.0781   -5.3613 C   0  0  0  0  0  0  0  0  0  0  0  0
    8.7029    5.9705   -5.7699 C   0  0  0  0  0  0  0  0  0  0  0  0
    8.4006    7.2812   -6.1580 C   0  0  0  0  0  0  0  0  0  0  0  0
    7.1289    7.8046   -6.1681 C   0  0  0  0  0  0  0  0  0  0  0  0
    6.1365    6.9162   -5.7478 C   0  0  0  0  0  0  0  0  0  0  0  0
    4.6979    7.1231   -5.5719 C   0  0  0  0  0  0  0  0  0  0  0  0
    4.0355    8.3029   -5.8193 C   0  0  0  0  0  0  0  0  0  0  0  0
    2.6868    8.5712   -5.5195 C   0  0  0  0  0  0  0  0  0  0  0  0
    1.6125    8.9014   -5.2736 N   0  0  0  0  0  0  0  0  0  0  0  0
    4.6270    9.4461   -6.3916 C   0  0  0  0  0  0  0  0  0  0  0  0
    5.0276   10.4104   -6.8717 N   0  0  0  0  0  0  0  0  0  0  0  0
    9.8463    7.6238   -6.4180 C   0  0  0  0  0  0  0  0  0  0  0  0
   10.5845    8.4774   -5.3573 C   0  0  0  0  0  0  0  0  0  0  0  0
    9.8941    8.2181   -4.0413 C   0  0  0  0  0  0  0  0  0  0  0  0
   10.1809    6.9772   -3.6714 C   0  0  0  0  0  0  0  0  0  0  0  0
   11.0705    6.3751   -4.7308 C   0  0  0  0  0  0  0  0  0  0  0  0
   11.8496    7.6246   -5.1714 C   0  0  0  0  0  0  0  0  0  0  0  0
   10.1841    6.1628   -5.9834 C   0  0  0  0  0  0  0  0  0  0  0  0
    2.1626    4.5899   -4.2160 C   0  0  0  0  0  0  0  0  0  0  0  0
    0.7720    4.5830   -3.9303 C   0  0  0  0  0  0  0  0  0  0  0  0
   -0.1434    5.4719   -4.4217 N   0  0  0  0  0  0  0  0  0  0  0  0
   -0.0833    5.9700   -5.7359 C   0  0  0  0  0  0  0  0  0  0  0  0
   -0.5560    7.2498   -6.0159 C   0  0  0  0  0  0  0  0  0  0  0  0
   -0.5133    7.7336   -7.3078 C   0  0  0  0  0  0  0  0  0  0  0  0
    0.0045    6.9687   -8.3465 C   0  0  0  0  0  0  0  0  0  0  0  0
    0.0706    7.5244   -9.7357 C   0  0  0  0  0  0  0  0  0  0  0  0
    0.4618    5.6882   -8.0585 C   0  0  0  0  0  0  0  0  0  0  0  0
    0.4136    5.1853   -6.7738 C   0  0  0  0  0  0  0  0  0  0  0  0
   -1.2690    5.7805   -3.6303 C   0  0  0  0  0  0  0  0  0  0  0  0
   -2.5477    5.7702   -4.1756 C   0  0  0  0  0  0  0  0  0  0  0  0
   -3.6389    6.0596   -3.3794 C   0  0  0  0  0  0  0  0  0  0  0  0
   -3.4850    6.3589   -2.0319 C   0  0  0  0  0  0  0  0  0  0  0  0
   -4.6649    6.6528   -1.1587 C   0  0  0  0  0  0  0  0  0  0  0  0
   -2.2001    6.3775   -1.4993 C   0  0  0  0  0  0  0  0  0  0  0  0
   -1.1016    6.0967   -2.2844 C   0  0  0  0  0  0  0  0  0  0  0  0
    0.4476    3.5266   -3.0603 C   0  0  0  0  0  0  0  0  0  0  0  0
   -0.9997    3.0382   -2.2430 S   0  0  0  0  0  0  0  0  0  0  0  0
   -0.1572    1.6720   -1.5481 C   0  0  0  0  0  0  0  0  0  0  0  0
    1.1782    1.6118   -1.9107 C   0  0  0  0  0  0  0  0  0  0  0  0
    2.1045    0.6902   -1.4577 N   0  0  0  0  0  0  0  0  0  0  0  0
    3.1209    0.2852   -2.3372 C   0  0  0  0  0  0  0  0  0  0  0  0
    4.4138    0.0718   -1.8699 C   0  0  0  0  0  0  0  0  0  0  0  0
    5.4149   -0.2930   -2.7479 C   0  0  0  0  0  0  0  0  0  0  0  0
    5.1601   -0.4485   -4.1048 C   0  0  0  0  0  0  0  0  0  0  0  0
    6.2578   -0.7925   -5.0635 C   0  0  0  0  0  0  0  0  0  0  0  0
    3.8623   -0.2505   -4.5598 C   0  0  0  0  0  0  0  0  0  0  0  0
    2.8500    0.1052   -3.6917 C   0  0  0  0  0  0  0  0  0  0  0  0
    1.9977    0.1109   -0.1888 C   0  0  0  0  0  0  0  0  0  0  0  0
    2.2657   -1.2443   -0.0037 C   0  0  0  0  0  0  0  0  0  0  0  0
    2.0564   -1.8348    1.2252 C   0  0  0  0  0  0  0  0  0  0  0  0
    1.5863   -1.0990    2.3068 C   0  0  0  0  0  0  0  0  0  0  0  0
    1.3252   -1.7636    3.6231 C   0  0  0  0  0  0  0  0  0  0  0  0
    1.3835    0.2640    2.1335 C   0  0  0  0  0  0  0  0  0  0  0  0
    1.5908    0.8673    0.9088 C   0  0  0  0  0  0  0  0  0  0  0  0
    1.5153    2.6854   -2.7741 C   0  0  0  0  0  0  0  0  0  0  0  0
    2.9838    3.1796   -3.5393 S   0  0  0  0  0  0  0  0  0  0  0  0
   -0.8232    0.7950   -0.6094 C   0  0  0  0  0  0  0  0  0  0  0  0
   -1.4930    1.2754    0.4990 C   0  0  0  0  0  0  0  0  0  0  0  0
   -1.6454    2.6018    0.6675 F   0  0  0  0  0  0  0  0  0  0  0  0
   -1.9548    0.4411    1.5212 C   0  0  0  0  0  0  0  0  0  0  0  0
   -2.5502    1.0426    2.5691 F   0  0  0  0  0  0  0  0  0  0  0  0
   -1.7812   -0.9339    1.4921 C   0  0  0  0  0  0  0  0  0  0  0  0
   -1.1938   -1.4597    0.3037 C   0  0  0  0  0  0  0  0  0  0  0  0
   -1.0610   -2.7852    0.1854 N   0  0  0  0  0  0  0  0  0  0  0  0
   -0.5647   -3.3031   -0.9104 C   0  0  0  0  0  0  0  0  0  0  0  0
   -0.5059   -4.7997   -0.9531 C   0  0  0  0  0  0  0  0  0  0  0  0
   -1.8812   -5.3621   -1.3221 C   0  0  0  0  0  0  0  0  0  0  0  0
   -0.1910   -2.4575   -1.9920 C   0  0  0  0  0  0  0  0  0  0  0  0
   -0.2634   -1.1540   -1.8759 N   0  0  0  0  0  0  0  0  0  0  0  0
   -0.7370   -0.6179   -0.7387 C   0  0  0  0  0  0  0  0  0  0  0  0
    0.2902   -2.9861   -3.3105 C   0  0  0  0  0  0  0  0  0  0  0  0
    1.7892   -3.2954   -3.2893 C   0  0  0  0  0  0  0  0  0  0  0  0
   -2.1599   -1.8110    2.5613 C   0  0  0  0  0  0  0  0  0  0  0  0
   -2.3287   -3.5256    2.2636 S   0  0  0  0  0  0  0  0  0  0  0  0
   -2.8242   -3.7619    3.8907 C   0  0  0  0  0  0  0  0  0  0  0  0
   -3.2735   -4.8537    4.7081 C   0  0  0  0  0  0  0  0  0  0  0  0
   -3.5141   -4.3352    5.9988 C   0  0  0  0  0  0  0  0  0  0  0  0
   -3.1984   -2.8519    6.0597 C   0  0  0  0  0  0  0  0  0  0  0  0
   -4.3831   -1.9666    6.3856 C   0  0  0  0  0  0  0  0  0  0  0  0
   -5.6874   -2.4308    6.3046 C   0  0  0  0  0  0  0  0  0  0  0  0
   -6.7493   -1.5797    6.5558 C   0  0  0  0  0  0  0  0  0  0  0  0
   -6.5375   -0.2468    6.8777 C   0  0  0  0  0  0  0  0  0  0  0  0
   -7.6872    0.6667    7.1922 C   0  0  0  0  0  0  0  0  0  0  0  0
   -7.9310    0.7209    8.7017 C   0  0  0  0  0  0  0  0  0  0  0  0
   -5.2290    0.2163    6.9431 C   0  0  0  0  0  0  0  0  0  0  0  0
   -4.1656   -0.6293    6.6975 C   0  0  0  0  0  0  0  0  0  0  0  0
   -2.0577   -2.6869    7.0490 C   0  0  0  0  0  0  0  0  0  0  0  0
   -0.7413   -2.8530    6.6418 C   0  0  0  0  0  0  0  0  0  0  0  0
    0.2937   -2.7638    7.5534 C   0  0  0  0  0  0  0  0  0  0  0  0
    0.0419   -2.5220    8.8969 C   0  0  0  0  0  0  0  0  0  0  0  0
    1.1695   -2.3867    9.8792 C   0  0  0  0  0  0  0  0  0  0  0  0
    1.6186   -0.9277    9.9815 C   0  0  0  0  0  0  0  0  0  0  0  0
   -1.2777   -2.3685    9.3021 C   0  0  0  0  0  0  0  0  0  0  0  0
   -2.3160   -2.4545    8.3938 C   0  0  0  0  0  0  0  0  0  0  0  0
   -2.7892   -2.5933    4.6307 C   0  0  0  0  0  0  0  0  0  0  0  0
   -2.4328   -1.4798    3.8762 C   0  0  0  0  0  0  0  0  0  0  0  0
   -3.9260   -5.1703    7.0162 C   0  0  0  0  0  0  0  0  0  0  0  0
   -4.1454   -6.5071    6.7333 C   0  0  0  0  0  0  0  0  0  0  0  0
   -3.9878   -7.0151    5.4358 C   0  0  0  0  0  0  0  0  0  0  0  0
   -3.5126   -6.1835    4.4182 C   0  0  0  0  0  0  0  0  0  0  0  0
   -4.3102   -8.4050    5.2077 C   0  0  0  0  0  0  0  0  0  0  0  0
   -4.9405   -8.9279    4.1292 C   0  0  0  0  0  0  0  0  0  0  0  0
   -5.6732   -8.1531    3.0853 C   0  0  0  0  0  0  0  0  0  0  0  0
   -5.6335   -6.9584    2.8866 O   0  0  0  0  0  0  0  0  0  0  0  0
   -6.5173   -9.1417    2.3881 C   0  0  0  0  0  0  0  0  0  0  0  0
   -6.2675  -10.4181    2.8906 C   0  0  0  0  0  0  0  0  0  0  0  0
   -6.9629  -11.5286    2.3903 C   0  0  0  0  0  0  0  0  0  0  0  0
   -7.8895  -11.3350    1.4004 C   0  0  0  0  0  0  0  0  0  0  0  0
   -8.1640  -10.0557    0.8684 C   0  0  0  0  0  0  0  0  0  0  0  0
   -9.1195   -9.8681   -0.1506 C   0  0  0  0  0  0  0  0  0  0  0  0
   -9.3720   -8.6191   -0.6483 C   0  0  0  0  0  0  0  0  0  0  0  0
   -8.6812   -7.5023   -0.1519 C   0  0  0  0  0  0  0  0  0  0  0  0
   -7.7466   -7.6439    0.8366 C   0  0  0  0  0  0  0  0  0  0  0  0
   -7.4656   -8.9187    1.3694 C   0  0  0  0  0  0  0  0  0  0  0  0
   -5.2498  -10.3367    3.9288 C   0  0  0  0  0  0  0  0  0  0  0  0
   -4.6398  -11.3926    4.5485 C   0  0  0  0  0  0  0  0  0  0  0  0
   -3.5913  -11.2788    5.4879 C   0  0  0  0  0  0  0  0  0  0  0  0
   -2.7243  -11.2725    6.2403 N   0  0  0  0  0  0  0  0  0  0  0  0
   -4.9486  -12.7489    4.3098 C   0  0  0  0  0  0  0  0  0  0  0  0
   -5.1512  -13.8699    4.1685 N   0  0  0  0  0  0  0  0  0  0  0  0
    2.1339    6.4948   -5.0532 H   0  0  0  0  0  0  0  0  0  0  0  0
    7.9282    4.0623   -5.0497 H   0  0  0  0  0  0  0  0  0  0  0  0
    6.9156    8.8173   -6.4664 H   0  0  0  0  0  0  0  0  0  0  0  0
   10.0921    7.9231   -7.4351 H   0  0  0  0  0  0  0  0  0  0  0  0
   10.7187    9.5205   -5.6310 H   0  0  0  0  0  0  0  0  0  0  0  0
    9.2409    8.9216   -3.5589 H   0  0  0  0  0  0  0  0  0  0  0  0
    9.8144    6.4364   -2.8185 H   0  0  0  0  0  0  0  0  0  0  0  0
   11.6487    5.5039   -4.4335 H   0  0  0  0  0  0  0  0  0  0  0  0
   12.4153    7.4816   -6.0912 H   0  0  0  0  0  0  0  0  0  0  0  0
   12.5060    8.0087   -4.3918 H   0  0  0  0  0  0  0  0  0  0  0  0
   10.6526    5.5087   -6.7165 H   0  0  0  0  0  0  0  0  0  0  0  0
   -0.9440    7.8627   -5.2180 H   0  0  0  0  0  0  0  0  0  0  0  0
   -0.8730    8.7312   -7.5097 H   0  0  0  0  0  0  0  0  0  0  0  0
    0.7938    8.3386   -9.7783 H   0  0  0  0  0  0  0  0  0  0  0  0
   -0.8966    7.9252  -10.0342 H   0  0  0  0  0  0  0  0  0  0  0  0
    0.3693    6.7603  -10.4491 H   0  0  0  0  0  0  0  0  0  0  0  0
    0.8545    5.0692   -8.8524 H   0  0  0  0  0  0  0  0  0  0  0  0
    0.7637    4.1840   -6.5698 H   0  0  0  0  0  0  0  0  0  0  0  0
   -2.6809    5.5271   -5.2194 H   0  0  0  0  0  0  0  0  0  0  0  0
   -4.6281    6.0416   -3.8133 H   0  0  0  0  0  0  0  0  0  0  0  0
   -4.7252    5.9218   -0.3535 H   0  0  0  0  0  0  0  0  0  0  0  0
   -4.5668    7.6383   -0.7054 H   0  0  0  0  0  0  0  0  0  0  0  0
   -5.5904    6.6212   -1.7277 H   0  0  0  0  0  0  0  0  0  0  0  0
   -2.0611    6.6149   -0.4551 H   0  0  0  0  0  0  0  0  0  0  0  0
   -0.1069    6.1228   -1.8642 H   0  0  0  0  0  0  0  0  0  0  0  0
    4.6280    0.2041   -0.8195 H   0  0  0  0  0  0  0  0  0  0  0  0
    6.4169   -0.4449   -2.3730 H   0  0  0  0  0  0  0  0  0  0  0  0
    5.9014   -1.4711   -5.8360 H   0  0  0  0  0  0  0  0  0  0  0  0
    6.6124    0.1153   -5.5522 H   0  0  0  0  0  0  0  0  0  0  0  0
    7.0978   -1.2523   -4.5484 H   0  0  0  0  0  0  0  0  0  0  0  0
    3.6411   -0.3794   -5.6095 H   0  0  0  0  0  0  0  0  0  0  0  0
    1.8408    0.2409   -4.0517 H   0  0  0  0  0  0  0  0  0  0  0  0
    2.6138   -1.8351   -0.8371 H   0  0  0  0  0  0  0  0  0  0  0  0
    2.2410   -2.8931    1.3430 H   0  0  0  0  0  0  0  0  0  0  0  0
    2.2612   -1.9225    4.1598 H   0  0  0  0  0  0  0  0  0  0  0  0
    0.8586   -2.7350    3.4688 H   0  0  0  0  0  0  0  0  0  0  0  0
    0.6754   -1.1525    4.2448 H   0  0  0  0  0  0  0  0  0  0  0  0
    1.0527    0.8640    2.9692 H   0  0  0  0  0  0  0  0  0  0  0  0
    1.4289    1.9289    0.7927 H   0  0  0  0  0  0  0  0  0  0  0  0
   -0.2395   -5.1559    0.0427 H   0  0  0  0  0  0  0  0  0  0  0  0
    0.2414   -5.1432   -1.6665 H   0  0  0  0  0  0  0  0  0  0  0  0
   -2.1968   -5.0046   -2.3003 H   0  0  0  0  0  0  0  0  0  0  0  0
   -1.8477   -6.4484   -1.3441 H   0  0  0  0  0  0  0  0  0  0  0  0
   -2.6158   -5.0488   -0.5849 H   0  0  0  0  0  0  0  0  0  0  0  0
    0.1007   -2.2215   -4.0646 H   0  0  0  0  0  0  0  0  0  0  0  0
   -0.2687   -3.8854   -3.5737 H   0  0  0  0  0  0  0  0  0  0  0  0
    2.0890   -3.7335   -4.2383 H   0  0  0  0  0  0  0  0  0  0  0  0
    2.3584   -2.3811   -3.1423 H   0  0  0  0  0  0  0  0  0  0  0  0
    2.0377   -3.9938   -2.4930 H   0  0  0  0  0  0  0  0  0  0  0  0
   -5.8787   -3.4609    6.0414 H   0  0  0  0  0  0  0  0  0  0  0  0
   -7.7595   -1.9593    6.4930 H   0  0  0  0  0  0  0  0  0  0  0  0
   -8.5909    0.3105    6.6937 H   0  0  0  0  0  0  0  0  0  0  0  0
   -7.4695    1.6727    6.8274 H   0  0  0  0  0  0  0  0  0  0  0  0
   -8.1614   -0.2716    9.0831 H   0  0  0  0  0  0  0  0  0  0  0  0
   -7.0448    1.0870    9.2153 H   0  0  0  0  0  0  0  0  0  0  0  0
   -8.7632    1.3828    8.9302 H   0  0  0  0  0  0  0  0  0  0  0  0
   -5.0420    1.2533    7.1831 H   0  0  0  0  0  0  0  0  0  0  0  0
   -3.1548   -0.2521    6.7549 H   0  0  0  0  0  0  0  0  0  0  0  0
   -0.5223   -3.0564    5.6046 H   0  0  0  0  0  0  0  0  0  0  0  0
    1.3123   -2.8920    7.2155 H   0  0  0  0  0  0  0  0  0  0  0  0
    2.0136   -3.0013    9.5596 H   0  0  0  0  0  0  0  0  0  0  0  0
    0.8474   -2.7338   10.8630 H   0  0  0  0  0  0  0  0  0  0  0  0
    1.9541   -0.5667    9.0118 H   0  0  0  0  0  0  0  0  0  0  0  0
    2.4369   -0.8297   10.6911 H   0  0  0  0  0  0  0  0  0  0  0  0
    0.7940   -0.3005   10.3130 H   0  0  0  0  0  0  0  0  0  0  0  0
   -1.4965   -2.1848   10.3446 H   0  0  0  0  0  0  0  0  0  0  0  0
   -3.3349   -2.3317    8.7319 H   0  0  0  0  0  0  0  0  0  0  0  0
   -2.3690   -0.4811    4.2642 H   0  0  0  0  0  0  0  0  0  0  0  0
   -4.0801   -4.7892    8.0145 H   0  0  0  0  0  0  0  0  0  0  0  0
   -4.4843   -7.1700    7.5162 H   0  0  0  0  0  0  0  0  0  0  0  0
   -3.3133   -6.5711    3.4329 H   0  0  0  0  0  0  0  0  0  0  0  0
   -4.0730   -9.0695    6.0308 H   0  0  0  0  0  0  0  0  0  0  0  0
   -6.7818  -12.5165    2.7805 H   0  0  0  0  0  0  0  0  0  0  0  0
   -8.4366  -12.1798    1.0074 H   0  0  0  0  0  0  0  0  0  0  0  0
   -9.6491  -10.7298   -0.5305 H   0  0  0  0  0  0  0  0  0  0  0  0
  -10.1071   -8.4838   -1.4278 H   0  0  0  0  0  0  0  0  0  0  0  0
   -8.8954   -6.5250   -0.5581 H   0  0  0  0  0  0  0  0  0  0  0  0
   -7.2124   -6.7917    1.2255 H   0  0  0  0  0  0  0  0  0  0  0  0
  1  2  2  0  0  0  0
  2  3  1  0  0  0  0
  3  4  2  0  0  0  0
  3  5  1  0  0  0  0
  5  6  2  0  0  0  0
  6  7  1  0  0  0  0
  7  8  2  0  0  0  0
  8  9  1  0  0  0  0
  9 10  2  0  0  0  0
 10 11  1  0  0  0  0
 11 12  2  0  0  0  0
 12 13  1  0  0  0  0
 13 14  3  0  0  0  0
 12 15  1  0  0  0  0
 15 16  3  0  0  0  0
  8 17  1  0  0  0  0
 17 18  1  0  0  0  0
 18 19  1  0  0  0  0
 19 20  2  0  0  0  0
 20 21  1  0  0  0  0
 21 22  1  0  0  0  0
 21 23  1  0  0  0  0
  1 24  1  0  0  0  0
 24 25  2  0  0  0  0
 25 26  1  0  0  0  0
 26 27  1  0  0  0  0
 27 28  2  0  0  0  0
 28 29  1  0  0  0  0
 29 30  2  0  0  0  0
 30 31  1  0  0  0  0
 30 32  1  0  0  0  0
 32 33  2  0  0  0  0
 26 34  1  0  0  0  0
 34 35  2  0  0  0  0
 35 36  1  0  0  0  0
 36 37  2  0  0  0  0
 37 38  1  0  0  0  0
 37 39  1  0  0  0  0
 39 40  2  0  0  0  0
 25 41  1  0  0  0  0
 41 42  1  0  0  0  0
 42 43  1  0  0  0  0
 43 44  2  0  0  0  0
 44 45  1  0  0  0  0
 45 46  1  0  0  0  0
 46 47  2  0  0  0  0
 47 48  1  0  0  0  0
 48 49  2  0  0  0  0
 49 50  1  0  0  0  0
 49 51  1  0  0  0  0
 51 52  2  0  0  0  0
 45 53  1  0  0  0  0
 53 54  2  0  0  0  0
 54 55  1  0  0  0  0
 55 56  2  0  0  0  0
 56 57  1  0  0  0  0
 56 58  1  0  0  0  0
 58 59  2  0  0  0  0
 44 60  1  0  0  0  0
 60 61  1  0  0  0  0
 43 62  1  0  0  0  0
 62 63  2  0  0  0  0
 63 64  1  0  0  0  0
 63 65  1  0  0  0  0
 65 66  1  0  0  0  0
 65 67  2  0  0  0  0
 67 68  1  0  0  0  0
 68 69  2  0  0  0  0
 69 70  1  0  0  0  0
 70 71  1  0  0  0  0
 71 72  1  0  0  0  0
 70 73  2  0  0  0  0
 73 74  1  0  0  0  0
 74 75  2  0  0  0  0
 73 76  1  0  0  0  0
 76 77  1  0  0  0  0
 67 78  1  0  0  0  0
 78 79  1  0  0  0  0
 79 80  1  0  0  0  0
 80 81  1  0  0  0  0
 81 82  2  0  0  0  0
 82 83  1  0  0  0  0
 83 84  1  0  0  0  0
 84 85  2  0  0  0  0
 85 86  1  0  0  0  0
 86 87  2  0  0  0  0
 87 88  1  0  0  0  0
 88 89  1  0  0  0  0
 87 90  1  0  0  0  0
 90 91  2  0  0  0  0
 83 92  1  0  0  0  0
 92 93  2  0  0  0  0
 93 94  1  0  0  0  0
 94 95  2  0  0  0  0
 95 96  1  0  0  0  0
 96 97  1  0  0  0  0
 95 98  1  0  0  0  0
 98 99  2  0  0  0  0
 83100  1  0  0  0  0
100101  1  0  0  0  0
 82102  1  0  0  0  0
102103  2  0  0  0  0
103104  1  0  0  0  0
104105  2  0  0  0  0
104106  1  0  0  0  0
106107  2  0  0  0  0
107108  1  0  0  0  0
108109  2  0  0  0  0
108110  1  0  0  0  0
110111  2  0  0  0  0
111112  1  0  0  0  0
112113  2  0  0  0  0
113114  1  0  0  0  0
114115  2  0  0  0  0
115116  1  0  0  0  0
116117  2  0  0  0  0
117118  1  0  0  0  0
118119  2  0  0  0  0
111120  1  0  0  0  0
120121  2  0  0  0  0
121122  1  0  0  0  0
122123  3  0  0  0  0
121124  1  0  0  0  0
124125  3  0  0  0  0
 11  2  1  0  0  0  0
 23 17  1  0  0  0  0
 61 24  1  0  0  0  0
 75 62  1  0  0  0  0
101 78  2  0  0  0  0
120107  1  0  0  0  0
 10  5  1  0  0  0  0
 22 18  1  0  0  0  0
 33 27  1  0  0  0  0
 40 34  1  0  0  0  0
 60 41  2  0  0  0  0
 75 68  1  0  0  0  0
100 80  2  0  0  0  0
119110  1  0  0  0  0
 23  7  1  0  0  0  0
 52 46  1  0  0  0  0
 59 53  1  0  0  0  0
105 81  1  0  0  0  0
119114  1  0  0  0  0
 91 84  1  0  0  0  0
 99 92  1  0  0  0  0
  1126  1  0  0  0  0
  6127  1  0  0  0  0
  9128  1  0  0  0  0
 17129  1  0  0  0  0
 18130  1  0  0  0  0
 19131  1  0  0  0  0
 20132  1  0  0  0  0
 21133  1  0  0  0  0
 22134  1  0  0  0  0
 22135  1  0  0  0  0
 23136  1  0  0  0  0
 28137  1  0  0  0  0
 29138  1  0  0  0  0
 31139  1  0  0  0  0
 31140  1  0  0  0  0
 31141  1  0  0  0  0
 32142  1  0  0  0  0
 33143  1  0  0  0  0
 35144  1  0  0  0  0
 36145  1  0  0  0  0
 38146  1  0  0  0  0
 38147  1  0  0  0  0
 38148  1  0  0  0  0
 39149  1  0  0  0  0
 40150  1  0  0  0  0
 47151  1  0  0  0  0
 48152  1  0  0  0  0
 50153  1  0  0  0  0
 50154  1  0  0  0  0
 50155  1  0  0  0  0
 51156  1  0  0  0  0
 52157  1  0  0  0  0
 54158  1  0  0  0  0
 55159  1  0  0  0  0
 57160  1  0  0  0  0
 57161  1  0  0  0  0
 57162  1  0  0  0  0
 58163  1  0  0  0  0
 59164  1  0  0  0  0
 71165  1  0  0  0  0
 71166  1  0  0  0  0
 72167  1  0  0  0  0
 72168  1  0  0  0  0
 72169  1  0  0  0  0
 76170  1  0  0  0  0
 76171  1  0  0  0  0
 77172  1  0  0  0  0
 77173  1  0  0  0  0
 77174  1  0  0  0  0
 85175  1  0  0  0  0
 86176  1  0  0  0  0
 88177  1  0  0  0  0
 88178  1  0  0  0  0
 89179  1  0  0  0  0
 89180  1  0  0  0  0
 89181  1  0  0  0  0
 90182  1  0  0  0  0
 91183  1  0  0  0  0
 93184  1  0  0  0  0
 94185  1  0  0  0  0
 96186  1  0  0  0  0
 96187  1  0  0  0  0
 97188  1  0  0  0  0
 97189  1  0  0  0  0
 97190  1  0  0  0  0
 98191  1  0  0  0  0
 99192  1  0  0  0  0
101193  1  0  0  0  0
102194  1  0  0  0  0
103195  1  0  0  0  0
105196  1  0  0  0  0
106197  1  0  0  0  0
112198  1  0  0  0  0
113199  1  0  0  0  0
115200  1  0  0  0  0
116201  1  0  0  0  0
117202  1  0  0  0  0
118203  1  0  0  0  0
M  END
