174

C          0.55880       -6.61240       -6.29460
C          0.36450       -6.55420       -7.64170
C          0.08920       -5.39160       -8.52310
O         -0.27010       -4.27330       -8.21070
C          0.26250       -5.87630       -9.90220
C          0.21820       -5.10970      -11.06520
C          0.43940       -5.82640      -12.21560
C          0.69140       -7.20570      -12.21030
C          0.72890       -7.97430      -11.07200
C          0.49510       -7.26520       -9.88950
C          0.44630       -7.72870       -8.50700
C          0.42290       -9.04350       -8.12400
C          0.29510       -9.53200       -6.80550
N          0.18010      -10.03040       -5.77660
C          0.46960      -10.13270       -9.02130
N          0.50080      -11.06890       -9.68490
C          0.82820       -7.26690      -13.71060
C         -0.36150       -7.84140      -14.51850
C         -1.59820       -7.60130      -13.68860
C         -1.84180       -6.29750      -13.69320
C         -0.77400       -5.63240      -14.52620
C         -0.52100       -6.73180      -15.57010
C          0.54310       -5.73190      -13.71700
C          0.66780       -5.61740       -5.26840
C          0.77470       -4.23510       -5.48140
C          0.92610       -3.36870       -4.42700
C          0.95140       -3.83210       -3.10500
C          0.88820       -5.21320       -2.88740
C          0.75220       -6.08120       -3.94120
C          1.06900       -2.91170       -2.00230
C          0.53530       -1.63720       -1.89150
N         -0.37600       -1.08400       -2.77700
C         -1.32840       -1.90890       -3.39350
C         -1.93350       -2.94100       -2.67910
C         -2.79760       -3.81020       -3.31120
C         -3.07050       -3.65660       -4.66240
S         -4.15100       -4.81420       -5.47630
C         -2.97210       -5.51930       -6.66890
C         -2.51690       -2.59820       -5.36730
C         -1.64920       -1.73050       -4.73860
C         -0.34260        0.28960       -3.03820
C          0.87330        0.97370       -3.08260
C          0.89920        2.32870       -3.32330
C         -0.28420        3.03240       -3.53730
S         -0.12220        4.76450       -3.83840
C         -1.82280        5.31750       -4.15090
C         -1.49540        2.35420       -3.50460
C         -1.52240        0.99680       -3.25310
C          0.96750       -1.00630       -0.69840
S          0.68370        0.53740        0.02810
C          1.73140        0.12140        1.37160
C          2.21000       -1.17310        1.29450
N          2.95740       -1.82690        2.26400
C          2.81330       -1.50940        3.62080
C          1.56480       -1.20730        4.15750
C          1.44350       -0.75320        5.45620
C          2.57210       -0.60940        6.25070
S          2.56270        0.05300        7.88700
C          0.86310        0.64110        8.11590
C          3.81210       -0.99690        5.74680
C          3.93420       -1.43940        4.45000
C          3.92200       -2.75980        1.85890
C          4.69480       -2.53820        0.71830
C          5.61880       -3.47450        0.31240
C          5.80250       -4.64830        1.03960
S          7.01490       -5.77200        0.41910
C          6.92050       -7.18920        1.54930
C          5.04940       -4.86470        2.18610
C          4.11590       -3.92990        2.58740
C          1.78110       -1.79860        0.09440
S          2.01500       -3.36600       -0.59410
C          1.95670        1.06860        2.44850
C          0.88490        1.75540        3.00550
C          1.10700        2.49520        4.15570
N          0.21280        3.15940        4.95730
C         -1.17230        3.42490        4.66580
C         -1.36980        4.83470        4.11210
C          0.89470        3.67380        6.03500
C          2.26590        3.31920        5.93820
C          2.40180        2.57030        4.73220
C          3.48210        1.95740        4.10560
C          3.25400        1.21720        2.97200
C          3.14720        3.67540        6.95650
C          2.66350        4.38520        8.02700
C          1.30970        4.78380        8.10400
C          0.41030        4.39600        7.10840
C          0.90270        5.54600        9.24990
C         -0.08810        6.47140        9.35890
C         -0.80720        7.16320        8.25650
O         -0.85820        6.87190        7.07950
C         -1.42480        8.35300        8.87280
C         -2.13970        9.35150        8.21440
C         -2.59970       10.34810        9.04030
C         -2.35400       10.36210       10.42060
C         -1.65020        9.38560       11.08290
C         -1.18680        8.35320       10.26160
C         -0.43140        7.15410       10.59860
C         -0.17950        6.69210       11.86250
C          0.43380        5.45550       12.15920
N          0.89380        4.45310       12.47880
C         -0.55440        7.36330       13.04520
N         -0.82670        7.85920       14.04420
C         -3.10440       11.65450       10.62170
C         -4.52440       11.57280       11.23420
C         -5.06150       10.20650       10.88690
C         -5.30120       10.18570        9.58260
C         -4.93090       11.53760        9.02440
C         -5.29490       12.43280       10.21970
C         -3.38590       11.63400        9.08620
H          0.70460       -7.61260       -5.90180
H          0.03050       -4.04820      -11.02190
H          0.92980       -9.03230      -11.08670
H          1.79010       -7.60850      -14.08760
H         -0.21440       -8.85620      -14.87810
H         -2.11870       -8.37360      -13.15320
H         -2.60720       -5.76240      -13.16220
H         -1.00320       -4.63570      -14.89420
H          0.37550       -6.56650      -16.16610
H         -1.37460       -6.89350      -16.22650
H          1.31720       -5.07050      -14.10150
H          0.74710       -3.84050       -6.48190
H          1.05720       -2.31570       -4.62220
H          0.93650       -5.58860       -1.87560
H          0.69500       -7.14350       -3.75060
H         -1.71090       -3.06780       -1.63010
H         -3.26150       -4.61560       -2.76340
H         -3.55250       -6.10530       -7.37420
H         -2.44300       -4.72250       -7.18080
H         -2.27160       -6.15810       -6.13700
H         -2.74940       -2.46310       -6.41230
H         -1.20200       -0.91790       -5.29160
H          1.79760        0.43460       -2.93640
H          1.83850        2.85880       -3.35680
H         -2.43180        5.17250       -3.26330
H         -2.23440        4.78770       -5.00500
H         -1.74760        6.37680       -4.37600
H         -2.42860        2.86980       -3.66310
H         -2.46840        0.47710       -3.21800
H          0.68170       -1.30800        3.54430
H          0.46310       -0.50880        5.83260
H          0.60590        1.33450        7.32100
H          0.17600       -0.19970        8.15000
H          0.85970        1.15900        9.07010
H          4.68230       -0.91590        6.37970
H          4.90530       -1.70180        4.05780
H          4.56940       -1.62500        0.15520
H          6.21490       -3.30570       -0.57130
H          7.19900       -6.88530        2.55410
H          5.92180       -7.61540        1.52600
H          7.63810       -7.91080        1.17150
H          5.17120       -5.76060        2.77290
H          3.52580       -4.10630        3.47450
H         -0.09740        1.65610        2.56820
H         -1.51720        2.68240        3.94300
H         -1.75320        3.30150        5.58560
H         -2.41640        4.99270        3.86560
H         -0.77380        4.97070        3.21240
H         -1.06840        5.57660        4.84750
H          4.47510        2.04800        4.51720
H          4.07520        0.72820        2.47100
H          4.18440        3.38320        6.90640
H          3.33040        4.67110        8.82670
H         -0.63560        4.63050        7.19960
H          1.52070        5.38890       10.12740
H         -2.29800        9.30780        7.14800
H         -1.46180        9.41210       12.14330
H         -2.52570       12.48410       11.02270
H         -4.58170       11.85920       12.28070
H         -5.15450        9.40270       11.59360
H         -5.63480        9.36030        8.98110
H         -5.36040       11.79240        8.05900
H         -4.91260       13.44900       10.13320
H         -6.36560       12.45790       10.41640
H         -2.99770       12.45370        8.48450
