
  xtb     02062201273D
 energy: -274.853190967870 gnorm: 0.000753039203 xtb: 6.4.1 (unknown)
157175  0     0  0            999 V2000
   -7.4293    3.8210   -6.5684 C   0  0  0  0  0  0  0  0  0  0  0  0
   -8.2655    4.7904   -6.1009 C   0  0  0  0  0  0  0  0  0  0  0  0
   -8.2459    5.4077   -4.7517 C   0  0  0  0  0  0  0  0  0  0  0  0
   -7.6445    5.0417   -3.7620 O   0  0  0  0  0  0  0  0  0  0  0  0
   -9.0668    6.6269   -4.8602 C   0  0  0  0  0  0  0  0  0  0  0  0
   -9.2967    7.5668   -3.8561 C   0  0  0  0  0  0  0  0  0  0  0  0
  -10.1104    8.6059   -4.2374 C   0  0  0  0  0  0  0  0  0  0  0  0
  -10.6545    8.7081   -5.5255 C   0  0  0  0  0  0  0  0  0  0  0  0
  -10.4375    7.7899   -6.5244 C   0  0  0  0  0  0  0  0  0  0  0  0
   -9.6134    6.7216   -6.1558 C   0  0  0  0  0  0  0  0  0  0  0  0
   -9.1756    5.5653   -6.9287 C   0  0  0  0  0  0  0  0  0  0  0  0
   -9.6178    5.2225   -8.1786 C   0  0  0  0  0  0  0  0  0  0  0  0
  -10.5185    5.9914   -8.9455 C   0  0  0  0  0  0  0  0  0  0  0  0
  -11.2408    6.5686   -9.6260 N   0  0  0  0  0  0  0  0  0  0  0  0
   -9.2786    4.0341   -8.8615 C   0  0  0  0  0  0  0  0  0  0  0  0
   -9.0779    3.0814   -9.4702 N   0  0  0  0  0  0  0  0  0  0  0  0
  -11.3627   10.0017   -5.2113 C   0  0  0  0  0  0  0  0  0  0  0  0
  -10.7139   11.2931   -5.7534 C   0  0  0  0  0  0  0  0  0  0  0  0
  -11.3284   12.3868   -4.9101 C   0  0  0  0  0  0  0  0  0  0  0  0
  -10.8171   12.2904   -3.6894 C   0  0  0  0  0  0  0  0  0  0  0  0
   -9.8478   11.1302   -3.6873 C   0  0  0  0  0  0  0  0  0  0  0  0
   -9.3166   11.2277   -5.1233 C   0  0  0  0  0  0  0  0  0  0  0  0
  -10.7588    9.8872   -3.7747 C   0  0  0  0  0  0  0  0  0  0  0  0
   -6.5692    2.9688   -5.8328 C   0  0  0  0  0  0  0  0  0  0  0  0
   -5.1902    2.2801   -6.6867 S   0  0  0  0  0  0  0  0  0  0  0  0
   -4.6740    1.4507   -5.2541 C   0  0  0  0  0  0  0  0  0  0  0  0
   -3.5161    0.7201   -5.1056 C   0  0  0  0  0  0  0  0  0  0  0  0
   -3.2317    0.2010   -3.8455 C   0  0  0  0  0  0  0  0  0  0  0  0
   -2.0455   -0.4377   -3.4111 C   0  0  0  0  0  0  0  0  0  0  0  0
   -2.0259   -0.7042   -2.0750 C   0  0  0  0  0  0  0  0  0  0  0  0
   -3.5424   -0.2879   -1.2921 S   0  0  0  0  0  0  0  0  0  0  0  0
   -4.1555    0.3818   -2.7806 C   0  0  0  0  0  0  0  0  0  0  0  0
   -5.3304    1.0774   -2.9352 C   0  0  0  0  0  0  0  0  0  0  0  0
   -5.5859    1.6571   -4.1821 C   0  0  0  0  0  0  0  0  0  0  0  0
   -6.6435    2.5195   -4.5395 C   0  0  0  0  0  0  0  0  0  0  0  0
   -0.8863   -1.1059   -1.3084 C   0  0  0  0  0  0  0  0  0  0  0  0
    0.3920   -0.5786   -1.4248 C   0  0  0  0  0  0  0  0  0  0  0  0
    0.7564    0.4851   -2.2298 N   0  0  0  0  0  0  0  0  0  0  0  0
   -0.1569    1.5079   -2.5351 C   0  0  0  0  0  0  0  0  0  0  0  0
   -0.2343    2.0140   -3.8336 C   0  0  0  0  0  0  0  0  0  0  0  0
   -1.2100    2.9251   -4.1679 C   0  0  0  0  0  0  0  0  0  0  0  0
   -2.1342    3.3558   -3.2175 C   0  0  0  0  0  0  0  0  0  0  0  0
   -3.4155    4.4237   -3.7933 S   0  0  0  0  0  0  0  0  0  0  0  0
   -4.5765    4.5164   -2.4037 C   0  0  0  0  0  0  0  0  0  0  0  0
   -2.0088    2.9179   -1.9054 C   0  0  0  0  0  0  0  0  0  0  0  0
   -1.0279    2.0049   -1.5698 C   0  0  0  0  0  0  0  0  0  0  0  0
    2.0473    0.5228   -2.7763 C   0  0  0  0  0  0  0  0  0  0  0  0
    2.6666   -0.6421   -3.2192 C   0  0  0  0  0  0  0  0  0  0  0  0
    3.9487   -0.6089   -3.7338 C   0  0  0  0  0  0  0  0  0  0  0  0
    4.6297    0.5966   -3.8220 C   0  0  0  0  0  0  0  0  0  0  0  0
    6.2664    0.7671   -4.4590 S   0  0  0  0  0  0  0  0  0  0  0  0
    6.8301   -0.9452   -4.6744 C   0  0  0  0  0  0  0  0  0  0  0  0
    4.0035    1.7693   -3.4005 C   0  0  0  0  0  0  0  0  0  0  0  0
    2.7301    1.7352   -2.8814 C   0  0  0  0  0  0  0  0  0  0  0  0
    1.2821   -1.2377   -0.5378 C   0  0  0  0  0  0  0  0  0  0  0  0
    2.9663   -1.0721   -0.1881 S   0  0  0  0  0  0  0  0  0  0  0  0
    2.8607   -2.3633    0.9971 C   0  0  0  0  0  0  0  0  0  0  0  0
    1.5669   -2.8377    1.1655 C   0  0  0  0  0  0  0  0  0  0  0  0
    1.1592   -3.7455    2.1258 N   0  0  0  0  0  0  0  0  0  0  0  0
    0.1001   -4.6196    1.8398 C   0  0  0  0  0  0  0  0  0  0  0  0
   -0.8341   -4.9340    2.8221 C   0  0  0  0  0  0  0  0  0  0  0  0
   -1.8846   -5.7874    2.5488 C   0  0  0  0  0  0  0  0  0  0  0  0
   -2.0235   -6.3363    1.2806 C   0  0  0  0  0  0  0  0  0  0  0  0
   -3.3250   -7.4297    0.8077 S   0  0  0  0  0  0  0  0  0  0  0  0
   -4.3754   -7.5296    2.2847 C   0  0  0  0  0  0  0  0  0  0  0  0
   -1.0856   -6.0302    0.2966 C   0  0  0  0  0  0  0  0  0  0  0  0
   -0.0328   -5.1871    0.5721 C   0  0  0  0  0  0  0  0  0  0  0  0
    1.8159   -3.8248    3.3639 C   0  0  0  0  0  0  0  0  0  0  0  0
    2.0909   -5.0642    3.9350 C   0  0  0  0  0  0  0  0  0  0  0  0
    2.8490   -5.1619    5.0858 C   0  0  0  0  0  0  0  0  0  0  0  0
    3.3542   -4.0162    5.6843 C   0  0  0  0  0  0  0  0  0  0  0  0
    4.4430   -4.0166    7.0722 S   0  0  0  0  0  0  0  0  0  0  0  0
    4.5618   -5.7654    7.5430 C   0  0  0  0  0  0  0  0  0  0  0  0
    3.0200   -2.7693    5.1568 C   0  0  0  0  0  0  0  0  0  0  0  0
    2.2532   -2.6723    4.0184 C   0  0  0  0  0  0  0  0  0  0  0  0
    0.6821   -2.1998    0.2583 C   0  0  0  0  0  0  0  0  0  0  0  0
   -1.0154   -2.3194   -0.0472 S   0  0  0  0  0  0  0  0  0  0  0  0
    4.0199   -2.7880    1.7188 C   0  0  0  0  0  0  0  0  0  0  0  0
    5.1171   -1.6109    2.4200 S   0  0  0  0  0  0  0  0  0  0  0  0
    5.9477   -2.8672    3.2965 C   0  0  0  0  0  0  0  0  0  0  0  0
    6.9454   -2.6873    4.2224 C   0  0  0  0  0  0  0  0  0  0  0  0
    7.4281   -3.8172    4.8911 C   0  0  0  0  0  0  0  0  0  0  0  0
    8.3920   -3.8722    5.9166 C   0  0  0  0  0  0  0  0  0  0  0  0
    8.6114   -5.1396    6.4001 C   0  0  0  0  0  0  0  0  0  0  0  0
    7.6121   -6.3336    5.5636 S   0  0  0  0  0  0  0  0  0  0  0  0
    6.8979   -5.0998    4.5733 C   0  0  0  0  0  0  0  0  0  0  0  0
    5.9191   -5.2805    3.6228 C   0  0  0  0  0  0  0  0  0  0  0  0
    5.4174   -4.1493    2.9823 C   0  0  0  0  0  0  0  0  0  0  0  0
    4.3416   -4.0672    2.0686 C   0  0  0  0  0  0  0  0  0  0  0  0
    9.4056   -5.6287    7.4597 C   0  0  0  0  0  0  0  0  0  0  0  0
   10.4099   -5.0352    8.1715 C   0  0  0  0  0  0  0  0  0  0  0  0
   11.1368   -3.7823    7.8604 C   0  0  0  0  0  0  0  0  0  0  0  0
   10.8549   -2.9142    7.0640 O   0  0  0  0  0  0  0  0  0  0  0  0
   12.3426   -3.8083    8.7200 C   0  0  0  0  0  0  0  0  0  0  0  0
   13.3827   -2.9026    8.7507 C   0  0  0  0  0  0  0  0  0  0  0  0
   14.4192   -3.1454    9.6447 C   0  0  0  0  0  0  0  0  0  0  0  0
   15.7444   -2.0481    9.7253 Cl  0  0  0  0  0  0  0  0  0  0  0  0
   14.4072   -4.2612   10.4754 C   0  0  0  0  0  0  0  0  0  0  0  0
   13.3553   -5.1632   10.4406 C   0  0  0  0  0  0  0  0  0  0  0  0
   12.3100   -4.9371    9.5562 C   0  0  0  0  0  0  0  0  0  0  0  0
   11.0801   -5.6743    9.2933 C   0  0  0  0  0  0  0  0  0  0  0  0
   10.5977   -6.7150   10.0424 C   0  0  0  0  0  0  0  0  0  0  0  0
   11.2903   -7.2900   11.1288 C   0  0  0  0  0  0  0  0  0  0  0  0
   11.8088   -7.8066   12.0128 N   0  0  0  0  0  0  0  0  0  0  0  0
    9.3286   -7.3114    9.8794 C   0  0  0  0  0  0  0  0  0  0  0  0
    8.2988   -7.8184    9.8359 N   0  0  0  0  0  0  0  0  0  0  0  0
   -7.3619    3.6953   -7.6430 H   0  0  0  0  0  0  0  0  0  0  0  0
   -8.8607    7.4483   -2.8764 H   0  0  0  0  0  0  0  0  0  0  0  0
  -10.8615    7.8827   -7.5102 H   0  0  0  0  0  0  0  0  0  0  0  0
  -12.4449    9.9892   -5.3252 H   0  0  0  0  0  0  0  0  0  0  0  0
  -10.7732   11.4139   -6.8316 H   0  0  0  0  0  0  0  0  0  0  0  0
  -12.0878   13.0602   -5.2617 H   0  0  0  0  0  0  0  0  0  0  0  0
  -11.0643   12.8672   -2.8176 H   0  0  0  0  0  0  0  0  0  0  0  0
   -9.1173   11.1045   -2.8831 H   0  0  0  0  0  0  0  0  0  0  0  0
   -8.7473   12.1406   -5.2902 H   0  0  0  0  0  0  0  0  0  0  0  0
   -8.7268   10.3686   -5.4380 H   0  0  0  0  0  0  0  0  0  0  0  0
  -11.4390    9.7971   -2.9297 H   0  0  0  0  0  0  0  0  0  0  0  0
   -2.8250    0.5884   -5.9222 H   0  0  0  0  0  0  0  0  0  0  0  0
   -1.2239   -0.6634   -4.0665 H   0  0  0  0  0  0  0  0  0  0  0  0
   -6.0202    1.2125   -2.1166 H   0  0  0  0  0  0  0  0  0  0  0  0
   -7.4317    2.7935   -3.8640 H   0  0  0  0  0  0  0  0  0  0  0  0
    0.4594    1.6642   -4.5837 H   0  0  0  0  0  0  0  0  0  0  0  0
   -1.2892    3.2943   -5.1786 H   0  0  0  0  0  0  0  0  0  0  0  0
   -5.4959    4.9275   -2.8113 H   0  0  0  0  0  0  0  0  0  0  0  0
   -4.1823    5.1689   -1.6297 H   0  0  0  0  0  0  0  0  0  0  0  0
   -4.7629    3.5169   -2.0240 H   0  0  0  0  0  0  0  0  0  0  0  0
   -2.6733    3.2745   -1.1348 H   0  0  0  0  0  0  0  0  0  0  0  0
   -0.9510    1.6565   -0.5502 H   0  0  0  0  0  0  0  0  0  0  0  0
    2.1374   -1.5827   -3.1675 H   0  0  0  0  0  0  0  0  0  0  0  0
    4.3973   -1.5300   -4.0687 H   0  0  0  0  0  0  0  0  0  0  0  0
    7.8724   -0.8743   -4.9695 H   0  0  0  0  0  0  0  0  0  0  0  0
    6.2595   -1.4332   -5.4593 H   0  0  0  0  0  0  0  0  0  0  0  0
    6.7476   -1.4798   -3.7327 H   0  0  0  0  0  0  0  0  0  0  0  0
    4.5368    2.7042   -3.4765 H   0  0  0  0  0  0  0  0  0  0  0  0
    2.2545    2.6442   -2.5457 H   0  0  0  0  0  0  0  0  0  0  0  0
   -0.7355   -4.5013    3.8067 H   0  0  0  0  0  0  0  0  0  0  0  0
   -2.5910   -6.0076    3.3325 H   0  0  0  0  0  0  0  0  0  0  0  0
   -5.2087   -8.1672    2.0063 H   0  0  0  0  0  0  0  0  0  0  0  0
   -4.7396   -6.5408    2.5474 H   0  0  0  0  0  0  0  0  0  0  0  0
   -3.8254   -7.9813    3.1051 H   0  0  0  0  0  0  0  0  0  0  0  0
   -1.1920   -6.4681   -0.6839 H   0  0  0  0  0  0  0  0  0  0  0  0
    0.6977   -4.9668   -0.1924 H   0  0  0  0  0  0  0  0  0  0  0  0
    1.7295   -5.9626    3.4560 H   0  0  0  0  0  0  0  0  0  0  0  0
    3.0603   -6.1394    5.4877 H   0  0  0  0  0  0  0  0  0  0  0  0
    5.2228   -5.7935    8.4039 H   0  0  0  0  0  0  0  0  0  0  0  0
    4.9948   -6.3439    6.7324 H   0  0  0  0  0  0  0  0  0  0  0  0
    3.5808   -6.1406    7.8189 H   0  0  0  0  0  0  0  0  0  0  0  0
    3.3825   -1.8788    5.6471 H   0  0  0  0  0  0  0  0  0  0  0  0
    2.0092   -1.7015    3.6137 H   0  0  0  0  0  0  0  0  0  0  0  0
    7.3337   -1.7091    4.4553 H   0  0  0  0  0  0  0  0  0  0  0  0
    8.8986   -3.0053    6.2976 H   0  0  0  0  0  0  0  0  0  0  0  0
    5.5225   -6.2581    3.3991 H   0  0  0  0  0  0  0  0  0  0  0  0
    3.8133   -4.9277    1.6999 H   0  0  0  0  0  0  0  0  0  0  0  0
    9.1773   -6.6561    7.7217 H   0  0  0  0  0  0  0  0  0  0  0  0
   13.3825   -2.0413    8.1017 H   0  0  0  0  0  0  0  0  0  0  0  0
   15.2298   -4.4235   11.1538 H   0  0  0  0  0  0  0  0  0  0  0  0
   13.3698   -6.0229   11.0900 H   0  0  0  0  0  0  0  0  0  0  0  0
  1  2  2  0  0  0  0
  2  3  1  0  0  0  0
  3  4  2  0  0  0  0
  3  5  1  0  0  0  0
  5  6  2  0  0  0  0
  6  7  1  0  0  0  0
  7  8  2  0  0  0  0
  8  9  1  0  0  0  0
  9 10  2  0  0  0  0
 10 11  1  0  0  0  0
 11 12  2  0  0  0  0
 12 13  1  0  0  0  0
 13 14  3  0  0  0  0
 12 15  1  0  0  0  0
 15 16  3  0  0  0  0
  8 17  1  0  0  0  0
 17 18  1  0  0  0  0
 18 19  1  0  0  0  0
 19 20  2  0  0  0  0
 20 21  1  0  0  0  0
 21 22  1  0  0  0  0
 21 23  1  0  0  0  0
  1 24  1  0  0  0  0
 24 25  1  0  0  0  0
 25 26  1  0  0  0  0
 26 27  2  0  0  0  0
 27 28  1  0  0  0  0
 28 29  1  0  0  0  0
 29 30  2  0  0  0  0
 30 31  1  0  0  0  0
 31 32  1  0  0  0  0
 32 33  1  0  0  0  0
 33 34  2  0  0  0  0
 34 35  1  0  0  0  0
 30 36  1  0  0  0  0
 36 37  2  0  0  0  0
 37 38  1  0  0  0  0
 38 39  1  0  0  0  0
 39 40  2  0  0  0  0
 40 41  1  0  0  0  0
 41 42  2  0  0  0  0
 42 43  1  0  0  0  0
 43 44  1  0  0  0  0
 42 45  1  0  0  0  0
 45 46  2  0  0  0  0
 38 47  1  0  0  0  0
 47 48  2  0  0  0  0
 48 49  1  0  0  0  0
 49 50  2  0  0  0  0
 50 51  1  0  0  0  0
 51 52  1  0  0  0  0
 50 53  1  0  0  0  0
 53 54  2  0  0  0  0
 37 55  1  0  0  0  0
 55 56  1  0  0  0  0
 56 57  1  0  0  0  0
 57 58  2  0  0  0  0
 58 59  1  0  0  0  0
 59 60  1  0  0  0  0
 60 61  2  0  0  0  0
 61 62  1  0  0  0  0
 62 63  2  0  0  0  0
 63 64  1  0  0  0  0
 64 65  1  0  0  0  0
 63 66  1  0  0  0  0
 66 67  2  0  0  0  0
 59 68  1  0  0  0  0
 68 69  2  0  0  0  0
 69 70  1  0  0  0  0
 70 71  2  0  0  0  0
 71 72  1  0  0  0  0
 72 73  1  0  0  0  0
 71 74  1  0  0  0  0
 74 75  2  0  0  0  0
 58 76  1  0  0  0  0
 76 77  1  0  0  0  0
 57 78  1  0  0  0  0
 78 79  1  0  0  0  0
 79 80  1  0  0  0  0
 80 81  2  0  0  0  0
 81 82  1  0  0  0  0
 82 83  1  0  0  0  0
 83 84  2  0  0  0  0
 84 85  1  0  0  0  0
 85 86  1  0  0  0  0
 86 87  1  0  0  0  0
 87 88  2  0  0  0  0
 88 89  1  0  0  0  0
 84 90  1  0  0  0  0
 90 91  2  0  0  0  0
 91 92  1  0  0  0  0
 92 93  2  0  0  0  0
 92 94  1  0  0  0  0
 94 95  2  0  0  0  0
 95 96  1  0  0  0  0
 96 97  1  0  0  0  0
 96 98  2  0  0  0  0
 98 99  1  0  0  0  0
 99100  2  0  0  0  0
100101  1  0  0  0  0
101102  2  0  0  0  0
102103  1  0  0  0  0
103104  3  0  0  0  0
102105  1  0  0  0  0
105106  3  0  0  0  0
 11  2  1  0  0  0  0
 23 17  1  0  0  0  0
 35 24  2  0  0  0  0
 77 36  1  0  0  0  0
 89 78  2  0  0  0  0
101 91  1  0  0  0  0
 10  5  1  0  0  0  0
 22 18  1  0  0  0  0
 34 26  1  0  0  0  0
 46 39  1  0  0  0  0
 54 47  1  0  0  0  0
 76 55  2  0  0  0  0
 88 80  1  0  0  0  0
100 94  1  0  0  0  0
 23  7  1  0  0  0  0
 32 28  2  0  0  0  0
 67 60  1  0  0  0  0
 75 68  1  0  0  0  0
 86 82  2  0  0  0  0
  1107  1  0  0  0  0
  6108  1  0  0  0  0
  9109  1  0  0  0  0
 17110  1  0  0  0  0
 18111  1  0  0  0  0
 19112  1  0  0  0  0
 20113  1  0  0  0  0
 21114  1  0  0  0  0
 22115  1  0  0  0  0
 22116  1  0  0  0  0
 23117  1  0  0  0  0
 27118  1  0  0  0  0
 29119  1  0  0  0  0
 33120  1  0  0  0  0
 35121  1  0  0  0  0
 40122  1  0  0  0  0
 41123  1  0  0  0  0
 44124  1  0  0  0  0
 44125  1  0  0  0  0
 44126  1  0  0  0  0
 45127  1  0  0  0  0
 46128  1  0  0  0  0
 48129  1  0  0  0  0
 49130  1  0  0  0  0
 52131  1  0  0  0  0
 52132  1  0  0  0  0
 52133  1  0  0  0  0
 53134  1  0  0  0  0
 54135  1  0  0  0  0
 61136  1  0  0  0  0
 62137  1  0  0  0  0
 65138  1  0  0  0  0
 65139  1  0  0  0  0
 65140  1  0  0  0  0
 66141  1  0  0  0  0
 67142  1  0  0  0  0
 69143  1  0  0  0  0
 70144  1  0  0  0  0
 73145  1  0  0  0  0
 73146  1  0  0  0  0
 73147  1  0  0  0  0
 74148  1  0  0  0  0
 75149  1  0  0  0  0
 81150  1  0  0  0  0
 83151  1  0  0  0  0
 87152  1  0  0  0  0
 89153  1  0  0  0  0
 90154  1  0  0  0  0
 95155  1  0  0  0  0
 98156  1  0  0  0  0
 99157  1  0  0  0  0
M  END
