
  xtb     02122223043D
 energy: -342.085620457736 gnorm: 0.000254192876 xtb: 6.4.1 (unknown)
216239  0     0  0            999 V2000
    8.2552   -2.0171    0.2827 C   0  0  0  0  0  0  0  0  0  0  0  0
    9.1872   -1.4182   -0.5405 C   0  0  0  0  0  0  0  0  0  0  0  0
    9.0539   -0.0527   -1.0688 C   0  0  0  0  0  0  0  0  0  0  0  0
    8.1269    0.7199   -0.9025 O   0  0  0  0  0  0  0  0  0  0  0  0
   10.3392    0.2482   -1.7344 C   0  0  0  0  0  0  0  0  0  0  0  0
   10.6939    1.4291   -2.3787 C   0  0  0  0  0  0  0  0  0  0  0  0
   11.9592    1.4146   -2.9170 C   0  0  0  0  0  0  0  0  0  0  0  0
   12.8135    0.3112   -2.8115 C   0  0  0  0  0  0  0  0  0  0  0  0
   12.4760   -0.8598   -2.1734 C   0  0  0  0  0  0  0  0  0  0  0  0
   11.1906   -0.8675   -1.6279 C   0  0  0  0  0  0  0  0  0  0  0  0
   10.4780   -1.9232   -0.9092 C   0  0  0  0  0  0  0  0  0  0  0  0
   10.8991   -3.2238   -0.7637 C   0  0  0  0  0  0  0  0  0  0  0  0
   10.1174   -4.2428   -0.1859 C   0  0  0  0  0  0  0  0  0  0  0  0
    9.5253   -5.1288    0.2442 N   0  0  0  0  0  0  0  0  0  0  0  0
   12.1209   -3.7237   -1.2469 C   0  0  0  0  0  0  0  0  0  0  0  0
   13.0941   -4.1970   -1.6347 N   0  0  0  0  0  0  0  0  0  0  0  0
   13.9267    0.9986   -3.5645 C   0  0  0  0  0  0  0  0  0  0  0  0
   15.0930    1.5542   -2.7208 C   0  0  0  0  0  0  0  0  0  0  0  0
   15.7542    2.5605   -3.6348 C   0  0  0  0  0  0  0  0  0  0  0  0
   14.9431    3.6055   -3.7384 C   0  0  0  0  0  0  0  0  0  0  0  0
   13.7202    3.3228   -2.8960 C   0  0  0  0  0  0  0  0  0  0  0  0
   14.3607    2.5062   -1.7663 C   0  0  0  0  0  0  0  0  0  0  0  0
   12.9712    2.2289   -3.6858 C   0  0  0  0  0  0  0  0  0  0  0  0
    6.8945   -1.7104    0.3268 C   0  0  0  0  0  0  0  0  0  0  0  0
    6.0401   -1.1362   -0.6396 C   0  0  0  0  0  0  0  0  0  0  0  0
    6.3202   -0.9234   -1.9566 N   0  0  0  0  0  0  0  0  0  0  0  0
    7.3192   -1.6132   -2.6566 C   0  0  0  0  0  0  0  0  0  0  0  0
    7.5471   -2.9734   -2.4510 C   0  0  0  0  0  0  0  0  0  0  0  0
    8.5620   -3.6156   -3.1278 C   0  0  0  0  0  0  0  0  0  0  0  0
    9.3789   -2.9303   -4.0247 C   0  0  0  0  0  0  0  0  0  0  0  0
   10.5121   -3.6324   -4.7040 C   0  0  0  0  0  0  0  0  0  0  0  0
    9.1161   -1.5873   -4.2574 C   0  0  0  0  0  0  0  0  0  0  0  0
    8.0981   -0.9325   -3.5896 C   0  0  0  0  0  0  0  0  0  0  0  0
    5.5391    0.0074   -2.6801 C   0  0  0  0  0  0  0  0  0  0  0  0
    4.9473   -0.3711   -3.8794 C   0  0  0  0  0  0  0  0  0  0  0  0
    4.1481    0.5247   -4.5629 C   0  0  0  0  0  0  0  0  0  0  0  0
    3.9288    1.8066   -4.0735 C   0  0  0  0  0  0  0  0  0  0  0  0
    3.0130    2.7549   -4.7824 C   0  0  0  0  0  0  0  0  0  0  0  0
    4.5580    2.1841   -2.8924 C   0  0  0  0  0  0  0  0  0  0  0  0
    5.3573    1.2991   -2.1971 C   0  0  0  0  0  0  0  0  0  0  0  0
    4.7577   -0.9106   -0.0882 C   0  0  0  0  0  0  0  0  0  0  0  0
    3.2885   -0.2405   -0.7185 S   0  0  0  0  0  0  0  0  0  0  0  0
    2.4884   -0.5196    0.8131 C   0  0  0  0  0  0  0  0  0  0  0  0
    3.2866   -1.1943    1.7290 C   0  0  0  0  0  0  0  0  0  0  0  0
    2.8312   -1.7139    2.9270 N   0  0  0  0  0  0  0  0  0  0  0  0
    3.6868   -1.7449    4.0369 C   0  0  0  0  0  0  0  0  0  0  0  0
    3.6553   -2.8184    4.9227 C   0  0  0  0  0  0  0  0  0  0  0  0
    4.5071   -2.8445    6.0081 C   0  0  0  0  0  0  0  0  0  0  0  0
    5.4138   -1.8155    6.2362 C   0  0  0  0  0  0  0  0  0  0  0  0
    6.3584   -1.8700    7.3975 C   0  0  0  0  0  0  0  0  0  0  0  0
    5.4364   -0.7478    5.3477 C   0  0  0  0  0  0  0  0  0  0  0  0
    4.5829   -0.7038    4.2635 C   0  0  0  0  0  0  0  0  0  0  0  0
    1.5114   -2.1838    3.0184 C   0  0  0  0  0  0  0  0  0  0  0  0
    0.9101   -2.8232    1.9365 C   0  0  0  0  0  0  0  0  0  0  0  0
   -0.4286   -3.1615    1.9793 C   0  0  0  0  0  0  0  0  0  0  0  0
   -1.2025   -2.8841    3.0987 C   0  0  0  0  0  0  0  0  0  0  0  0
   -2.6734   -3.1683    3.1139 C   0  0  0  0  0  0  0  0  0  0  0  0
   -0.5785   -2.3119    4.2012 C   0  0  0  0  0  0  0  0  0  0  0  0
    0.7583   -1.9701    4.1708 C   0  0  0  0  0  0  0  0  0  0  0  0
    4.5908   -1.3736    1.2113 C   0  0  0  0  0  0  0  0  0  0  0  0
    6.0266   -2.1072    1.8212 S   0  0  0  0  0  0  0  0  0  0  0  0
    1.1459   -0.0864    0.9989 C   0  0  0  0  0  0  0  0  0  0  0  0
   -0.2132   -0.3642   -0.2788 Se  0  0  0  0  0  2  0  0  0  0  0  0
   -1.4351    0.3601    0.9611 C   0  0  0  0  0  0  0  0  0  0  0  0
   -0.7851    0.7499    2.1266 C   0  0  0  0  0  0  0  0  0  0  0  0
   -1.2012    1.3652    3.3396 C   0  0  0  0  0  0  0  0  0  0  0  0
   -0.1810    1.6000    4.1976 C   0  0  0  0  0  0  0  0  0  0  0  0
   -0.2513    2.2041    5.5561 C   0  0  0  0  0  0  0  0  0  0  0  0
    0.1399    1.1921    6.6343 C   0  0  0  0  0  0  0  0  0  0  0  0
    1.3742    1.0782    3.5735 S   0  0  0  0  0  0  0  0  0  0  0  0
    0.6140    0.4983    2.1220 C   0  0  0  0  0  0  0  0  0  0  0  0
   -2.8075    0.4207    0.6535 C   0  0  0  0  0  0  0  0  0  0  0  0
   -3.3779    0.0146   -0.5466 C   0  0  0  0  0  0  0  0  0  0  0  0
   -2.5933   -0.4854   -1.6067 N   0  0  0  0  0  0  0  0  0  0  0  0
   -2.1472    0.4352   -2.5807 C   0  0  0  0  0  0  0  0  0  0  0  0
   -1.1130    0.0599   -3.4365 C   0  0  0  0  0  0  0  0  0  0  0  0
   -0.6435    0.9401   -4.3911 C   0  0  0  0  0  0  0  0  0  0  0  0
   -1.1777    2.2171   -4.5117 C   0  0  0  0  0  0  0  0  0  0  0  0
   -0.6922    3.1750   -5.5575 C   0  0  0  0  0  0  0  0  0  0  0  0
   -2.1844    2.5944   -3.6314 C   0  0  0  0  0  0  0  0  0  0  0  0
   -2.6671    1.7215   -2.6757 C   0  0  0  0  0  0  0  0  0  0  0  0
   -2.9654   -1.7955   -1.9990 C   0  0  0  0  0  0  0  0  0  0  0  0
   -3.0395   -2.7706   -1.0090 C   0  0  0  0  0  0  0  0  0  0  0  0
   -3.4181   -4.0587   -1.3270 C   0  0  0  0  0  0  0  0  0  0  0  0
   -3.7316   -4.4083   -2.6353 C   0  0  0  0  0  0  0  0  0  0  0  0
   -4.1692   -5.8000   -2.9747 C   0  0  0  0  0  0  0  0  0  0  0  0
   -3.6570   -3.4263   -3.6150 C   0  0  0  0  0  0  0  0  0  0  0  0
   -3.2849   -2.1311   -3.3083 C   0  0  0  0  0  0  0  0  0  0  0  0
   -4.7737    0.1518   -0.5356 C   0  0  0  0  0  0  0  0  0  0  0  0
   -6.0195   -0.1958   -1.6728 S   0  0  0  0  0  0  0  0  0  0  0  0
   -7.2351    0.5086   -0.5885 C   0  0  0  0  0  0  0  0  0  0  0  0
   -6.6792    0.8823    0.6562 C   0  0  0  0  0  0  0  0  0  0  0  0
   -7.3544    1.2786    1.7746 N   0  0  0  0  0  0  0  0  0  0  0  0
   -6.6591    2.0187    2.7592 C   0  0  0  0  0  0  0  0  0  0  0  0
   -6.6953    1.6085    4.0869 C   0  0  0  0  0  0  0  0  0  0  0  0
   -5.9805    2.3059    5.0417 C   0  0  0  0  0  0  0  0  0  0  0  0
   -5.2231    3.4194    4.6980 C   0  0  0  0  0  0  0  0  0  0  0  0
   -4.4406    4.1689    5.7327 C   0  0  0  0  0  0  0  0  0  0  0  0
   -5.2236    3.8397    3.3725 C   0  0  0  0  0  0  0  0  0  0  0  0
   -5.9332    3.1524    2.4079 C   0  0  0  0  0  0  0  0  0  0  0  0
   -8.7020    0.9836    2.0181 C   0  0  0  0  0  0  0  0  0  0  0  0
   -9.2502   -0.2555    1.6896 C   0  0  0  0  0  0  0  0  0  0  0  0
  -10.5901   -0.4995    1.9057 C   0  0  0  0  0  0  0  0  0  0  0  0
  -11.4232    0.4736    2.4530 C   0  0  0  0  0  0  0  0  0  0  0  0
  -12.8870    0.2126    2.6202 C   0  0  0  0  0  0  0  0  0  0  0  0
  -10.8587    1.6872    2.8218 C   0  0  0  0  0  0  0  0  0  0  0  0
   -9.5172    1.9445    2.6129 C   0  0  0  0  0  0  0  0  0  0  0  0
   -5.2811    0.6938    0.6425 C   0  0  0  0  0  0  0  0  0  0  0  0
   -4.0115    0.9876    1.7904 S   0  0  0  0  0  0  0  0  0  0  0  0
   -8.5373    0.5970   -1.0800 C   0  0  0  0  0  0  0  0  0  0  0  0
   -9.4942    1.4972   -0.6567 C   0  0  0  0  0  0  0  0  0  0  0  0
   -9.1766    2.8095   -0.0755 C   0  0  0  0  0  0  0  0  0  0  0  0
   -8.0726    3.2718    0.1524 O   0  0  0  0  0  0  0  0  0  0  0  0
  -10.4684    3.5174    0.0460 C   0  0  0  0  0  0  0  0  0  0  0  0
  -10.6787    4.8019    0.5369 C   0  0  0  0  0  0  0  0  0  0  0  0
  -11.9974    5.1919    0.5364 C   0  0  0  0  0  0  0  0  0  0  0  0
  -13.0285    4.3732    0.0621 C   0  0  0  0  0  0  0  0  0  0  0  0
  -12.8324    3.1054   -0.4341 C   0  0  0  0  0  0  0  0  0  0  0  0
  -11.5013    2.6841   -0.4236 C   0  0  0  0  0  0  0  0  0  0  0  0
  -10.9137    1.4105   -0.8362 C   0  0  0  0  0  0  0  0  0  0  0  0
  -11.6088    0.2719   -1.1701 C   0  0  0  0  0  0  0  0  0  0  0  0
  -13.0109    0.1803   -1.2108 C   0  0  0  0  0  0  0  0  0  0  0  0
  -14.1514    0.0383   -1.2392 N   0  0  0  0  0  0  0  0  0  0  0  0
  -10.9986   -0.9716   -1.4232 C   0  0  0  0  0  0  0  0  0  0  0  0
  -10.5680   -2.0207   -1.6094 N   0  0  0  0  0  0  0  0  0  0  0  0
  -14.0923    5.4009    0.3625 C   0  0  0  0  0  0  0  0  0  0  0  0
  -14.9495    5.1530    1.6214 C   0  0  0  0  0  0  0  0  0  0  0  0
  -15.5408    6.5090    1.9315 C   0  0  0  0  0  0  0  0  0  0  0  0
  -14.5629    7.2805    2.3890 C   0  0  0  0  0  0  0  0  0  0  0  0
  -13.2941    6.4589    2.3946 C   0  0  0  0  0  0  0  0  0  0  0  0
  -13.8761    5.0761    2.7146 C   0  0  0  0  0  0  0  0  0  0  0  0
  -12.9418    6.3117    0.8991 C   0  0  0  0  0  0  0  0  0  0  0  0
    8.5933   -2.7615    0.9936 H   0  0  0  0  0  0  0  0  0  0  0  0
   10.0057    2.2581   -2.4381 H   0  0  0  0  0  0  0  0  0  0  0  0
   13.1456   -1.7001   -2.0937 H   0  0  0  0  0  0  0  0  0  0  0  0
   14.2591    0.5055   -4.4763 H   0  0  0  0  0  0  0  0  0  0  0  0
   15.7362    0.7980   -2.2790 H   0  0  0  0  0  0  0  0  0  0  0  0
   16.6870    2.3905   -4.1400 H   0  0  0  0  0  0  0  0  0  0  0  0
   15.0630    4.4825   -4.3474 H   0  0  0  0  0  0  0  0  0  0  0  0
   13.1124    4.1783   -2.6132 H   0  0  0  0  0  0  0  0  0  0  0  0
   15.0498    3.1003   -1.1680 H   0  0  0  0  0  0  0  0  0  0  0  0
   13.6425    2.0136   -1.1136 H   0  0  0  0  0  0  0  0  0  0  0  0
   12.6666    2.5546   -4.6791 H   0  0  0  0  0  0  0  0  0  0  0  0
    6.9306   -3.5245   -1.7568 H   0  0  0  0  0  0  0  0  0  0  0  0
    8.7316   -4.6678   -2.9511 H   0  0  0  0  0  0  0  0  0  0  0  0
   11.3001   -3.8587   -3.9851 H   0  0  0  0  0  0  0  0  0  0  0  0
   10.1780   -4.5755   -5.1324 H   0  0  0  0  0  0  0  0  0  0  0  0
   10.9360   -3.0158   -5.4924 H   0  0  0  0  0  0  0  0  0  0  0  0
    9.7257   -1.0369   -4.9594 H   0  0  0  0  0  0  0  0  0  0  0  0
    7.9097    0.1146   -3.7735 H   0  0  0  0  0  0  0  0  0  0  0  0
    5.1065   -1.3690   -4.2619 H   0  0  0  0  0  0  0  0  0  0  0  0
    3.6799    0.2179   -5.4870 H   0  0  0  0  0  0  0  0  0  0  0  0
    2.9136    2.4917   -5.8326 H   0  0  0  0  0  0  0  0  0  0  0  0
    2.0247    2.7144   -4.3236 H   0  0  0  0  0  0  0  0  0  0  0  0
    3.3773    3.7771   -4.7072 H   0  0  0  0  0  0  0  0  0  0  0  0
    4.4169    3.1849   -2.5112 H   0  0  0  0  0  0  0  0  0  0  0  0
    5.8617    1.5938   -1.2902 H   0  0  0  0  0  0  0  0  0  0  0  0
    2.9639   -3.6302    4.7510 H   0  0  0  0  0  0  0  0  0  0  0  0
    4.4743   -3.6849    6.6864 H   0  0  0  0  0  0  0  0  0  0  0  0
    7.2700   -2.3950    7.1097 H   0  0  0  0  0  0  0  0  0  0  0  0
    5.9147   -2.4032    8.2352 H   0  0  0  0  0  0  0  0  0  0  0  0
    6.6351   -0.8692    7.7211 H   0  0  0  0  0  0  0  0  0  0  0  0
    6.1278    0.0664    5.5099 H   0  0  0  0  0  0  0  0  0  0  0  0
    4.5958    0.1436    3.5938 H   0  0  0  0  0  0  0  0  0  0  0  0
    1.4920   -3.0456    1.0531 H   0  0  0  0  0  0  0  0  0  0  0  0
   -0.8739   -3.6464    1.1221 H   0  0  0  0  0  0  0  0  0  0  0  0
   -2.9908   -3.5244    4.0917 H   0  0  0  0  0  0  0  0  0  0  0  0
   -3.2293   -2.2545    2.8957 H   0  0  0  0  0  0  0  0  0  0  0  0
   -2.9349   -3.9127    2.3656 H   0  0  0  0  0  0  0  0  0  0  0  0
   -1.1553   -2.1118    5.0929 H   0  0  0  0  0  0  0  0  0  0  0  0
    1.2218   -1.5097    5.0303 H   0  0  0  0  0  0  0  0  0  0  0  0
   -2.2209    1.6284    3.5572 H   0  0  0  0  0  0  0  0  0  0  0  0
    0.4256    3.0611    5.6105 H   0  0  0  0  0  0  0  0  0  0  0  0
   -1.2699    2.5575    5.7294 H   0  0  0  0  0  0  0  0  0  0  0  0
    0.0716    1.6457    7.6198 H   0  0  0  0  0  0  0  0  0  0  0  0
    1.1616    0.8521    6.4789 H   0  0  0  0  0  0  0  0  0  0  0  0
   -0.5225    0.3301    6.6000 H   0  0  0  0  0  0  0  0  0  0  0  0
   -0.6918   -0.9320   -3.3485 H   0  0  0  0  0  0  0  0  0  0  0  0
    0.1539    0.6275   -5.0499 H   0  0  0  0  0  0  0  0  0  0  0  0
   -0.2059    4.0332   -5.0939 H   0  0  0  0  0  0  0  0  0  0  0  0
    0.0166    2.6951   -6.2271 H   0  0  0  0  0  0  0  0  0  0  0  0
   -1.5289    3.5486   -6.1458 H   0  0  0  0  0  0  0  0  0  0  0  0
   -2.6071    3.5863   -3.7021 H   0  0  0  0  0  0  0  0  0  0  0  0
   -3.4576    2.0394   -2.0124 H   0  0  0  0  0  0  0  0  0  0  0  0
   -2.7915   -2.5021    0.0085 H   0  0  0  0  0  0  0  0  0  0  0  0
   -3.4713   -4.8072   -0.5489 H   0  0  0  0  0  0  0  0  0  0  0  0
   -5.2552   -5.8739   -2.9087 H   0  0  0  0  0  0  0  0  0  0  0  0
   -3.7401   -6.5222   -2.2839 H   0  0  0  0  0  0  0  0  0  0  0  0
   -3.8764   -6.0628   -3.9885 H   0  0  0  0  0  0  0  0  0  0  0  0
   -3.9061   -3.6750   -4.6364 H   0  0  0  0  0  0  0  0  0  0  0  0
   -3.2508   -1.3793   -4.0824 H   0  0  0  0  0  0  0  0  0  0  0  0
   -7.2739    0.7383    4.3611 H   0  0  0  0  0  0  0  0  0  0  0  0
   -6.0035    1.9725    6.0692 H   0  0  0  0  0  0  0  0  0  0  0  0
   -3.4938    4.5152    5.3233 H   0  0  0  0  0  0  0  0  0  0  0  0
   -4.2453    3.5444    6.6012 H   0  0  0  0  0  0  0  0  0  0  0  0
   -5.0003    5.0439    6.0642 H   0  0  0  0  0  0  0  0  0  0  0  0
   -4.6581    4.7165    3.0924 H   0  0  0  0  0  0  0  0  0  0  0  0
   -5.9511    3.4882    1.3829 H   0  0  0  0  0  0  0  0  0  0  0  0
   -8.6263   -1.0246    1.2594 H   0  0  0  0  0  0  0  0  0  0  0  0
  -11.0016   -1.4613    1.6360 H   0  0  0  0  0  0  0  0  0  0  0  0
  -13.3501    0.9719    3.2452 H   0  0  0  0  0  0  0  0  0  0  0  0
  -13.0551   -0.7655    3.0667 H   0  0  0  0  0  0  0  0  0  0  0  0
  -13.3828    0.2202    1.6488 H   0  0  0  0  0  0  0  0  0  0  0  0
  -11.4783    2.4514    3.2686 H   0  0  0  0  0  0  0  0  0  0  0  0
   -9.0950    2.8980    2.8926 H   0  0  0  0  0  0  0  0  0  0  0  0
   -8.7800   -0.0722   -1.8970 H   0  0  0  0  0  0  0  0  0  0  0  0
   -9.8549    5.4064    0.8837 H   0  0  0  0  0  0  0  0  0  0  0  0
  -13.6332    2.4899   -0.8093 H   0  0  0  0  0  0  0  0  0  0  0  0
  -14.6751    5.7472   -0.4890 H   0  0  0  0  0  0  0  0  0  0  0  0
  -15.6447    4.3217    1.5421 H   0  0  0  0  0  0  0  0  0  0  0  0
  -16.5632    6.7763    1.7387 H   0  0  0  0  0  0  0  0  0  0  0  0
  -14.6053    8.3208    2.6542 H   0  0  0  0  0  0  0  0  0  0  0  0
  -12.4818    6.8181    3.0213 H   0  0  0  0  0  0  0  0  0  0  0  0
  -13.1706    4.2581    2.5807 H   0  0  0  0  0  0  0  0  0  0  0  0
  -14.3066    5.0304    3.7140 H   0  0  0  0  0  0  0  0  0  0  0  0
  -12.7613    7.2666    0.4084 H   0  0  0  0  0  0  0  0  0  0  0  0
  1  2  2  0  0  0  0
  2  3  1  0  0  0  0
  3  4  2  0  0  0  0
  3  5  1  0  0  0  0
  5  6  2  0  0  0  0
  6  7  1  0  0  0  0
  7  8  2  0  0  0  0
  8  9  1  0  0  0  0
  9 10  2  0  0  0  0
 10 11  1  0  0  0  0
 11 12  2  0  0  0  0
 12 13  1  0  0  0  0
 13 14  3  0  0  0  0
 12 15  1  0  0  0  0
 15 16  3  0  0  0  0
  8 17  1  0  0  0  0
 17 18  1  0  0  0  0
 18 19  1  0  0  0  0
 19 20  2  0  0  0  0
 20 21  1  0  0  0  0
 21 22  1  0  0  0  0
 21 23  1  0  0  0  0
  1 24  1  0  0  0  0
 24 25  2  0  0  0  0
 25 26  1  0  0  0  0
 26 27  1  0  0  0  0
 27 28  2  0  0  0  0
 28 29  1  0  0  0  0
 29 30  2  0  0  0  0
 30 31  1  0  0  0  0
 30 32  1  0  0  0  0
 32 33  2  0  0  0  0
 26 34  1  0  0  0  0
 34 35  2  0  0  0  0
 35 36  1  0  0  0  0
 36 37  2  0  0  0  0
 37 38  1  0  0  0  0
 37 39  1  0  0  0  0
 39 40  2  0  0  0  0
 25 41  1  0  0  0  0
 41 42  1  0  0  0  0
 42 43  1  0  0  0  0
 43 44  2  0  0  0  0
 44 45  1  0  0  0  0
 45 46  1  0  0  0  0
 46 47  2  0  0  0  0
 47 48  1  0  0  0  0
 48 49  2  0  0  0  0
 49 50  1  0  0  0  0
 49 51  1  0  0  0  0
 51 52  2  0  0  0  0
 45 53  1  0  0  0  0
 53 54  2  0  0  0  0
 54 55  1  0  0  0  0
 55 56  2  0  0  0  0
 56 57  1  0  0  0  0
 56 58  1  0  0  0  0
 58 59  2  0  0  0  0
 44 60  1  0  0  0  0
 60 61  1  0  0  0  0
 43 62  1  0  0  0  0
 62 63  1  0  0  0  0
 63 64  1  0  0  0  0
 64 65  2  0  0  0  0
 65 66  1  0  0  0  0
 66 67  2  0  0  0  0
 67 68  1  0  0  0  0
 68 69  1  0  0  0  0
 67 70  1  0  0  0  0
 70 71  1  0  0  0  0
 64 72  1  0  0  0  0
 72 73  2  0  0  0  0
 73 74  1  0  0  0  0
 74 75  1  0  0  0  0
 75 76  2  0  0  0  0
 76 77  1  0  0  0  0
 77 78  2  0  0  0  0
 78 79  1  0  0  0  0
 78 80  1  0  0  0  0
 80 81  2  0  0  0  0
 74 82  1  0  0  0  0
 82 83  2  0  0  0  0
 83 84  1  0  0  0  0
 84 85  2  0  0  0  0
 85 86  1  0  0  0  0
 85 87  1  0  0  0  0
 87 88  2  0  0  0  0
 73 89  1  0  0  0  0
 89 90  1  0  0  0  0
 90 91  1  0  0  0  0
 91 92  2  0  0  0  0
 92 93  1  0  0  0  0
 93 94  1  0  0  0  0
 94 95  2  0  0  0  0
 95 96  1  0  0  0  0
 96 97  2  0  0  0  0
 97 98  1  0  0  0  0
 97 99  1  0  0  0  0
 99100  2  0  0  0  0
 93101  1  0  0  0  0
101102  2  0  0  0  0
102103  1  0  0  0  0
103104  2  0  0  0  0
104105  1  0  0  0  0
104106  1  0  0  0  0
106107  2  0  0  0  0
 92108  1  0  0  0  0
108109  1  0  0  0  0
 91110  1  0  0  0  0
110111  2  0  0  0  0
111112  1  0  0  0  0
112113  2  0  0  0  0
112114  1  0  0  0  0
114115  2  0  0  0  0
115116  1  0  0  0  0
116117  2  0  0  0  0
117118  1  0  0  0  0
118119  2  0  0  0  0
119120  1  0  0  0  0
120121  2  0  0  0  0
121122  1  0  0  0  0
122123  3  0  0  0  0
121124  1  0  0  0  0
124125  3  0  0  0  0
117126  1  0  0  0  0
126127  1  0  0  0  0
127128  1  0  0  0  0
128129  2  0  0  0  0
129130  1  0  0  0  0
130131  1  0  0  0  0
130132  1  0  0  0  0
 11  2  1  0  0  0  0
 23 17  1  0  0  0  0
 61 24  1  0  0  0  0
 71 62  2  0  0  0  0
109 72  1  0  0  0  0
120111  1  0  0  0  0
132126  1  0  0  0  0
 10  5  1  0  0  0  0
 22 18  1  0  0  0  0
 33 27  1  0  0  0  0
 40 34  1  0  0  0  0
 60 41  2  0  0  0  0
 71 65  1  0  0  0  0
 81 75  1  0  0  0  0
 88 82  1  0  0  0  0
108 89  2  0  0  0  0
119114  1  0  0  0  0
131127  1  0  0  0  0
 23  7  1  0  0  0  0
 52 46  1  0  0  0  0
 59 53  1  0  0  0  0
100 94  1  0  0  0  0
107101  1  0  0  0  0
132116  1  0  0  0  0
  1133  1  0  0  0  0
  6134  1  0  0  0  0
  9135  1  0  0  0  0
 17136  1  0  0  0  0
 18137  1  0  0  0  0
 19138  1  0  0  0  0
 20139  1  0  0  0  0
 21140  1  0  0  0  0
 22141  1  0  0  0  0
 22142  1  0  0  0  0
 23143  1  0  0  0  0
 28144  1  0  0  0  0
 29145  1  0  0  0  0
 31146  1  0  0  0  0
 31147  1  0  0  0  0
 31148  1  0  0  0  0
 32149  1  0  0  0  0
 33150  1  0  0  0  0
 35151  1  0  0  0  0
 36152  1  0  0  0  0
 38153  1  0  0  0  0
 38154  1  0  0  0  0
 38155  1  0  0  0  0
 39156  1  0  0  0  0
 40157  1  0  0  0  0
 47158  1  0  0  0  0
 48159  1  0  0  0  0
 50160  1  0  0  0  0
 50161  1  0  0  0  0
 50162  1  0  0  0  0
 51163  1  0  0  0  0
 52164  1  0  0  0  0
 54165  1  0  0  0  0
 55166  1  0  0  0  0
 57167  1  0  0  0  0
 57168  1  0  0  0  0
 57169  1  0  0  0  0
 58170  1  0  0  0  0
 59171  1  0  0  0  0
 66172  1  0  0  0  0
 68173  1  0  0  0  0
 68174  1  0  0  0  0
 69175  1  0  0  0  0
 69176  1  0  0  0  0
 69177  1  0  0  0  0
 76178  1  0  0  0  0
 77179  1  0  0  0  0
 79180  1  0  0  0  0
 79181  1  0  0  0  0
 79182  1  0  0  0  0
 80183  1  0  0  0  0
 81184  1  0  0  0  0
 83185  1  0  0  0  0
 84186  1  0  0  0  0
 86187  1  0  0  0  0
 86188  1  0  0  0  0
 86189  1  0  0  0  0
 87190  1  0  0  0  0
 88191  1  0  0  0  0
 95192  1  0  0  0  0
 96193  1  0  0  0  0
 98194  1  0  0  0  0
 98195  1  0  0  0  0
 98196  1  0  0  0  0
 99197  1  0  0  0  0
100198  1  0  0  0  0
102199  1  0  0  0  0
103200  1  0  0  0  0
105201  1  0  0  0  0
105202  1  0  0  0  0
105203  1  0  0  0  0
106204  1  0  0  0  0
107205  1  0  0  0  0
110206  1  0  0  0  0
115207  1  0  0  0  0
118208  1  0  0  0  0
126209  1  0  0  0  0
127210  1  0  0  0  0
128211  1  0  0  0  0
129212  1  0  0  0  0
130213  1  0  0  0  0
131214  1  0  0  0  0
131215  1  0  0  0  0
132216  1  0  0  0  0
M  END
