215

C          1.29750       -7.09320        3.34560
C          1.49210       -6.21460        4.37190
C          0.51170       -5.18210        4.79410
O         -0.69380       -5.17520        4.65180
C          1.31990       -4.09840        5.38270
C          0.86030       -2.85020        5.79720
C          1.84720       -2.02120        6.27440
C          3.19760       -2.39770        6.32060
C          3.66240       -3.63110        5.92810
C          2.67090       -4.49540        5.45470
C          2.78020       -5.85390        4.93470
C          3.87530       -6.67170        5.00870
C          5.10430       -6.30250        5.59190
N          6.12710       -6.05460        6.05070
C          3.88130       -8.00720        4.55230
N          3.93850       -9.10160        4.21040
C          3.63090       -1.06620        6.88250
C          3.97590       -1.00220        8.39020
C          3.19390       -2.10940        9.05290
C          1.91190       -1.77000        9.02660
C          1.80380       -0.42710        8.34800
C          3.12690        0.21200        8.79930
C          2.12440       -0.65640        6.85020
C          0.05180       -7.25640        2.68960
C         -1.22590       -7.27650        3.19950
C         -2.24650       -6.99040        2.28880
C         -1.83260       -6.68520        1.01100
Se         0.02340       -7.01120        0.80390
C         -2.44840       -5.76110        0.11350
C         -2.93410       -4.53770        0.55760
N         -3.15640       -4.17720        1.88700
C         -2.31870       -3.16970        2.38200
C         -2.80360       -2.13400        3.18070
C         -1.96390       -1.12090        3.58640
C         -0.62410       -1.11060        3.20390
S          0.35200        0.26190        3.74360
C          2.02670       -0.15010        3.19100
C         -0.13170       -2.14770        2.42590
C         -0.97250       -3.16550        2.02410
C         -4.22300       -4.69720        2.61620
C         -4.16030       -4.78030        4.00630
C         -5.21290       -5.31050        4.72530
C         -6.34380       -5.77840        4.06790
S         -7.74770       -6.48340        4.87810
C         -7.29510       -6.46610        6.63590
C         -6.40380       -5.70860        2.67790
C         -5.35940       -5.17110        1.95840
C         -2.90490       -3.58070       -0.47990
S         -3.06250       -1.86900       -0.47700
C         -2.39490       -1.77630       -2.11480
C         -2.14900       -3.03370       -2.64820
N         -1.62840       -3.34660       -3.89420
C         -2.08880       -4.54000       -4.47700
C         -1.23660       -5.39640       -5.16830
C         -1.71440       -6.55830       -5.74310
C         -3.05320       -6.90180       -5.61560
S         -3.78570       -8.34140       -6.32830
C         -2.37230       -9.27920       -6.97290
C         -3.90260       -6.06850       -4.89100
C         -3.42980       -4.90240       -4.33560
C         -0.54880       -2.65150       -4.45150
C         -0.36810       -2.63600       -5.83670
C          0.72330       -2.01360       -6.39430
C          1.66330       -1.37130       -5.58920
S          3.01510       -0.60830       -6.42620
C          3.91020        0.26890       -5.11590
C          1.47940       -1.36220       -4.21350
C          0.38810       -2.00170       -3.65230
C         -2.43590       -4.04640       -1.69360
S         -2.08370       -5.74600       -1.60420
C         -1.98880       -0.44830       -2.46560
C         -2.04150        0.32510       -3.61730
N         -2.54570       -0.05470       -4.84420
C         -1.99550        0.53590       -5.99850
C         -2.79890        0.88350       -7.08420
C         -2.23590        1.43460       -8.21360
C         -0.86230        1.66550       -8.28400
S         -0.24480        2.34780       -9.78800
C          1.54680        2.44220       -9.51180
C         -0.06500        1.35450       -7.19280
C         -0.63020        0.79350       -6.06600
C         -3.59650       -0.97350       -4.95930
C         -4.59270       -1.06090       -3.98610
C         -5.62270       -1.96560       -4.12350
C         -5.69430       -2.79990       -5.23760
S         -7.03160       -3.95030       -5.28420
C         -6.83730       -4.78850       -6.88160
C         -4.71630       -2.70330       -6.21830
C         -3.68130       -1.80200       -6.07580
C         -1.51880        1.62390       -3.36730
S         -1.33780        3.07030       -4.29560
C         -0.58410        3.89260       -2.94140
C         -0.51440        3.08430       -1.81420
N         -0.14020        3.51660       -0.52200
C          1.03870        3.06810        0.07350
C          1.48530        3.71410        1.23030
C          2.66450        3.33780        1.82900
C          3.43740        2.31490        1.28450
S          4.93820        1.88910        2.12000
C          5.98410        1.29150        0.76160
C          2.99640        1.66170        0.14410
C          1.81060        2.03830       -0.46010
C         -1.26730        3.73760        0.31240
C         -2.21050        4.69460       -0.05470
C         -3.32720        4.89880        0.72570
C         -3.52790        4.14940        1.88390
S         -4.99510        4.49590        2.79960
C         -4.99880        3.23770        4.10860
C         -2.58960        3.19320        2.24900
C         -1.47260        2.98590        1.46440
C         -1.07490        1.82200       -2.06750
S         -1.32520        0.43590       -1.08380
C         -0.26200        5.27240       -3.03710
C          0.73640        5.91090       -2.37420
C          0.68160        7.37880       -2.11760
O         -0.07570        8.17240       -2.62600
C          1.70230        7.62620       -1.07970
C          1.94920        8.81570       -0.39820
C          2.95610        8.72860        0.53390
C          3.65890        7.54210        0.78840
C          3.43170        6.36260        0.12120
C          2.42510        6.43740       -0.84340
C          1.93570        5.40820       -1.75010
C          2.64330        4.29990       -2.14080
C          3.93180        3.97810       -1.67490
N          4.99420        3.66180       -1.37200
C          2.22770        3.40260       -3.14120
N          1.98040        2.63740       -3.96290
C          4.51770        8.18390        1.84830
C          5.97470        8.54320        1.46660
C          5.98400        8.75670       -0.02700
C          5.32750        9.88130       -0.27880
C          4.86220       10.44840        1.03970
C          6.01800       10.00170        1.94930
C          3.74410        9.50840        1.55630
H          2.16490       -7.54580        2.87390
H         -0.18450       -2.59100        5.72490
H          4.70260       -3.91020        5.96730
H          4.32590       -0.49520        6.26990
H          5.03950       -0.96770        8.60970
H          3.63370       -3.02250        9.40920
H          1.06590       -2.34440        9.35660
H          0.88950        0.13130        8.53060
H          3.15800        0.40520        9.87050
H          3.37770        1.12020        8.25320
H          1.83070        0.19060        6.23380
H         -1.42010       -7.49250        4.23480
H         -3.28210       -6.95660        2.57650
H         -3.84480       -2.12210        3.46510
H         -2.33930       -0.31420        4.19800
H          2.05820       -0.18430        2.10580
H          2.33830       -1.09320        3.63220
H          2.66550        0.65370        3.54410
H          0.90330       -2.17920        2.12560
H         -0.57610       -3.97100        1.42070
H         -3.26450       -4.46110        4.51590
H         -5.13000       -5.36500        5.79870
H         -6.40150       -7.06230        6.79580
H         -8.13520       -6.91490        7.15680
H         -7.15500       -5.44380        6.97520
H         -7.28240       -6.07650        2.17080
H         -5.41570       -5.11740        0.88110
H         -0.18750       -5.15710       -5.25500
H         -1.02510       -7.19090       -6.27860
H         -2.78470      -10.21450       -7.33830
H         -1.90470       -8.73930       -7.79130
H         -1.66560       -9.47440       -6.17170
H         -4.93800       -6.34650       -4.76740
H         -4.10100       -4.26430       -3.78280
H         -1.08710       -3.12860       -6.47220
H          0.85980       -2.00990       -7.46470
H          4.30500       -0.44070       -4.39440
H          4.73010        0.77880       -5.61260
H          3.25340        0.99790       -4.64760
H          2.18180       -0.86650       -3.56240
H          0.28160       -2.01520       -2.57770
H         -3.86510        0.71930       -7.03790
H         -2.85610        1.69900       -9.05620
H          1.96550        2.81980      -10.43950
H          1.76100        3.13340       -8.70180
H          1.94320        1.45300       -9.30160
H          0.99680        1.53190       -7.19970
H          0.00170        0.55220       -5.22730
H         -4.57390       -0.40300       -3.13080
H         -6.39070       -2.03160       -3.36780
H         -6.91140       -4.06590       -7.68910
H         -7.66070       -5.49350       -6.94110
H         -5.89260       -5.32400       -6.91160
H         -4.74120       -3.33000       -7.09450
H         -2.92830       -1.73380       -6.84540
H          0.89730        4.51920        1.64450
H          3.00910        3.84180        2.71890
H          7.00310        1.31770        1.13400
H          5.87260        1.96460       -0.08390
H          5.71610        0.27180        0.49870
H          3.57150        0.85710       -0.28720
H          1.48100        1.51680       -1.34610
H         -2.06250        5.27840       -0.95050
H         -4.05860        5.64150        0.44650
H         -4.15440        3.38860        4.77500
H         -5.92720        3.38560        4.65150
H         -4.98270        2.24600        3.66610
H         -2.71330        2.59120        3.13400
H         -0.75900        2.22840        1.75200
H         -0.93630        5.89240       -3.61850
H          1.38190        9.70780       -0.61270
H          3.96440        5.44880        0.32850
H          4.44140        7.75810        2.84670
H          6.72500        7.86210        1.85890
H          6.40330        8.05930       -0.72840
H          5.08930       10.31250       -1.23340
H          4.60140       11.50340        1.04320
H          5.80340       10.11420        3.01120
H          6.95770       10.49670        1.70930
H          3.16930        9.95450        2.36560
