152

C          0.30110       -5.69620        4.48060
C          0.54030       -5.31740        5.77830
C          0.97930       -3.98940        6.20960
O          1.41510       -3.09120        5.50640
C          0.79040       -3.94710        7.66930
C          0.95810       -2.84860        8.50670
C          0.60520       -3.07900        9.81460
C          0.14840       -4.32530       10.26110
C          0.01000       -5.42930        9.45210
C          0.34110       -5.20670        8.11320
C          0.27310       -6.10710        6.96170
C          0.04130       -7.45850        7.01840
C          0.02900       -8.32600        5.90730
N          0.01490       -9.10140        5.05880
C         -0.17610       -8.17680        8.21210
N         -0.35780       -8.81170        9.15140
C         -0.03980       -3.83980       11.67660
C         -1.48430       -3.53670       12.14680
C         -2.27190       -3.18170       10.90950
C         -1.84630       -2.00030       10.48240
C         -0.76320       -1.53440       11.42540
C         -1.27560       -2.13640       12.74410
C          0.46390       -2.44860       11.17850
C          0.36080       -4.93710        3.30560
C         -0.15720       -5.40630        2.09440
C         -0.14440       -4.46450        1.08240
O         -0.60610       -4.58000       -0.17940
C         -1.16140       -5.82110       -0.58130
C         -1.66570       -5.65770       -2.00410
C          0.42350       -3.24050        1.48540
S          0.93490       -3.29730        3.14170
C          0.54390       -2.11690        0.64290
C          1.13210       -0.87400        0.89160
N          1.71370       -0.42330        2.07210
C          1.02280       -0.38830        3.27920
C          1.71030       -0.19760        4.47790
C          1.03420       -0.15030        5.67760
C         -0.34340       -0.31660        5.70950
S         -1.28400       -0.30530        7.20870
C         -0.31230        0.79600        8.28360
C         -1.03540       -0.52710        4.52290
C         -0.36440       -0.55180        3.32030
C          2.92380        0.27320        1.89510
C          3.90850       -0.29080        1.08760
C          5.08740        0.38080        0.83100
C          5.30340        1.63460        1.38650
S          6.75690        2.60060        1.12710
C          7.79360        1.56630        0.05350
C          4.32260        2.20130        2.20010
C          3.14460        1.53400        2.44950
C          1.08950       -0.05910       -0.25850
S          1.66170        1.53370       -0.59700
C          0.96080        1.46800       -2.22210
C          0.37200        0.22740       -2.48460
N         -0.20080       -0.18230       -3.66890
C          0.34960        0.14340       -4.91370
C         -0.47600        0.27970       -6.02790
C          0.04600        0.62510       -7.25660
C          1.40720        0.86550       -7.39030
S          2.17290        1.38150       -8.89140
C          0.78380        1.59060      -10.03740
C          2.24200        0.70530       -6.28540
C          1.72360        0.33820       -5.06430
C         -1.30360       -1.05180       -3.60230
C         -2.32050       -0.82080       -2.67540
C         -3.39650       -1.67560       -2.59940
C         -3.48830       -2.77350       -3.45330
S         -4.90360       -3.80930       -3.25130
C         -4.78880       -4.98540       -4.62880
C         -2.48150       -3.00250       -4.38240
C         -1.39750       -2.15060       -4.45080
C          0.44540       -0.61840       -1.34870
S         -0.09530       -2.22610       -0.99830
C          1.02970        2.66510       -2.97040
C          1.77670        3.77710       -2.60190
C          1.61390        4.87000       -3.44820
O          2.21650        6.06950       -3.39230
C          3.06930        6.35570       -2.29450
C          2.29260        6.67920       -1.02250
C          0.71660        4.61450       -4.50180
S          0.09390        2.98670       -4.39560
C          0.36320        5.52480       -5.50020
C         -0.42800        5.30820       -6.58890
S         -1.15250        3.78210       -7.04960
C         -1.86330        4.51510       -8.47500
C         -2.59750        3.74420       -9.34830
C         -2.74820        2.37020       -9.08780
N         -2.85600        1.24380       -8.89030
C         -3.22910        4.17120      -10.52690
N         -3.77330        4.44090      -11.50280
N         -1.56610        5.83240       -8.56250
C         -2.06070        6.73300       -9.58580
C         -3.48290        7.19320       -9.28670
C         -0.76310        6.34760       -7.53990
O         -0.42030        7.50940       -7.50080
H         -0.07470       -6.70040        4.32400
H          1.32980       -1.91800        8.11170
H         -0.34220       -6.38030        9.81530
H          0.54600       -4.35100       12.43790
H         -1.91780       -4.29780       12.79050
H         -2.99490       -3.83100       10.45220
H         -2.14170       -1.47040        9.59570
H         -0.54160       -0.47000       11.41670
H         -2.20610       -1.68040       13.08080
H         -0.54080       -2.11010       13.54840
H          1.37460       -2.04750       11.62080
H         -0.55400       -6.40120        2.00220
H         -0.39120       -6.60230       -0.52680
H         -1.98780       -6.09230        0.08800
H         -2.05840       -6.60400       -2.36500
H         -0.85500       -5.33110       -2.64980
H         -2.44930       -4.90600       -2.02960
H          2.78550       -0.10960        4.47040
H          1.59530       -0.00060        6.58620
H          0.52330        0.26270        8.72740
H          0.02950        1.65100        7.70790
H         -0.98790        1.12300        9.06940
H         -2.10610       -0.66380        4.55100
H         -0.91750       -0.69210        2.40370
H          3.74170       -1.26630        0.65450
H          5.82620       -0.08490        0.19880
H          7.28810        1.38580       -0.89140
H          8.69830        2.14120       -0.11740
H          8.03840        0.63550        0.55660
H          4.49440        3.18010        2.62130
H          2.38030        1.99220        3.05860
H         -1.54030        0.13250       -5.93140
H         -0.63080        0.71700       -8.08890
H          0.08540        2.31950       -9.63820
H          1.21750        1.95900      -10.96210
H          0.29280        0.63830      -10.21210
H          3.30220        0.87250       -6.39920
H          2.38090        0.20970       -4.21700
H         -2.26340        0.03730       -2.02210
H         -4.18510       -1.50010       -1.88350
H         -3.90890       -5.61260       -4.51510
H         -4.77290       -4.44750       -5.57210
H         -5.68480       -5.59490       -4.56590
H         -2.52230       -3.84660       -5.05160
H         -0.61210       -2.33960       -5.16710
H          2.42080        3.75310       -1.74120
H          3.76590        5.52600       -2.12730
H          3.63890        7.23110       -2.61850
H          2.98580        6.96520       -0.23620
H          1.60930        7.50390       -1.20790
H          1.71680        5.81880       -0.68820
H          0.76540        6.52580       -5.39840
H         -1.38370        7.59200       -9.57400
H         -2.00680        6.24140      -10.55900
H         -3.80430        7.88960      -10.05530
H         -4.17280        6.35240       -9.27720
H         -3.51850        7.69390       -8.32170
