232

C         -5.60390        5.49710        2.89090
C         -6.07710        5.31070        4.16650
C         -7.39350        5.86230        4.55520
O         -8.09660        6.60660        3.90490
C         -7.69510        5.27020        5.87600
C         -8.85120        5.44170        6.63360
C         -8.83400        4.78590        7.84180
C         -7.74360        4.01900        8.27060
C         -6.59580        3.84310        7.53480
C         -6.59860        4.49470        6.29950
C         -5.55150        4.57630        5.28120
C         -4.23070        4.22340        5.46400
C         -3.19460        4.66860        4.62840
N         -2.31270        5.05040        3.99660
C         -3.74960        3.45300        6.53670
N         -3.30100        2.77940        7.35300
C         -8.40020        3.67220        9.58480
C         -9.00100        2.25700        9.71340
C         -9.96500        2.37530       10.87150
C        -10.99980        3.09850       10.46290
C        -10.75240        3.48140        9.02150
C         -9.99260        2.23780        8.54360
C         -9.61860        4.52510        9.10550
C         -4.65540        4.75710        2.17360
C         -4.17630        3.44050        2.32940
N         -4.72770        2.46810        3.11720
C         -4.02020        1.25560        3.34650
C         -4.57260        0.05920        2.90200
C         -3.92730       -1.13710        3.14560
C         -2.73250       -1.17020        3.85310
C         -2.02860       -2.45880        4.14170
C         -2.19780        0.03140        4.30170
C         -2.81810        1.23860        4.04490
C         -6.08950        2.43950        3.46930
C         -7.08470        2.94010        2.63480
C         -8.40630        2.89870        3.02880
C         -8.77930        2.34150        4.24690
C        -10.21190        2.34330        4.67900
C         -7.78530        1.79900        5.05210
C         -6.45760        1.84980        4.67750
C         -3.06840        3.21810        1.48190
S         -1.97570        1.90270        1.25510
C         -1.07370        2.81820        0.04760
C         -1.64500        4.05170       -0.20710
N         -1.17990        4.98650       -1.11940
C         -1.21890        6.34430       -0.76600
C         -1.55740        7.32210       -1.69740
C         -1.58880        8.65260       -1.32890
C         -1.30060        9.04620       -0.02910
C         -1.33130       10.48860        0.37490
C         -0.97390        8.06280        0.89730
C         -0.92730        6.73060        0.54130
C         -0.96480        4.61540       -2.45520
C          0.05660        5.21800       -3.18690
C          0.23010        4.90440       -4.51750
C         -0.60020        3.98690       -5.15440
C         -0.42140        3.69990       -6.61300
C         -1.59440        3.36690       -4.41240
C         -1.78050        3.67410       -3.07710
C         -2.76040        4.27520        0.63950
S         -3.84120        5.59860        0.84800
C          0.11210        2.17580       -0.44010
C          0.98760        1.49080        0.38360
N          0.93780        1.39300        1.77380
C          0.85580        2.48720        2.62960
C          1.09800        3.78580        2.18590
C          1.02370        4.85180        3.06170
C          0.68850        4.64700        4.39240
S          0.61600        5.95670        5.57910
C         -0.01750        7.33280        4.57490
C          0.44380        3.35420        4.84080
C          0.52730        2.29030        3.97160
C          1.17520        0.08280        2.23210
C          2.16380       -0.22000        3.16660
C          2.53690       -1.53280        3.37180
C          1.94060       -2.55560        2.64270
S          2.60450       -4.19550        2.74960
C          2.54580       -4.67760        0.99430
C          0.87090       -2.26810        1.80370
C          0.48810       -0.95870        1.60770
C          1.93060        0.75410       -0.37180
S          3.22570       -0.29350        0.07190
C          3.41320       -0.77200       -1.59980
C          2.58780       -0.07980       -2.46460
N          2.58560       -0.23470       -3.84180
C          1.39650       -0.12120       -4.57180
C          1.45330        0.30110       -5.89780
C          0.30590        0.40730       -6.65650
C         -0.92730        0.11260       -6.09200
S         -2.46420        0.26970       -6.95440
C         -1.96970        0.36750       -8.69960
C         -0.99050       -0.31600       -4.76990
C          0.15790       -0.44730       -4.02040
C          3.70310       -0.82300       -4.46700
C          3.53730       -1.91570       -5.31960
C          4.63410       -2.59390       -5.79600
C          5.92390       -2.19080       -5.45080
S          7.23440       -3.22930       -6.00850
C          8.72200       -2.52460       -5.25050
C          6.09310       -1.04140       -4.69110
C          4.98930       -0.36660       -4.20320
C          1.75260        0.81880       -1.74220
S          0.48570        1.93550       -2.14620
C          4.30030       -1.88830       -1.87780
C          5.67380       -1.84580       -1.59980
C          6.43950       -0.75850       -1.08570
C          7.75930       -1.02460       -0.98440
C          8.86020       -0.11810       -0.55840
C          9.67590        0.35200       -1.76530
S          8.14240       -2.65200       -1.50600
C          6.47890       -2.95900       -1.90420
C          5.98230       -4.15720       -2.42680
C          4.60570       -4.18820       -2.72050
C          3.80460       -3.06960       -2.41280
S          2.13340       -3.35970       -2.80010
C          2.52970       -4.91890       -3.47280
C          1.45660       -5.73760       -4.10000
C          0.88940       -5.05050       -5.34370
C          3.84780       -5.20420       -3.36430
C          6.88400       -5.24830       -2.65520
C          6.64750       -6.55800       -2.38640
C          5.53370       -7.06840       -1.54550
O          4.63440       -6.43540       -1.03080
C          5.79420       -8.50790       -1.37070
C          5.01980       -9.40720       -0.64110
C          5.50260      -10.69300       -0.64470
C          6.67900      -11.05680       -1.31470
C          7.45780      -10.17820       -2.02870
C          6.97900       -8.86420       -2.04660
C          7.53060       -7.67310       -2.68500
C          8.66100       -7.62860       -3.45790
C          9.18830       -6.47760       -4.08060
N          9.69930       -5.60200       -4.62080
C          9.47680       -8.74370       -3.74450
N         10.18450       -9.60480       -4.01980
C          6.56200      -12.50200       -0.90010
C          6.05840      -13.51520       -1.95770
C          5.20400      -12.73510       -2.92580
C          4.08930      -12.39050       -2.29490
C          4.16990      -12.93140       -0.88880
C          4.96520      -14.22230       -1.14060
C          5.25020      -12.09700       -0.15650
H         -6.06010        6.32200        2.35140
H         -9.66100        6.05890        6.27610
H         -5.76060        3.25410        7.87650
H         -7.86390        3.98930       10.47730
H         -8.26980        1.45460        9.76530
H         -9.77480        1.98260       11.85310
H        -11.84620        3.43030       11.03520
H        -11.61870        3.79270        8.44340
H        -10.61760        1.34590        8.54460
H         -9.52320        2.35990        7.57040
H         -9.89440        5.40620        9.68210
H         -5.50890        0.07540        2.36290
H         -4.36340       -2.05690        2.78410
H         -2.55270       -3.29960        3.69510
H         -1.01240       -2.42970        3.75020
H         -1.96410       -2.62070        5.21680
H         -1.28540        0.01330        4.87730
H         -2.37500        2.16090        4.38890
H         -6.82520        3.35600        1.67330
H         -9.16340        3.30420        2.37440
H        -10.87580        2.33200        3.81810
H        -10.42060        3.24780        5.25200
H        -10.43210        1.48420        5.30850
H         -8.04730        1.33670        5.99260
H         -5.69580        1.43450        5.32130
H         -1.80620        7.03610       -2.70850
H         -1.85680        9.39640       -2.06560
H         -0.31860       10.85530        0.54530
H         -1.89030       10.61440        1.30050
H         -1.79060       11.09930       -0.39810
H         -0.75380        8.34910        1.91540
H         -0.67570        5.98000        1.27560
H          0.69950        5.93900       -2.70390
H          1.01990        5.38350       -5.07840
H          0.53280        3.20300       -6.78480
H         -1.22110        3.06040       -6.97510
H         -0.42610        4.62630       -7.18630
H         -2.24450        2.64510       -4.88440
H         -2.57230        3.19940       -2.51610
H          1.36960        3.96230        1.15520
H          1.24680        5.84350        2.69980
H          0.76950        7.73640        3.94390
H         -0.35040        8.09110        5.27680
H         -0.85540        6.96470        3.99060
H          0.18130        3.19360        5.87540
H          0.33420        1.29120        4.32570
H          2.68060        0.57700        3.67940
H          3.33640       -1.77110        4.05590
H          1.57500       -5.09770        0.74780
H          3.31910       -5.42230        0.83600
H          2.75340       -3.80250        0.38660
H          0.35590       -3.05970        1.28190
H         -0.32290       -0.72530        0.93310
H          2.41080        0.54110       -6.33670
H          0.38630        0.72850       -7.68260
H         -2.89050        0.29220       -9.26970
H         -1.31530       -0.46510       -8.93950
H         -1.48820        1.31900       -8.90740
H         -1.95010       -0.56160       -4.34150
H          0.10130       -0.83130       -3.01370
H          2.54180       -2.24910       -5.57040
H          4.50970       -3.46570       -6.41990
H          8.57100       -2.41090       -4.18140
H          8.96890       -1.57670       -5.72020
H          9.50580       -3.25370       -5.43180
H          7.07810       -0.67090       -4.45600
H          5.12680        0.50820       -3.58500
H          6.00260        0.18170       -0.80070
H          8.42940        0.74300       -0.04390
H          9.51990       -0.64200        0.13720
H          9.03890        0.88650       -2.46700
H         10.11940       -0.49990       -2.27650
H         10.47320        1.01720       -1.44460
H          1.86900       -6.71230       -4.36790
H          0.64950       -5.89360       -3.37940
H          1.67560       -4.89110       -6.07850
H          0.45860       -4.08670       -5.07930
H          0.11390       -5.66580       -5.79260
H          4.28100       -6.11160       -3.74510
H          7.86730       -4.95850       -3.00790
H          4.12460       -9.08160       -0.13440
H          8.36440      -10.47320       -2.52990
H          7.38420      -12.89580       -0.30620
H          6.83660      -14.13430       -2.39580
H          5.51380      -12.47280       -3.92050
H          3.28120      -11.78210       -2.65710
H          3.22810      -13.01970       -0.35360
H          5.33730      -14.68730       -0.22890
H          4.40830      -14.95280       -1.72550
H          5.21410      -12.22790        0.92320
