234

C          0.87680      -10.28470        6.76050
C          1.81790      -11.20740        6.42470
C          2.27780      -11.57280        5.05870
O          2.10560      -10.98060        4.01380
C          2.95270      -12.87670        5.20460
C          3.48390      -13.65410        4.17730
C          4.05490      -14.82900        4.60230
C          4.08510      -15.21210        5.95060
C          3.56240      -14.45780        6.97310
C          2.98720      -13.25120        6.56250
C          2.35400      -12.19870        7.34620
C          2.35100      -12.10550        8.71270
C          1.84010      -11.01190        9.44470
N          1.47210      -10.15130       10.11040
C          2.90600      -13.07090        9.57830
N          3.33130      -13.81880       10.33860
C          4.81000      -16.49990        5.65090
C          6.32600      -16.56030        5.96180
C          6.83720      -15.14340        5.87860
C          6.81300      -14.77860        4.60370
C          6.28440      -15.94210        3.80170
C          6.84330      -17.11390        4.62450
C          4.78050      -16.07120        4.14990
C          0.31960       -9.22780        5.96640
C          1.04900       -8.58540        4.96430
C          0.43440       -7.57430        4.25150
N          0.93940       -6.79700        3.24030
C          2.24900       -6.95790        2.66480
C          2.30080       -8.15070        1.71200
C         -0.01960       -5.89650        2.86220
C         -1.18210       -6.08720        3.65570
C         -0.89630       -7.17130        4.53600
C         -1.60760       -7.80050        5.55650
C         -0.99640       -8.80570        6.26380
C         -2.27780       -5.24350        3.50640
C         -2.18010       -4.18770        2.63390
C         -1.01670       -3.97680        1.87300
C          0.04810       -4.86400        1.93880
C         -0.90770       -2.73500        1.12240
C         -1.08370       -1.47940        1.66750
N         -1.27020       -1.21710        3.01870
C         -1.92690       -0.04220        3.39480
C         -1.43790        0.75070        4.43000
C         -2.04380        1.95130        4.74370
C         -3.14930        2.38370        4.02290
S         -3.98100        3.91310        4.31920
C         -2.81640        4.85270        5.34350
C         -3.66700        1.57630        3.01430
C         -3.06830        0.37510        2.70670
C         -0.60130       -2.01170        3.96530
C          0.70560       -2.44110        3.73530
C          1.30330       -3.33720        4.59070
C          0.61360       -3.82350        5.69900
S          1.43960       -5.06380        6.64690
C          0.19320       -5.61010        7.84430
C         -0.65290       -3.33050        5.98080
C         -1.25250       -2.42990        5.12080
C         -0.93330       -0.47430        0.68290
S         -1.03120        1.24280        0.72470
C         -0.58610        1.32640       -0.97510
C         -0.34140        0.06830       -1.52280
N          0.11870       -0.18530       -2.80620
C          1.08460        0.62640       -3.40580
C          1.06950        0.83940       -4.78430
C          1.94540        1.72900       -5.37190
C          2.85190        2.43290       -4.59140
S          3.95500        3.66310       -5.21610
C          3.45230        3.86850       -6.94660
C          2.91170        2.17790       -3.22230
C          2.04720        1.28130       -2.63600
C         -0.41080       -1.27910       -3.50700
C         -1.77610       -1.54570       -3.47030
C         -2.30360       -2.60290       -4.18480
C         -1.47200       -3.40350       -4.95530
S         -2.05670       -4.76960       -5.91210
C         -3.75280       -4.26290       -6.32340
C         -0.10220       -3.15530       -4.97450
C          0.42490       -2.10630       -4.25630
C         -0.57600       -0.95000       -0.56790
S         -0.44840       -2.67920       -0.56870
C         -0.65950        2.58350       -1.62430
C         -0.64540        3.84990       -1.04270
N         -0.39900        4.10020        0.30520
C          0.74010        3.57790        0.91990
C          0.72010        3.22090        2.27150
C          1.82560        2.64660        2.85410
C          2.97910        2.41090        2.10720
S          4.32200        1.63060        2.95200
C          5.70740        1.77320        1.78640
C          3.00870        2.77350        0.76850
C          1.90050        3.35680        0.18450
C         -1.25680        4.97410        0.98350
C         -0.76380        5.87900        1.92290
C         -1.62550        6.71370        2.59770
C         -2.99460        6.67160        2.34470
S         -4.01070        7.76820        3.28760
C         -5.68450        7.10980        3.04090
C         -3.48590        5.79570        1.38820
C         -2.62270        4.95140        0.71900
C         -0.88190        4.86270       -1.99570
S         -0.86830        6.59210       -1.94840
C         -1.08210        6.65460       -3.70590
C         -1.11290        5.35860       -4.27670
N         -1.15260        5.05690       -5.62060
C         -1.73910        3.83470       -5.99020
C         -2.95950        3.46070       -5.43330
C         -3.50480        2.21930       -5.69240
C         -2.83890        1.33040       -6.52450
S         -3.39970       -0.30650       -6.86720
C         -4.96600       -0.42510       -5.95430
C         -1.64810        1.72390       -7.13320
C         -1.10440        2.96160       -6.87300
C         -0.40470        5.78040       -6.56390
C          0.82450        6.34680       -6.21970
C          1.50860        7.11680       -7.13290
C          0.99290        7.31780       -8.41220
S          1.90290        8.37440       -9.49510
C          0.62950        8.94540      -10.65720
C         -0.18800        6.68900       -8.78140
C         -0.88720        5.93410       -7.86020
C         -1.04630        4.37360       -3.28640
S         -0.97050        2.64740       -3.34900
C         -1.23430        7.81540       -4.46320
C         -1.12000        9.13990       -4.10920
C         -0.77590        9.65460       -2.78140
O         -0.65930        9.02160       -1.74590
C         -0.58840       11.10860       -2.93870
C         -0.23750       12.02340       -1.95020
C         -0.12750       13.31770       -2.40050
C         -0.34630       13.67480       -3.73680
C         -0.69540       12.78080       -4.72190
C         -0.81680       11.46000       -4.28430
C         -1.18960       10.25370       -5.02290
C         -1.54610       10.21810       -6.35060
C         -2.04820        9.09900       -7.03880
N         -2.50050        8.26030       -7.68400
C         -1.49120       11.31710       -7.22990
N         -1.45640       12.14560       -8.02560
C         -0.06920       15.13430       -3.47620
C         -1.28110       16.09410       -3.38570
C         -2.45580       15.25940       -2.93960
C         -2.25350       14.91990       -1.67350
C         -0.93880       15.51980       -1.24040
C         -0.94530       16.81390       -2.06980
C          0.17060       14.73680       -1.98560
H          0.43830      -10.37420        7.74860
H          3.43270      -13.32480        3.15120
H          3.58470      -14.76890        8.00430
H          4.29210      -17.41520        5.93010
H          6.57990      -17.10980        6.86420
H          7.10130      -14.55120        6.73520
H          7.05280      -13.82010        4.18180
H          6.50150      -15.92960        2.73680
H          7.92980      -17.17490        4.58620
H          6.41100      -18.07720        4.35710
H          4.24540      -16.70770        3.44770
H          2.07450       -8.85280        4.78280
H          2.50420       -6.03780        2.13510
H          2.96950       -7.09430        3.47710
H          1.57580       -8.02360        0.91100
H          2.07580       -9.07190        2.24380
H          3.29240       -8.23340        1.27510
H         -2.61750       -7.49490        5.78720
H         -1.53120       -9.30650        7.05760
H         -3.17240       -5.39910        4.08980
H         -2.99920       -3.49230        2.52890
H          0.92380       -4.69430        1.33090
H         -0.56540        0.42790        4.97870
H         -1.63590        2.54730        5.54470
H         -2.75800        4.42240        6.33910
H         -1.84500        4.87340        4.85820
H         -3.21860        5.85980        5.39940
H         -4.54080        1.90650        2.47390
H         -3.47450       -0.24680        1.92270
H          1.24100       -2.07860        2.87060
H          2.30800       -3.68500        4.40500
H         -0.03270       -4.80830        8.54140
H          0.64240       -6.44390        8.37510
H         -0.69490       -5.94550        7.31660
H         -1.19370       -3.65640        6.85450
H         -2.24800       -2.06680        5.33000
H          0.33760        0.33260       -5.39450
H          1.89490        1.87720       -6.43800
H          3.64390        2.95630       -7.50420
H          4.06810        4.67320       -7.33640
H          2.40560        4.15610       -6.99610
H          3.64450        2.70080       -2.62650
H          2.09640        1.09950       -1.57260
H         -2.42430       -0.91100       -2.88290
H         -3.36400       -2.79400       -4.13960
H         -4.07890       -4.92920       -7.11570
H         -3.73220       -3.23790       -6.68120
H         -4.40500       -4.37300       -5.46170
H          0.53970       -3.79530       -5.55980
H          1.48680       -1.91200       -4.27470
H         -0.17980        3.37240        2.84810
H          1.80540        2.35720        3.89360
H          6.57880        1.40990        2.32250
H          5.84900        2.81410        1.51140
H          5.53000        1.15350        0.91180
H          3.88800        2.61010        0.16590
H          1.93290        3.64220       -0.85660
H          0.29720        5.92230        2.11790
H         -1.24740        7.41410        3.32710
H         -5.68730        6.04590        3.25920
H         -6.02130        7.31060        2.02780
H         -6.31610        7.63830        3.74810
H         -4.53910        5.75110        1.16390
H         -3.01130        4.25580       -0.01040
H         -3.47620        4.14630       -4.77810
H         -4.44370        1.96040       -5.23150
H         -5.65770        0.33420       -6.30660
H         -4.77940       -0.32950       -4.88860
H         -5.36610       -1.41030       -6.17380
H         -1.14810        1.03750       -7.79960
H         -0.17430        3.25350       -7.33620
H          1.22650        6.19840       -5.22840
H          2.44790        7.57510       -6.86450
H         -0.26040        9.22900      -10.10340
H          0.40930        8.17330      -11.38900
H          1.05000        9.81360      -11.15480
H         -0.59000        6.80230       -9.77440
H         -1.82420        5.47830       -8.13910
H         -1.44980        7.62580       -5.50740
H         -0.07600       11.70460       -0.93220
H         -0.86050       13.07170       -5.74600
H          0.76280       15.56740       -4.02820
H         -1.43670       16.70930       -4.26800
H         -3.25900       14.96160       -3.58790
H         -2.85370       14.28110       -1.05240
H         -0.78370       15.61270       -0.16860
H          0.01750       17.32290       -2.08720
H         -1.72360       17.50960       -1.75940
H          1.15800       14.91440       -1.56330
