126

C         -0.09980        5.20800        7.37360
C         -1.43100        5.42800        7.53920
C         -2.54840        4.73880        6.83840
O         -2.50410        4.00900        5.87010
C         -3.76190        5.06090        7.61050
C         -5.05200        4.59890        7.35310
C         -5.99760        5.06040        8.23560
C         -5.68410        5.91350        9.30340
C         -4.41840        6.37850        9.56700
C         -3.43980        5.92550        8.67490
C         -2.01110        6.21060        8.62330
C         -1.34970        7.11810        9.40640
C          0.01290        7.46660        9.28030
N          1.10240        7.82700        9.23690
C         -1.94950        7.86830       10.44020
N         -2.36870        8.50540       11.29810
C         -7.11190        5.96360        9.78690
C         -7.45470        5.10010       11.01950
C         -8.96000        4.97270       10.96300
C         -9.25950        4.17040        9.94950
C         -7.96150        3.74120        9.30420
C         -7.05370        3.69890       10.54010
C         -7.46220        5.01730        8.59390
C          0.56350        4.48550        6.32270
C          0.07110        4.45230        5.01820
C          0.73790        3.68020        4.08470
N          0.42560        3.45370        2.76960
C         -0.73270        3.97180        2.08680
C         -1.98660        3.16780        2.42460
C          1.33610        2.57010        2.25590
C          2.30550        2.25740        3.24740
C          1.91510        2.96060        4.42490
C          2.43230        3.05080        5.71640
C          1.76460        3.81230        6.64280
C          3.36400        1.41120        2.92820
C          3.42490        0.85760        1.67080
C          2.43430        1.12130        0.70240
C          1.39110        2.00140        0.99710
C          2.44870        0.54130       -0.62180
C          1.87010        1.07750       -1.76730
C          2.11480        0.18880       -2.85290
C          2.85270       -0.93940       -2.35000
O          3.27090       -1.95040       -2.87260
N          3.02960       -0.65100       -0.97530
C          3.61500       -1.65220       -0.12450
C          1.60750        0.74380       -4.01640
N          1.05100        1.95720       -3.67770
C          0.33500        2.86480       -4.53030
C          1.15310        2.21290       -2.29380
O          0.66660        3.20010       -1.77390
C          1.64160        0.14910       -5.30900
C          1.45740        0.71700       -6.56000
C          1.57060       -0.21260       -7.58480
S          1.35100        0.16090       -9.29170
C          2.67140        1.40790       -9.52430
C          4.04270        0.78930       -9.34410
C          1.82410       -1.51820       -7.13530
S          1.90780       -1.56820       -5.40130
C          2.11960       -2.57000       -8.01820
C          2.34620       -3.88920       -7.74340
C          2.03630       -4.56110       -6.47070
O          1.67840       -4.04400       -5.43040
C          2.18980       -6.00410       -6.72860
C          1.96800       -7.04290       -5.82720
C          2.19550       -8.29340       -6.34940
C          2.60950       -8.49840       -7.67260
C          2.83670       -7.48280       -8.57090
C          2.61420       -6.20060       -8.05920
C          2.77490       -4.89440       -8.69300
C          3.33080       -4.65630       -9.92390
C          3.62870       -3.37550      -10.43460
N          3.94070       -2.37400      -10.90340
C          3.74050       -5.66310      -10.82170
N          4.08560       -6.43290      -11.60070
C          2.63650       -9.99870       -7.51610
C          1.45250      -10.77970       -8.12450
C          1.49900      -12.11480       -7.41680
C          1.10970      -11.92090       -6.16320
C          0.79350      -10.45140       -6.00240
C          0.25660      -10.14180       -7.40580
C          2.17780       -9.76970       -6.04010
H          0.56100        5.56530        8.15520
H         -5.24830        3.94290        6.51940
H         -4.19380        7.03430       10.39130
H         -7.56640        6.95180        9.82050
H         -7.02770        5.45180       11.95460
H         -9.63170        5.50600       11.60980
H        -10.23120        3.89960        9.58040
H         -7.99650        2.85450        8.67690
H         -5.99500        3.59400       10.30990
H         -7.35180        2.92280       11.24310
H         -8.14880        5.37600        7.82940
H         -0.79670        5.02760        4.74790
H         -0.53570        3.94350        1.01290
H         -0.86850        5.01650        2.38120
H         -2.19250        3.21490        3.49140
H         -2.83960        3.56950        1.88470
H         -1.85330        2.12640        2.14010
H          3.33880        2.52750        5.97970
H          2.14010        3.88170        7.65300
H          4.12940        1.19640        3.65840
H          4.27070        0.24310        1.41530
H          0.64950        2.22480        0.25040
H          3.06980       -1.72860        0.81560
H          4.66960       -1.44550        0.07310
H          3.55420       -2.59780       -0.66680
H         -0.40780        2.33470       -5.12740
H         -0.16500        3.57930       -3.87420
H          1.01540        3.41430       -5.18490
H          1.27060        1.75930       -6.73730
H          2.52670        1.76180      -10.54400
H          2.49480        2.22770       -8.82900
H          4.16440       -0.06260      -10.00980
H          4.81160        1.52470       -9.57170
H          4.17990        0.44990       -8.31850
H          2.16860       -2.25590       -9.05550
H          1.65460       -6.83940       -4.81530
H          3.15790       -7.65510       -9.58470
H          3.59790      -10.47610       -7.69510
H          1.43170      -10.80180       -9.21060
H          1.85220      -13.02220       -7.87040
H          1.07290      -12.63390       -5.36050
H          0.17180      -10.17430       -5.15520
H         -0.67540      -10.66460       -7.61440
H          0.13170       -9.07970       -7.60860
H          2.83420      -10.09390       -5.23470
