131

C          5.18060       -0.85000        6.49350
C          6.41490       -0.85060        7.07220
C          7.56970        0.06710        6.90040
O          7.71640        0.97960        6.11420
C          8.55770       -0.32660        7.92170
C          9.78290        0.29230        8.16430
C         10.50170       -0.27440        9.18800
C         10.03180       -1.37070        9.92490
C          8.82590       -1.98790        9.69710
C          8.08180       -1.43350        8.64860
C          6.78210       -1.81520        8.10820
C          6.08400       -2.93540        8.47860
C          6.51080       -3.85250        9.46380
N          6.78250       -4.64560       10.24860
C          4.86110       -3.39250        7.94060
N          3.88050       -3.86770        7.57370
C         11.26070       -1.41150       10.79890
C         12.29660       -2.51060       10.48160
C         13.56200       -2.01710       11.14530
C         14.00780       -0.98200       10.44490
C         13.05110       -0.75820        9.29610
C         12.63220       -2.20720        9.01570
C         11.78570       -0.19200        9.97510
C          4.54950       -0.11510        5.43760
C          3.21660       -0.47470        5.16860
C          2.55340        0.13800        4.12690
N          1.27290       -0.05630        3.66740
C          0.32250       -0.99970        4.19400
C          0.46090       -2.37170        3.53660
C          1.08210        0.74030        2.56660
C          2.25110        1.50850        2.32940
C          3.19630        1.12210        3.32750
C          4.51010        1.48590        3.60950
C          5.17250        0.87360        4.64690
C          2.28650        2.40220        1.26340
C          1.18450        2.50560        0.44610
C          0.03420        1.73110        0.67040
C         -0.02350        0.84460        1.73920
C         -1.11440        1.84120       -0.23440
C         -0.97210        1.87510       -1.60560
F          0.24680        1.79800       -2.16660
C         -2.06790        1.94670       -2.47720
F         -1.80020        1.97450       -3.79100
C         -3.37540        2.01210       -2.02840
C         -3.55830        1.99610       -0.61300
N         -4.80090        2.03130       -0.10240
C         -4.97770        2.00180        1.19500
C         -6.40000        2.08480        1.66350
C         -6.81000        3.54780        1.85240
C         -3.86120        1.94660        2.07360
N         -2.64430        1.89830        1.59450
C         -2.44470        1.90520        0.26460
C         -3.97980        1.87820        3.56670
C         -4.11570        0.42140        4.01750
C         -4.49680        2.05400       -2.93660
C         -5.72540        2.63420       -2.68580
C         -6.61740        2.46670       -3.74230
O         -7.88430        2.90890       -3.82280
C         -8.39840        3.63040       -2.72580
C         -6.07590        1.73260       -4.82050
S         -4.42830        1.28210       -4.48350
C         -6.83190        1.46360       -5.96820
C         -6.50500        0.74630       -7.08900
C         -5.23910        0.03690       -7.30360
O         -4.27420        0.00220       -6.55990
C         -5.36350       -0.64900       -8.60090
C         -4.41410       -1.46440       -9.21140
C         -4.81590       -1.98100      -10.41970
C         -6.06820       -1.70080      -10.98180
C         -7.01150       -0.89330      -10.39150
C         -6.62650       -0.36240       -9.15720
C         -7.35360        0.51580       -8.24020
C         -8.60790        1.02560       -8.46000
C         -9.38840        0.76240       -9.60490
N        -10.08700        0.59580      -10.50130
C         -9.31550        1.88930       -7.59750
N         -9.97110        2.59440       -6.97030
C         -5.80620       -2.56080      -12.19260
C         -6.47930       -3.95470      -12.24450
C         -6.70100       -4.37800      -10.81370
C         -5.51560       -4.64420      -10.28170
C         -4.47060       -4.40520      -11.34340
C         -5.25840       -4.81970      -12.59650
C         -4.41070       -2.87350      -11.56610
H          4.50550       -1.58720        6.91350
H         10.09890        1.14050        7.57750
H          8.47710       -2.82240       10.28130
H         11.08810       -1.28420       11.86590
H         11.97760       -3.52040       10.72460
H         13.95880       -2.42300       12.05720
H         14.85110       -0.35050       10.65490
H         13.42010       -0.17190        8.45890
H         13.46080       -2.81130        8.64980
H         11.78600       -2.30180        8.33770
H         11.96560        0.74840       10.49280
H          2.73640       -1.23730        5.76440
H         -0.68150       -0.60020        4.02740
H          0.47900       -1.08420        5.27270
H          1.45180       -2.77980        3.71970
H          0.31360       -2.29200        2.46200
H         -0.27790       -3.05740        3.94240
H          5.00650        2.23430        3.01120
H          6.19050        1.14730        4.86040
H          3.16670        2.99860        1.07960
H          1.19760        3.20140       -0.37800
H         -0.90390        0.24320        1.89140
H         -6.53200        1.54030        2.59770
H         -7.03350        1.63190        0.89960
H         -6.19120        4.03130        2.60520
H         -7.84900        3.60820        2.16670
H         -6.69710        4.09260        0.91820
H         -3.06900        2.29930        3.99440
H         -4.83510        2.45630        3.91540
H         -3.25740       -0.15460        3.68020
H         -5.01350       -0.03430        3.60520
H         -4.16600        0.36740        5.10200
H         -5.93950        3.15270       -1.77170
H         -9.42550        3.87310       -2.99150
H         -7.83510        4.55340       -2.55950
H         -8.38560        3.02640       -1.81380
H         -7.82370        1.89730       -5.91990
H         -3.46030       -1.64960       -8.74270
H         -7.96900       -0.68910      -10.84030
H         -5.83130       -2.05220      -13.15430
H         -7.34260       -4.01460      -12.90180
H         -7.66190       -4.38410      -10.33330
H         -5.28790       -4.91710       -9.26790
H         -3.50460       -4.87610      -11.18090
H         -4.77530       -4.52960      -13.52850
H         -5.48790       -5.88410      -12.61680
H         -3.52400       -2.56900      -12.11870
