136

C          7.04680       -0.02850       -6.19150
C          7.87590       -0.16400       -5.12240
C          7.47390       -0.36710       -3.70380
O          6.40260       -0.15810       -3.17470
C          8.65740       -0.94280       -3.03810
C          8.72590       -1.39570       -1.72220
C          9.95770       -1.88480       -1.36260
C         11.04350       -1.92800       -2.24860
C         10.98840       -1.48950       -3.54980
C          9.74350       -0.98080       -3.93420
C          9.30500       -0.43240       -5.21150
C         10.10910       -0.14140       -6.28010
C          9.67300        0.48640       -7.46730
N          9.40270        1.01380       -8.45070
C         11.49780       -0.38580       -6.32130
N         12.62780       -0.56290       -6.41960
C         11.96180       -2.53410       -1.21710
C         12.99540       -1.60250       -0.53700
C         12.41580       -0.21050       -0.58490
C         11.38910       -0.17020        0.25370
C         11.25520       -1.53480        0.88320
C         12.73270       -1.95470        0.93600
C         10.75240       -2.48600       -0.23100
C          5.62970        0.21060       -6.17210
C          5.03010        1.00460       -5.19410
C          3.65060        1.08050       -5.16780
N          2.83880        1.71770       -4.26520
C          3.28600        2.43700       -3.10210
C          3.47240        3.92460       -3.39520
C          1.53440        1.45570       -4.59560
C          1.49350        0.64430       -5.75900
C          2.85240        0.40610       -6.12970
C          3.46700       -0.31510       -7.15160
C          4.83800       -0.39810       -7.17110
C          0.26510        0.21630       -6.25380
C         -0.88260        0.55720       -5.57530
C         -0.83930        1.34390       -4.41040
C          0.37520        1.82840       -3.93760
C         -2.06100        1.57420       -3.63500
C         -3.29590        1.80650       -4.20750
F         -3.41170        1.95710       -5.53930
C         -4.48050        1.89350       -3.46130
F         -5.62470        2.04390       -4.14940
C         -4.49900        1.76590       -2.08370
C         -3.23150        1.57510       -1.45610
N         -3.18190        1.51000       -0.11890
C         -2.04240        1.30730        0.49220
C         -2.08480        1.23500        1.98580
C         -2.30100       -0.21210        2.43740
C         -0.85370        1.13620       -0.27150
N         -0.88000        1.23070       -1.57610
C         -2.03890        1.47230       -2.21390
C          0.49990        0.92330        0.33820
C          1.15810        2.27130        0.64640
C         -5.68690        1.75600       -1.27450
S         -5.67020        0.84390        0.20300
C         -7.34380        1.22710        0.54890
C         -7.85790        2.07200       -0.45250
C         -9.09240        2.72970       -0.66050
C         -9.09970        3.48220       -1.79270
C        -10.20460        4.33430       -2.30930
C         -9.89100        5.81990       -2.11620
S         -7.58620        3.41920       -2.66630
C         -6.92300        2.34360       -1.47810
C         -8.09760        0.83210        1.65390
C         -7.75790        0.03140        2.72000
C         -6.48120       -0.65760        2.89060
O         -5.52340       -0.64810        2.13230
C         -6.57020       -1.39650        4.16080
C         -5.58470       -2.19130        4.73930
C         -5.95170       -2.74900        5.94050
C         -7.20860       -2.53460        6.51980
C         -8.19250       -1.75720        5.95420
C         -7.83870       -1.17610        4.73400
C         -8.60130       -0.29220        3.84940
C         -9.88280        0.14420        4.07990
C        -10.62280        1.00270        3.24180
N        -11.29490        1.69960        2.62180
C        -10.65620       -0.20600        5.20550
N        -11.34670       -0.44390        6.09200
C         -6.88600       -3.38240        7.72490
C         -6.53310       -2.65330        9.04510
C         -5.96850       -1.30980        8.65590
C         -4.77850       -1.51420        8.10710
C         -4.51740       -3.00010        8.11470
C         -5.23800       -3.39490        9.41350
C         -5.48550       -3.62250        7.07810
H          7.46750       -0.20730       -7.17490
H          7.86380       -1.34840       -1.07520
H         11.82770       -1.53950       -4.22330
H         12.38050       -3.50760       -1.46410
H         14.01180       -1.71170       -0.90520
H         12.76570        0.56090       -1.24570
H         10.70920        0.64190        0.43390
H         10.68730       -1.58350        1.80870
H         12.87600       -3.01050        1.16210
H         13.31840       -1.34820        1.62500
H         10.37970       -3.42880        0.16500
H          5.63630        1.55280       -4.49440
H          2.54540        2.29940       -2.31000
H          4.22800        1.99450       -2.76770
H          2.53440        4.36550       -3.72500
H          4.21250        4.06610       -4.17920
H          3.80790        4.44370       -2.50120
H          2.87290       -0.80610       -7.90710
H          5.33180       -0.97290       -7.94070
H          0.21620       -0.39550       -7.14150
H         -1.83220        0.18690       -5.92740
H          0.40070        2.46380       -3.06930
H         -2.92540        1.83720        2.33130
H         -1.16290        1.62840        2.41480
H         -2.26940       -0.26680        3.52320
H         -1.53260       -0.86820        2.03300
H         -3.27320       -0.55740        2.09750
H          0.42460        0.33090        1.24930
H          1.11320        0.38460       -0.38560
H          2.15860        2.11770        1.04290
H          1.23120        2.86930       -0.25900
H          0.57820        2.83250        1.37590
H         -9.93900        2.65150       -0.00180
H        -10.35180        4.13600       -3.37370
H        -11.12420        4.07990       -1.77920
H        -10.70960        6.42740       -2.49280
H         -8.98320        6.08720       -2.65230
H         -9.74950        6.04190       -1.06100
H         -9.10380        1.23060        1.64860
H         -4.63000       -2.33090        4.25630
H         -9.15500       -1.60750        6.41360
H         -7.52770       -4.24600        7.88740
H         -7.33150       -2.64270        9.78200
H         -6.50070       -0.38280        8.76350
H         -4.11800       -0.79180        7.66420
H         -3.48010       -3.30630        8.00490
H         -5.37070       -4.47000        9.52650
H         -4.75780       -2.98800       10.30220
H         -5.21340       -4.64350        6.81680
