239

C         -1.24130       -8.86400       -1.36200
C         -1.05280       -9.68370       -2.45210
C         -0.96810       -9.26380       -3.84980
O         -0.96720       -8.12360       -4.28900
C         -0.87210      -10.49720       -4.64920
C         -0.78770      -10.59520       -6.03530
C         -0.71210      -11.88630       -6.50040
C         -0.72700      -12.99760       -5.64840
C         -0.81180      -12.91360       -4.27820
C         -0.88120      -11.60930       -3.78370
C         -0.95530      -11.12340       -2.40460
C         -0.89880      -11.91490       -1.28260
C         -0.83490      -13.32270       -1.30170
N         -0.78900      -14.46860       -1.23410
C         -0.85270      -11.45710        0.04860
N         -0.77770      -11.17940        1.16210
C         -0.61130      -13.97560       -6.79080
C          0.77120      -14.62570       -7.04470
C          1.80210      -13.65950       -6.51630
C          1.82000      -12.60610       -7.32210
C          0.80170      -12.84120       -8.41010
C          0.90690      -14.36780       -8.55390
C         -0.59120      -12.73640       -7.74050
C         -1.31310       -7.47720       -1.27200
C         -1.41690       -6.80000       -0.03190
N         -1.75910       -7.39050        1.15370
C         -2.74620       -8.38500        1.24940
C         -2.66290       -9.34090        2.25900
C         -3.63850      -10.31400        2.36940
C         -4.69820      -10.34870        1.47980
C         -4.78940       -9.38940        0.48300
C         -3.82670       -8.40690        0.36840
C         -1.19530       -6.88740        2.34790
C         -2.01050       -6.44770        3.38480
C         -1.43730       -5.95830        4.54300
C         -0.05880       -5.90840        4.67300
C          0.75060       -6.36220        3.64490
C          0.18750       -6.85620        2.48290
C         -1.15080       -5.42960       -0.18610
S         -1.02780       -4.10200        0.91950
C         -0.75220       -3.00280       -0.42400
C         -0.88340       -3.61850       -1.65560
N         -1.04510       -2.88180       -2.84090
C         -0.02110       -2.85990       -3.81800
C          0.59170       -1.64760       -4.12580
C          1.60490       -1.58950       -5.06250
C          2.01500       -2.74400       -5.71080
C          1.39500       -3.94780       -5.42270
C          0.38000       -4.01080       -4.48350
C         -2.15120       -2.03600       -2.96760
C         -3.09310       -1.88510       -1.94730
C         -4.18830       -1.05920       -2.10780
C         -4.38870       -0.36890       -3.28930
C         -3.48870       -0.54840       -4.32560
C         -2.39220       -1.37410       -4.17540
C         -1.02700       -5.01890       -1.51080
S         -1.10630       -6.34890       -2.60970
C         -0.41920       -1.62950       -0.15200
C          0.75320       -0.95480       -0.45710
N          1.85630       -1.48430       -1.10200
C          2.81250       -0.65010       -1.69430
C          2.44790        0.48670       -2.41790
C          3.41100        1.29880       -2.97610
C          4.76100        0.99740       -2.83170
S          5.91630        2.08430       -3.60890
C          7.45190        1.77970       -2.68870
C          5.13110       -0.14080       -2.12690
C          4.16680       -0.95040       -1.56260
C          2.12210       -2.86320       -0.99970
C          2.49030       -3.59280       -2.12460
C          2.58800       -4.96920       -2.06760
C          2.35370       -5.63300       -0.87150
S          2.31510       -7.39290       -0.71280
C          2.28500       -7.98220       -2.42670
C          2.12770       -4.89100        0.28550
C          2.00360       -3.52150        0.22220
C          0.72170        0.35870        0.07640
S          1.86670        1.64680        0.13120
C          0.77840        2.61530        1.12040
C         -0.39870        1.93970        1.40890
N         -1.44340        2.40920        2.19550
C         -1.21460        2.94150        3.46290
C         -2.17280        3.75690        4.06340
C         -1.97510        4.26570        5.33010
C         -0.79910        3.99310        6.01450
S         -0.43420        4.62050        7.62810
C         -2.06590        5.08510        8.27830
C          0.17560        3.20550        5.40920
C         -0.03090        2.67620        4.15530
C         -2.73630        2.07750        1.75480
C         -3.05180        2.22900        0.40360
C         -4.28830        1.85660       -0.06990
C         -5.24500        1.33160        0.79680
S         -6.79250        0.88430        0.07420
C         -7.73800        0.18140        1.45520
C         -4.94060        1.18890        2.14370
C         -3.69420        1.55280        2.61570
C         -0.41680        0.66110        0.80090
S         -1.51640       -0.66820        0.83680
C          1.13970        3.96650        1.36430
C          2.38970        4.52090        1.11690
N          3.54580        3.79620        0.83390
C          4.33990        4.25170       -0.22980
C          5.72550        4.32680       -0.11870
C          6.47630        4.81420       -1.17110
C          5.86100        5.23570       -2.33780
C          4.48290        5.16230       -2.45030
C          3.72410        4.67130       -1.40680
C          3.99040        2.80320        1.71000
C          4.77260        1.75040        1.23140
C          5.17680        0.74280        2.08290
C          4.80590        0.76070        3.41830
C          4.02770        1.80140        3.89620
C          3.62220        2.81890        3.05380
C          2.34630        5.92930        1.17750
S          3.49410        7.17160        0.83460
C          2.29610        8.40140        1.19940
C          1.06180        7.86330        1.52760
N         -0.10170        8.59160        1.74850
C         -0.94090        8.23150        2.80900
C         -2.31570        8.44260        2.71520
C         -3.13760        8.14850        3.78410
C         -2.60670        7.63780        4.95750
C         -1.24720        7.39220        5.04330
C         -0.41850        7.67770        3.97620
C         -0.34820        9.75410        1.00230
C         -0.00350        9.80290       -0.34700
C         -0.16310       10.97220       -1.06450
C         -0.67910       12.10370       -0.45560
C         -1.05940       12.04890        0.87490
C         -0.89900       10.88540        1.60160
C          1.10600        6.44720        1.51680
S         -0.05690        5.18870        1.78020
C          2.61630        9.79490        0.96710
C          3.25360       10.16210       -0.20610
C          3.37200       11.49700       -0.57190
C          2.84560       12.49190        0.22970
C          2.87620       13.88800       -0.22240
O          3.33900       14.22500       -1.29440
N          2.32730       14.82700        0.63790
C          2.33830       16.21680        0.19230
C          3.63040       16.91360        0.59910
C          1.81780       14.57540        1.89970
O          1.38420       15.47820        2.58780
C          1.81610       13.17050        2.33970
C          1.34490       12.85010        3.59600
C          1.35470       11.52460        4.03150
C          1.77390       10.52240        3.19410
C          2.21560       10.80560        1.88830
C          2.29210       12.15970        1.48130
H         -1.32370       -9.36430       -0.40580
H         -0.78470       -9.71170       -6.65450
H         -0.82470      -13.78000       -3.63860
H         -1.42930      -14.68550       -6.89630
H          0.85660      -15.65330       -6.70180
H          2.35340      -13.81080       -5.60660
H          2.38940      -11.70070       -7.22000
H          0.91570      -12.24440       -9.31140
H          0.10140      -14.80460       -9.14260
H          1.86870      -14.68840       -8.95140
H         -1.39460      -12.63880       -8.46830
H         -1.82830       -9.32550        2.94160
H         -3.55840      -11.05730        3.14730
H         -5.45250      -11.11620        1.56210
H         -5.62140       -9.40050       -0.20550
H         -3.90790       -7.65370       -0.40170
H         -3.08390       -6.49030        3.27330
H         -2.06940       -5.61100        5.34640
H          0.38400       -5.52370        5.57930
H          1.82500       -6.34420        3.75370
H          0.80180       -7.24190        1.68240
H          0.25370       -0.75330       -3.62670
H          2.08040       -0.64430       -5.27920
H          2.80800       -2.70100       -6.44240
H          1.69390       -4.84790       -5.93930
H         -0.10980       -4.94970       -4.28640
H         -2.99060       -2.42290       -1.01790
H         -4.89290       -0.95770       -1.29640
H         -5.24330        0.27990       -3.40530
H         -3.64180       -0.04670       -5.27030
H         -1.72550       -1.51870       -5.01150
H          1.40670        0.73960       -2.54050
H          3.12720        2.17980       -3.53030
H          7.25090        1.84040       -1.62340
H          8.13200        2.57260       -2.98270
H          7.87460        0.81630       -2.95870
H          6.17000       -0.40400       -2.00670
H          4.46390       -1.82700       -1.00600
H          2.67970       -3.07920       -3.05320
H          2.82930       -5.50900       -2.96830
H          1.46680       -7.51160       -2.96470
H          2.11870       -9.05370       -2.36280
H          3.23990       -7.78860       -2.90700
H          2.02540       -5.39510        1.23200
H          1.79670       -2.95620        1.11900
H         -3.07860        3.99850        3.52880
H         -2.74310        4.88260        5.76560
H         -2.75970        4.26210        8.13660
H         -1.91900        5.27000        9.33790
H         -2.42450        5.98950        7.79560
H          1.09120        2.99900        5.94230
H          0.72340        2.04210        3.71390
H         -2.31490        2.63810       -0.27150
H         -4.52740        1.96520       -1.11620
H         -7.90600        0.93810        2.21620
H         -7.21630       -0.68030        1.86130
H         -8.68740       -0.12930        1.03000
H         -5.65780        0.78120        2.83770
H         -3.45720        1.41460        3.66010
H          6.20490        4.01510        0.79790
H          7.55050        4.87550       -1.07310
H          6.45170        5.61520       -3.15720
H          3.99790        5.48140       -3.36070
H          2.64920        4.60250       -1.49230
H          5.03070        1.71890        0.18330
H          5.77350       -0.07080        1.69720
H          5.11850       -0.03260        4.08010
H          3.73600        1.82550        4.93600
H          3.01860        3.62980        3.43510
H         -2.72890        8.84540        1.80260
H         -4.20030        8.32280        3.70190
H         -3.25590        7.43850        5.79750
H         -0.81510        6.99370        5.94840
H          0.64130        7.48530        4.05780
H          0.39600        8.92160       -0.82680
H          0.11850       10.99970       -2.10640
H         -0.78880       13.01950       -1.01570
H         -1.46900       12.92330        1.35830
H         -1.17820       10.85570        2.64410
H          3.60890        9.39100       -0.87440
H          3.83140       11.77380       -1.50870
H          1.47980       16.71190        0.64940
H          2.23750       16.21080       -0.89450
H          4.48380       16.40940        0.15180
H          3.73610       16.90410        1.68150
H          3.61410       17.94480        0.25770
H          0.99010       13.64430        4.23550
H          1.02480       11.28880        5.03220
H          1.78700        9.50090        3.54090
