183

C         -6.60340       -1.79910        7.30840
C         -7.11700       -2.60760        6.34070
C         -6.45280       -2.97900        5.06300
O         -5.46440       -2.49660        4.54640
C         -7.20070       -4.13820        4.54720
C         -6.90480       -4.86400        3.39420
C         -7.78460       -5.88600        3.13640
C         -8.87560       -6.17350        3.96890
C         -9.17170       -5.47380        5.11420
C         -8.29140       -4.42210        5.39200
C         -8.28570       -3.46200        6.49010
C         -9.25900       -3.33170        7.44450
C         -9.28870       -2.33010        8.43880
N         -9.40220       -1.53600        9.26050
C        -10.39560       -4.16140        7.54330
N        -11.33860       -4.80120        7.68290
C         -9.33940       -7.31520        3.09850
C        -10.54900       -7.03360        2.18170
C        -10.47050       -8.12180        1.13530
C         -9.43690       -7.85150        0.34840
C         -8.79940       -6.57580        0.84970
C        -10.04590       -5.84050        1.35870
C         -8.12260       -6.99510        2.17210
C         -5.49040       -0.90290        7.16710
C         -5.25190       -0.23780        5.96260
C         -4.08940        0.49630        5.84010
N         -3.57760        1.12010        4.73010
C         -4.20380        1.16210        3.43520
C         -5.09050        2.39590        3.27960
C         -2.34520        1.62590        5.05080
C         -2.06620        1.36910        6.41850
C         -3.18070        0.63290        6.92340
C         -3.47560        0.03820        8.14880
C         -4.62010       -0.71360        8.26240
C         -0.84890        1.77100        6.96130
C          0.10350        2.30980        6.12860
C         -0.13800        2.46530        4.75260
C         -1.39360        2.19270        4.22230
C          0.94790        2.75150        3.83110
C          2.15800        2.09000        3.75930
N          2.60380        1.10220        4.63130
C          1.70780        0.16140        5.15490
C          0.64780       -0.31620        4.38850
C         -0.30300       -1.15510        4.93580
C         -0.19590       -1.55490        6.26010
S         -1.37470       -2.57290        7.08980
C         -2.57410       -3.01320        5.80540
C          0.89750       -1.13080        7.01310
C          1.83460       -0.28080        6.47270
C          3.96460        1.05550        4.94810
C          4.70360        2.23070        5.05920
C          6.05430        2.19570        5.34760
C          6.69050        0.97870        5.54170
S          8.40680        0.80090        5.92210
C          9.02980        2.50590        5.94600
C          5.95430       -0.20080        5.44000
C          4.61170       -0.16640        5.14240
C          2.87650        2.46840        2.59410
S          4.34240        1.91600        1.85590
C          4.03230        2.91470        0.45080
C          2.84710        3.61240        0.54550
N          2.28620        4.35840       -0.49180
C          2.26480        3.80750       -1.77960
C          2.52170        4.59190       -2.90450
C          2.57410        4.01870       -4.15650
C          2.36110        2.65340       -4.31740
S          2.51580        1.97280       -5.94460
C          1.34420        0.57990       -5.89870
C          2.07030        1.87320       -3.20790
C          2.02360        2.44620       -1.95370
C          1.70500        5.59250       -0.20470
C          0.62820        6.07230       -0.95350
C          0.05330        7.28360       -0.64590
C          0.52560        8.04480        0.42180
S         -0.29830        9.58070        0.71590
C          0.47320       10.20670        2.23520
C          1.59230        7.57290        1.17190
C          2.17680        6.36140        0.85670
C          2.20590        3.36730        1.78550
S          0.67330        3.80470        2.45160
C          4.83510        2.82920       -0.75880
C          5.07950        1.58230       -1.32050
C          5.53730        1.53850       -2.62570
N          5.68370        0.45480       -3.45450
C          5.50960       -0.92610       -3.08470
C          4.06870       -1.39870       -3.26260
C          5.90230        0.91670       -4.72670
C          6.02760        2.33100       -4.70560
C          5.79280        2.72890       -3.35410
C          5.67810        3.96390       -2.72430
C          5.19030        4.00540       -1.43940
C          6.25900        3.02010       -5.89240
C          6.28640        2.31940       -7.07560
C          6.05500        0.93030       -7.10750
C          5.91580        0.21670       -5.91570
C          5.83960        0.29140       -8.37850
C          4.97930       -0.72660       -8.59370
S          3.94380       -1.46640       -7.38310
C          3.05490       -2.33300       -8.61400
C          1.95410       -3.07200       -8.25990
C          1.10550       -3.78460       -9.12160
N          0.35230       -4.35910       -9.77070
C          1.57720       -3.08460       -6.90220
N          1.28520       -3.06570       -5.79210
N          3.59630       -2.14990       -9.84460
C          3.18190       -2.87400      -11.02810
C          3.47520       -4.35200      -10.93380
C          4.55150       -4.82380      -10.19500
C          4.80830       -6.18170      -10.12190
C          3.99740       -7.07860      -10.79410
C          2.93100       -6.61220      -11.54430
C          2.66960       -5.25640      -11.61270
C          4.67680       -1.27430       -9.91470
O          5.24490       -1.00930      -10.94850
H         -7.01810       -1.87480        8.30670
H         -6.05220       -4.60960        2.78400
H        -10.00620       -5.71560        5.75080
H         -9.38750       -8.29040        3.57890
H        -11.49670       -6.92060        2.70100
H        -11.11970       -8.97710        1.10950
H         -9.04990       -8.43550       -0.46590
H         -8.15290       -6.04610        0.15510
H        -10.72850       -5.58080        0.55130
H         -9.82780       -4.95310        1.95020
H         -7.35650       -7.75620        2.03590
H         -5.96760       -0.29650        5.16040
H         -3.42170        1.16620        2.67150
H         -4.79410        0.25030        3.31060
H         -5.55390        2.40230        2.29670
H         -4.49870        3.30140        3.39310
H         -5.87250        2.39750        4.03540
H         -2.80140        0.14790        8.98370
H         -4.84560       -1.21380        9.19220
H         -0.64370        1.62350        8.01010
H          1.06600        2.59810        6.52300
H         -1.57630        2.35000        3.16990
H          0.55770       -0.01320        3.35580
H         -1.12490       -1.48500        4.32090
H         -3.10140       -2.13220        5.45350
H         -2.07290       -3.52910        4.99190
H         -3.27950       -3.68530        6.28450
H          0.98680       -1.46080        8.03660
H          2.66150        0.06500        7.07470
H          4.21460        3.18470        4.92450
H          6.59210        3.12680        5.42480
H          8.88640        2.96710        4.97320
H          8.53580        3.07220        6.73030
H         10.09040        2.42560        6.16320
H          6.45540       -1.14510        5.58840
H          4.05260       -1.08540        5.05210
H          2.69550        5.65080       -2.78680
H          2.79430        4.62200       -5.02340
H          1.78090       -0.28590       -5.40930
H          1.12570        0.33830       -6.93420
H          0.43580        0.89460       -5.39580
H          1.87820        0.81780       -3.31620
H          1.80380        1.83110       -1.09330
H          0.24110        5.48280       -1.77070
H         -0.78010        7.65280       -1.22390
H          1.52260       10.42560        2.05950
H          0.34760        9.48520        3.03720
H         -0.05740       11.12260        2.47570
H          1.98690        8.13860        2.00050
H          3.01560        6.01060        1.44040
H          4.82240        0.68730       -0.77460
H          5.81570       -1.03980       -2.04140
H          6.17960       -1.53140       -3.70190
H          3.98420       -2.45060       -3.00450
H          3.75290       -1.27220       -4.29550
H          3.40500       -0.82730       -2.61910
H          5.91700        4.87280       -3.25430
H          5.03700        4.95450       -0.94830
H          6.38670        4.09160       -5.88400
H          6.42060        2.84210       -8.01040
H          5.83250       -0.85860       -5.92660
H          6.31520        0.70940       -9.25700
H          3.75470       -2.43180      -11.85300
H          2.11650       -2.70800      -11.21180
H          5.20120       -4.13290       -9.67480
H          5.64490       -6.53670       -9.53850
H          4.19630       -8.13800      -10.73380
H          2.29500       -7.30630      -12.07210
H          1.82870       -4.89640      -12.18560
