180

C          9.11270        3.83800        4.41460
C          9.01570        3.14810        5.58150
C          7.97610        2.14660        5.94920
O          7.26410        1.47790        5.23150
C          7.96120        2.12670        7.42500
C          7.06720        1.42750        8.23420
C          7.29550        1.57910        9.58010
C          8.33630        2.36910       10.08860
C          9.22640        3.06110        9.30340
C          9.01060        2.92020        7.92820
C          9.73190        3.49600        6.80100
C         10.91880        4.17460        6.86390
C         11.64210        4.62730        5.73900
N         12.29780        5.00530        4.87560
C         11.60620        4.46880        8.05980
N         12.20990        4.74480        8.99650
C          7.96830        2.07340       11.52130
C          7.21170        3.18190       12.28330
C          6.57940        2.45310       13.44710
C          5.59600        1.70270       12.96700
C          5.54670        1.91210       11.47070
C          5.97650        3.38280       11.39570
C          6.81010        1.19080       10.95490
C          8.38570        3.58780        3.20130
C          8.06170        2.29460        2.79300
C          7.19150        2.14560        1.73130
N          6.61990        0.99870        1.24280
C          6.93010       -0.33030        1.69740
C          8.15230       -0.89390        0.97410
C          5.68420        1.34890        0.30760
C          5.70610        2.75610        0.11810
C          6.67270        3.26790        1.03550
C          7.10420        4.54920        1.37510
C          7.95440        4.69810        2.44340
C          4.81720        3.34920       -0.77420
C          3.85500        2.56720       -1.36850
C          3.76260        1.19360       -1.08920
C          4.72830        0.56340       -0.31210
C          2.57770        0.45120       -1.47760
C          1.82810       -0.36490       -0.65160
N          2.08190       -0.63930        0.68970
C          1.79460       -1.92380        1.16690
C          1.27240       -2.10710        2.44450
C          0.97050       -3.37150        2.91000
C          1.17610       -4.47980        2.09960
S          0.81520       -6.14240        2.57520
C          0.19480       -5.98900        4.27390
C          1.70060       -4.30300        0.82130
C          2.01210       -3.04340        0.36150
C          2.61000        0.33790        1.54190
C          2.26790        1.67910        1.39050
C          2.87330        2.65550        2.15610
C          3.82970        2.30850        3.10020
S          4.70880        3.47050        4.09730
C          4.28820        5.06920        3.34500
C          4.13070        0.96370        3.30250
C          3.52910       -0.00850        2.53520
C          0.69240       -0.86880       -1.33700
S         -0.62230       -1.90520       -0.91730
C         -1.32940       -1.72950       -2.51930
C         -0.58320       -0.88640       -3.31720
N         -0.79480       -0.57960       -4.67200
C         -1.83830        0.24880       -5.06760
C         -2.33570        0.18330       -6.37300
C         -3.41220        0.95330       -6.74650
C         -4.03630        1.79750       -5.82890
S         -5.44910        2.68540       -6.41690
C         -6.10370        3.49550       -4.93100
C         -3.53740        1.88410       -4.53750
C         -2.44500        1.12260       -4.16490
C          0.28760       -0.85330       -5.52160
C          0.99890       -2.04330       -5.35860
C          2.08650       -2.31960       -6.15510
C          2.48980       -1.41940       -7.13910
S          3.89660       -1.88650       -8.10020
C          4.11540       -0.50730       -9.25990
C          1.78710       -0.23430       -7.30480
C          0.70190        0.04780       -6.49800
C          0.57070       -0.41790       -2.63710
S          1.85780        0.65500       -3.06320
C         -2.53900       -2.49280       -2.77460
C         -3.57690       -1.98980       -3.55070
C         -4.72610       -2.75050       -3.69520
N         -5.88930       -2.44500       -4.35210
C         -6.17630       -1.23470       -5.07750
C         -5.90400       -1.39220       -6.57120
C         -6.76150       -3.49420       -4.20000
C         -6.14880       -4.50840       -3.41660
C         -4.84590       -4.02870       -3.09030
C         -3.79260       -4.52880       -2.32900
C         -2.66440       -3.76120       -2.17190
C         -6.84980       -5.68010       -3.13540
C         -8.13060       -5.81280       -3.60940
C         -8.76270       -4.78530       -4.34950
C         -8.05130       -3.62770       -4.67570
C        -10.11620       -5.00950       -4.76380
C        -11.11250       -4.11860       -5.03080
C        -11.15520       -2.67110       -4.69590
O        -10.25150       -1.93750       -4.35300
C        -12.57360       -2.28130       -4.81030
C        -13.13210       -1.05790       -4.52820
C        -14.51140       -0.91360       -4.70330
C        -15.33020        0.23030       -4.48530
C        -16.63270       -0.00320       -4.75600
S        -16.95170       -1.61690       -5.29130
C        -15.26890       -2.02060       -5.15550
C        -14.70410       -3.25710       -5.44380
C        -13.33850       -3.38110       -5.26900
C        -12.44380       -4.51020       -5.47530
C        -12.78580       -5.69890       -6.06460
C        -14.08960       -6.01820       -6.49790
N        -15.12880       -6.33930       -6.86570
C        -11.89270       -6.75000       -6.36360
N        -11.23370       -7.64120       -6.66480
H          9.71380        4.74070        4.41620
H          6.28040        0.83010        7.80100
H         10.02120        3.66660        9.70640
H          8.74170        1.59710       12.12070
H          7.80730        4.05920       12.52050
H          6.93700        2.51320       14.45820
H          4.96810        1.01090       13.49720
H          4.62490        1.63310       10.96720
H          5.24600        4.04870       11.85230
H          6.20380        3.72750       10.38860
H          6.81220        0.12500       11.17600
H          8.48000        1.44460        3.30220
H          6.06280       -0.96870        1.51900
H          7.10980       -0.29170        2.77490
H          8.37460       -1.89330        1.33840
H          9.01890       -0.25930        1.14360
H          7.96690       -0.94540       -0.09650
H          6.75690        5.40930        0.82150
H          8.26590        5.68560        2.75090
H          4.85540        4.41220       -0.96030
H          3.11690        3.01180       -2.01980
H          4.68680       -0.50420       -0.16220
H          1.09690       -1.24810        3.07500
H          0.56420       -3.47380        3.90330
H         -0.71470       -5.39530        4.28620
H         -0.02290       -7.00230        4.59700
H          0.95980       -5.55560        4.91170
H          1.86600       -5.16800        0.19740
H          2.43020       -2.91970       -0.62690
H          1.52990        1.96210        0.65510
H          2.58860        3.68370        2.00290
H          4.93360        5.79850        3.82420
H          3.24800        5.31560        3.53800
H          4.49760        5.03220        2.28060
H          4.86420        0.70320        4.05000
H          3.78260       -1.04780        2.68620
H         -1.88020       -0.49120       -7.08170
H         -3.79710        0.89860       -7.75310
H         -6.32720        2.75130       -4.17200
H         -5.39710        4.23500       -4.56500
H         -7.01870        3.98720       -5.24620
H         -3.98400        2.54080       -3.80810
H         -2.06600        1.19300       -3.15570
H          0.68840       -2.75000       -4.60310
H          2.63620       -3.23980       -6.02870
H          4.97420       -0.77250       -9.86870
H          4.31990        0.40910       -8.71400
H          3.23530       -0.40660       -9.88850
H          2.07980        0.48910       -8.04860
H          0.17950        0.98490       -6.62030
H         -3.50370       -1.01480       -3.99710
H         -7.22610       -0.97670       -4.91110
H         -5.55540       -0.43260       -4.67140
H         -6.12730       -0.46210       -7.08610
H         -6.52200       -2.18340       -6.98870
H         -4.85860       -1.64160       -6.73740
H         -3.86680       -5.49900       -1.86220
H         -1.84370       -4.13440       -1.57730
H         -6.38830       -6.46710       -2.55870
H         -8.68990       -6.71220       -3.39740
H         -8.49710       -2.87200       -5.29700
H        -10.38940       -6.05830       -4.80940
H        -12.52160       -0.23800       -4.18250
H        -14.94640        1.17390       -4.14150
H        -17.45480        0.68120       -4.67560
H        -15.32380       -4.07150       -5.77980
