
  xtb     02092210163D
 energy: -333.840928496144 gnorm: 0.000626394475 xtb: 6.4.1 (unknown)
201224  0     0  0            999 V2000
   -5.7339   -6.7141    1.3323 C   0  0  0  0  0  0  0  0  0  0  0  0
   -5.8179   -7.6513    2.3278 C   0  0  0  0  0  0  0  0  0  0  0  0
   -6.9551   -8.6012    2.3532 C   0  0  0  0  0  0  0  0  0  0  0  0
   -7.7874   -8.7676    1.4882 O   0  0  0  0  0  0  0  0  0  0  0  0
   -6.8894   -9.2557    3.6768 C   0  0  0  0  0  0  0  0  0  0  0  0
   -7.7886  -10.1778    4.2071 C   0  0  0  0  0  0  0  0  0  0  0  0
   -7.4579  -10.6240    5.4643 C   0  0  0  0  0  0  0  0  0  0  0  0
   -6.3142  -10.1896    6.1462 C   0  0  0  0  0  0  0  0  0  0  0  0
   -5.4132   -9.2881    5.6318 C   0  0  0  0  0  0  0  0  0  0  0  0
   -5.7376   -8.8160    4.3582 C   0  0  0  0  0  0  0  0  0  0  0  0
   -5.0121   -7.8908    3.4905 C   0  0  0  0  0  0  0  0  0  0  0  0
   -3.6943   -7.5147    3.6314 C   0  0  0  0  0  0  0  0  0  0  0  0
   -2.9346   -7.6902    4.8000 C   0  0  0  0  0  0  0  0  0  0  0  0
   -2.2833   -7.7511    5.7452 N   0  0  0  0  0  0  0  0  0  0  0  0
   -2.9479   -6.9761    2.5709 C   0  0  0  0  0  0  0  0  0  0  0  0
   -2.2864   -6.5823    1.7169 N   0  0  0  0  0  0  0  0  0  0  0  0
   -6.6124  -11.0419    7.3550 C   0  0  0  0  0  0  0  0  0  0  0  0
   -7.2091  -10.3181    8.5805 C   0  0  0  0  0  0  0  0  0  0  0  0
   -7.8244  -11.4336    9.3942 C   0  0  0  0  0  0  0  0  0  0  0  0
   -8.9034  -11.8562    8.7479 C   0  0  0  0  0  0  0  0  0  0  0  0
   -9.0364  -11.0322    7.4876 C   0  0  0  0  0  0  0  0  0  0  0  0
   -8.4779   -9.6934    7.9858 C   0  0  0  0  0  0  0  0  0  0  0  0
   -7.8842  -11.5334    6.5918 C   0  0  0  0  0  0  0  0  0  0  0  0
   -5.0628   -5.4807    1.2849 C   0  0  0  0  0  0  0  0  0  0  0  0
   -4.5957   -4.6060    2.2826 C   0  0  0  0  0  0  0  0  0  0  0  0
   -4.7692   -4.7408    3.6436 N   0  0  0  0  0  0  0  0  0  0  0  0
   -5.9241   -5.2954    4.2133 C   0  0  0  0  0  0  0  0  0  0  0  0
   -7.1554   -5.2539    3.5626 C   0  0  0  0  0  0  0  0  0  0  0  0
   -8.2702   -5.8246    4.1461 C   0  0  0  0  0  0  0  0  0  0  0  0
   -8.1837   -6.4236    5.3918 C   0  0  0  0  0  0  0  0  0  0  0  0
   -6.9700   -6.4377    6.0589 C   0  0  0  0  0  0  0  0  0  0  0  0
   -5.8460   -5.8884    5.4748 C   0  0  0  0  0  0  0  0  0  0  0  0
   -3.8681   -4.0717    4.5087 C   0  0  0  0  0  0  0  0  0  0  0  0
   -2.4942   -4.2299    4.3549 C   0  0  0  0  0  0  0  0  0  0  0  0
   -1.6243   -3.6029    5.2269 C   0  0  0  0  0  0  0  0  0  0  0  0
   -2.1105   -2.8048    6.2480 C   0  0  0  0  0  0  0  0  0  0  0  0
   -3.4772   -2.6337    6.3932 C   0  0  0  0  0  0  0  0  0  0  0  0
   -4.3548   -3.2623    5.5312 C   0  0  0  0  0  0  0  0  0  0  0  0
   -3.9640   -3.4817    1.7053 C   0  0  0  0  0  0  0  0  0  0  0  0
   -3.1491   -2.0919    2.3446 S   0  0  0  0  0  0  0  0  0  0  0  0
   -2.8516   -1.4981    0.7324 C   0  0  0  0  0  0  0  0  0  0  0  0
   -3.2715   -2.3799   -0.2567 C   0  0  0  0  0  0  0  0  0  0  0  0
   -2.9742   -2.2883   -1.6083 N   0  0  0  0  0  0  0  0  0  0  0  0
   -1.7355   -1.8052   -2.0390 C   0  0  0  0  0  0  0  0  0  0  0  0
   -1.6303   -1.0913   -3.2329 C   0  0  0  0  0  0  0  0  0  0  0  0
   -0.4248   -0.5318   -3.6087 C   0  0  0  0  0  0  0  0  0  0  0  0
    0.6972   -0.6784   -2.8105 C   0  0  0  0  0  0  0  0  0  0  0  0
    0.6133   -1.4290   -1.6496 C   0  0  0  0  0  0  0  0  0  0  0  0
   -0.5869   -1.9964   -1.2691 C   0  0  0  0  0  0  0  0  0  0  0  0
   -3.9572   -2.6832   -2.5277 C   0  0  0  0  0  0  0  0  0  0  0  0
   -5.2935   -2.3713   -2.2893 C   0  0  0  0  0  0  0  0  0  0  0  0
   -6.2688   -2.7855   -3.1756 C   0  0  0  0  0  0  0  0  0  0  0  0
   -5.9251   -3.5049   -4.3079 C   0  0  0  0  0  0  0  0  0  0  0  0
   -4.5954   -3.8091   -4.5507 C   0  0  0  0  0  0  0  0  0  0  0  0
   -3.6131   -3.4068   -3.6670 C   0  0  0  0  0  0  0  0  0  0  0  0
   -3.9462   -3.4816    0.3151 C   0  0  0  0  0  0  0  0  0  0  0  0
   -4.7694   -4.8430   -0.3376 S   0  0  0  0  0  0  0  0  0  0  0  0
   -2.1158   -0.2849    0.5124 C   0  0  0  0  0  0  0  0  0  0  0  0
   -1.0491    0.0908    1.3368 C   0  0  0  0  0  0  0  0  0  0  0  0
   -1.0193   -0.5391    2.5359 O   0  0  0  0  0  0  0  0  0  0  0  0
    0.1810   -0.9118    3.2004 C   0  0  0  0  0  0  0  0  0  0  0  0
    1.0838   -1.7849    2.3420 C   0  0  0  0  0  0  0  0  0  0  0  0
   -0.1029    1.0410    0.8868 C   0  0  0  0  0  0  0  0  0  0  0  0
    1.0142    1.2646    1.6678 O   0  0  0  0  0  0  0  0  0  0  0  0
    1.0462    2.5271    2.3223 C   0  0  0  0  0  0  0  0  0  0  0  0
    2.3758    2.6466    3.0463 C   0  0  0  0  0  0  0  0  0  0  0  0
   -0.2101    1.6904   -0.3481 C   0  0  0  0  0  0  0  0  0  0  0  0
   -1.4314    1.5217   -1.0396 C   0  0  0  0  0  0  0  0  0  0  0  0
   -2.3799    0.5325   -0.6068 C   0  0  0  0  0  0  0  0  0  0  0  0
   -3.4691    0.5125   -1.3717 N   0  0  0  0  0  0  0  0  0  0  0  0
   -3.3027    1.6150   -2.5345 S   0  0  0  0  0  0  0  0  0  0  0  0
   -1.8560    2.1662   -2.1184 N   0  0  0  0  0  0  0  0  0  0  0  0
    0.9184    2.4105   -0.8892 C   0  0  0  0  0  0  0  0  0  0  0  0
    1.0233    3.4959   -1.7419 C   0  0  0  0  0  0  0  0  0  0  0  0
   -0.0145    4.2823   -2.2791 N   0  0  0  0  0  0  0  0  0  0  0  0
   -0.0283    5.6071   -1.8130 C   0  0  0  0  0  0  0  0  0  0  0  0
    0.0354    5.8355   -0.4398 C   0  0  0  0  0  0  0  0  0  0  0  0
    0.0519    7.1253    0.0549 C   0  0  0  0  0  0  0  0  0  0  0  0
    0.0061    8.2047   -0.8107 C   0  0  0  0  0  0  0  0  0  0  0  0
   -0.0485    7.9829   -2.1773 C   0  0  0  0  0  0  0  0  0  0  0  0
   -0.0601    6.6973   -2.6805 C   0  0  0  0  0  0  0  0  0  0  0  0
   -0.5601    3.9430   -3.5158 C   0  0  0  0  0  0  0  0  0  0  0  0
    0.0506    3.0032   -4.3435 C   0  0  0  0  0  0  0  0  0  0  0  0
   -0.5266    2.6582   -5.5509 C   0  0  0  0  0  0  0  0  0  0  0  0
   -1.7168    3.2371   -5.9538 C   0  0  0  0  0  0  0  0  0  0  0  0
   -2.3297    4.1710   -5.1327 C   0  0  0  0  0  0  0  0  0  0  0  0
   -1.7614    4.5240   -3.9268 C   0  0  0  0  0  0  0  0  0  0  0  0
    2.3752    3.8246   -2.0034 C   0  0  0  0  0  0  0  0  0  0  0  0
    3.1299    5.1030   -2.8857 S   0  0  0  0  0  0  0  0  0  0  0  0
    4.7199    4.4242   -2.5154 C   0  0  0  0  0  0  0  0  0  0  0  0
    4.6303    3.2932   -1.6674 C   0  0  0  0  0  0  0  0  0  0  0  0
    5.6826    2.5838   -1.1442 N   0  0  0  0  0  0  0  0  0  0  0  0
    5.4767    1.2162   -0.8698 C   0  0  0  0  0  0  0  0  0  0  0  0
    5.8401    0.6773    0.3606 C   0  0  0  0  0  0  0  0  0  0  0  0
    5.5940   -0.6559    0.6275 C   0  0  0  0  0  0  0  0  0  0  0  0
    4.9873   -1.4609   -0.3227 C   0  0  0  0  0  0  0  0  0  0  0  0
    4.6401   -0.9304   -1.5542 C   0  0  0  0  0  0  0  0  0  0  0  0
    4.8852    0.4006   -1.8316 C   0  0  0  0  0  0  0  0  0  0  0  0
    6.8737    3.1898   -0.7075 C   0  0  0  0  0  0  0  0  0  0  0  0
    6.8579    4.4609   -0.1353 C   0  0  0  0  0  0  0  0  0  0  0  0
    8.0383    5.0410    0.2845 C   0  0  0  0  0  0  0  0  0  0  0  0
    9.2389    4.3596    0.1569 C   0  0  0  0  0  0  0  0  0  0  0  0
    9.2523    3.0879   -0.3894 C   0  0  0  0  0  0  0  0  0  0  0  0
    8.0785    2.5015   -0.8244 C   0  0  0  0  0  0  0  0  0  0  0  0
    3.2895    2.9650   -1.4114 C   0  0  0  0  0  0  0  0  0  0  0  0
    2.4950    1.7688   -0.4482 S   0  0  0  0  0  0  0  0  0  0  0  0
    5.9261    4.8675   -3.0603 C   0  0  0  0  0  0  0  0  0  0  0  0
    6.2091    5.9738   -3.8246 C   0  0  0  0  0  0  0  0  0  0  0  0
    5.2781    7.0534   -4.1646 C   0  0  0  0  0  0  0  0  0  0  0  0
    4.0784    7.0982   -3.9519 O   0  0  0  0  0  0  0  0  0  0  0  0
    6.0851    8.1048   -4.8092 C   0  0  0  0  0  0  0  0  0  0  0  0
    5.6378    9.3388   -5.2729 C   0  0  0  0  0  0  0  0  0  0  0  0
    6.6267   10.1233   -5.8163 C   0  0  0  0  0  0  0  0  0  0  0  0
    7.9619    9.7082   -5.8973 C   0  0  0  0  0  0  0  0  0  0  0  0
    8.4142    8.4885   -5.4511 C   0  0  0  0  0  0  0  0  0  0  0  0
    7.4257    7.6772   -4.8885 C   0  0  0  0  0  0  0  0  0  0  0  0
    7.5196    6.3344   -4.3148 C   0  0  0  0  0  0  0  0  0  0  0  0
    8.6549    5.5613   -4.2824 C   0  0  0  0  0  0  0  0  0  0  0  0
    9.9230    5.9848   -4.7283 C   0  0  0  0  0  0  0  0  0  0  0  0
   10.9888    6.2617   -5.0557 N   0  0  0  0  0  0  0  0  0  0  0  0
    8.7254    4.2268   -3.8382 C   0  0  0  0  0  0  0  0  0  0  0  0
    8.8706    3.1294   -3.5264 N   0  0  0  0  0  0  0  0  0  0  0  0
    8.4077   10.9990   -6.5380 C   0  0  0  0  0  0  0  0  0  0  0  0
    9.1411   12.0311   -5.6458 C   0  0  0  0  0  0  0  0  0  0  0  0
    8.6684   11.7905   -4.2337 C   0  0  0  0  0  0  0  0  0  0  0  0
    7.4038   12.1830   -4.1576 C   0  0  0  0  0  0  0  0  0  0  0  0
    6.9985   12.6961   -5.5173 C   0  0  0  0  0  0  0  0  0  0  0  0
    8.3336   13.2930   -5.9901 C   0  0  0  0  0  0  0  0  0  0  0  0
    6.9191   11.4610   -6.4486 C   0  0  0  0  0  0  0  0  0  0  0  0
   -6.3245   -6.9451    0.4499 H   0  0  0  0  0  0  0  0  0  0  0  0
   -8.6519  -10.4965    3.6443 H   0  0  0  0  0  0  0  0  0  0  0  0
   -4.5323   -8.9633    6.1612 H   0  0  0  0  0  0  0  0  0  0  0  0
   -5.8503  -11.7716    7.6219 H   0  0  0  0  0  0  0  0  0  0  0  0
   -6.5194   -9.6576    9.0995 H   0  0  0  0  0  0  0  0  0  0  0  0
   -7.3932  -11.8266   10.2962 H   0  0  0  0  0  0  0  0  0  0  0  0
   -9.5537  -12.6725    9.0028 H   0  0  0  0  0  0  0  0  0  0  0  0
  -10.0131  -11.0219    7.0111 H   0  0  0  0  0  0  0  0  0  0  0  0
   -8.2864   -8.9759    7.1905 H   0  0  0  0  0  0  0  0  0  0  0  0
   -9.1101   -9.2394    8.7476 H   0  0  0  0  0  0  0  0  0  0  0  0
   -7.9648  -12.5903    6.3447 H   0  0  0  0  0  0  0  0  0  0  0  0
   -7.2414   -4.7664    2.6037 H   0  0  0  0  0  0  0  0  0  0  0  0
   -9.2143   -5.7941    3.6240 H   0  0  0  0  0  0  0  0  0  0  0  0
   -9.0590   -6.8669    5.8415 H   0  0  0  0  0  0  0  0  0  0  0  0
   -6.8901   -6.8894    7.0364 H   0  0  0  0  0  0  0  0  0  0  0  0
   -4.8978   -5.9199    5.9914 H   0  0  0  0  0  0  0  0  0  0  0  0
   -2.1086   -4.8464    3.5588 H   0  0  0  0  0  0  0  0  0  0  0  0
   -0.5616   -3.7541    5.1113 H   0  0  0  0  0  0  0  0  0  0  0  0
   -1.4287   -2.3189    6.9296 H   0  0  0  0  0  0  0  0  0  0  0  0
   -3.8644   -2.0057    7.1815 H   0  0  0  0  0  0  0  0  0  0  0  0
   -5.4208   -3.1292    5.6445 H   0  0  0  0  0  0  0  0  0  0  0  0
   -2.5064   -0.9556   -3.8503 H   0  0  0  0  0  0  0  0  0  0  0  0
   -0.3722    0.0414   -4.5214 H   0  0  0  0  0  0  0  0  0  0  0  0
    1.6329   -0.2209   -3.0938 H   0  0  0  0  0  0  0  0  0  0  0  0
    1.4916   -1.5730   -1.0369 H   0  0  0  0  0  0  0  0  0  0  0  0
   -0.6428   -2.5918   -0.3705 H   0  0  0  0  0  0  0  0  0  0  0  0
   -5.5506   -1.7902   -1.4165 H   0  0  0  0  0  0  0  0  0  0  0  0
   -7.3027   -2.5393   -2.9844 H   0  0  0  0  0  0  0  0  0  0  0  0
   -6.6892   -3.8271   -4.9988 H   0  0  0  0  0  0  0  0  0  0  0  0
   -4.3217   -4.3735   -5.4298 H   0  0  0  0  0  0  0  0  0  0  0  0
   -2.5777   -3.6555   -3.8470 H   0  0  0  0  0  0  0  0  0  0  0  0
    0.7252   -0.0307    3.5501 H   0  0  0  0  0  0  0  0  0  0  0  0
   -0.1886   -1.4706    4.0651 H   0  0  0  0  0  0  0  0  0  0  0  0
    1.4693   -1.2152    1.4998 H   0  0  0  0  0  0  0  0  0  0  0  0
    0.5315   -2.6460    1.9726 H   0  0  0  0  0  0  0  0  0  0  0  0
    1.9222   -2.1339    2.9382 H   0  0  0  0  0  0  0  0  0  0  0  0
    0.2066    2.5954    3.0293 H   0  0  0  0  0  0  0  0  0  0  0  0
    0.9411    3.3357    1.5864 H   0  0  0  0  0  0  0  0  0  0  0  0
    2.4749    1.8576    3.7870 H   0  0  0  0  0  0  0  0  0  0  0  0
    3.1902    2.5531    2.3330 H   0  0  0  0  0  0  0  0  0  0  0  0
    2.4379    3.6110    3.5420 H   0  0  0  0  0  0  0  0  0  0  0  0
    0.0633    4.9921    0.2355 H   0  0  0  0  0  0  0  0  0  0  0  0
    0.0990    7.2874    1.1221 H   0  0  0  0  0  0  0  0  0  0  0  0
    0.0201    9.2122   -0.4232 H   0  0  0  0  0  0  0  0  0  0  0  0
   -0.0660    8.8194   -2.8598 H   0  0  0  0  0  0  0  0  0  0  0  0
   -0.0738    6.5306   -3.7465 H   0  0  0  0  0  0  0  0  0  0  0  0
    0.9784    2.5422   -4.0394 H   0  0  0  0  0  0  0  0  0  0  0  0
   -0.0344    1.9387   -6.1903 H   0  0  0  0  0  0  0  0  0  0  0  0
   -2.1637    2.9650   -6.8981 H   0  0  0  0  0  0  0  0  0  0  0  0
   -3.2627    4.6246   -5.4344 H   0  0  0  0  0  0  0  0  0  0  0  0
   -2.2509    5.2382   -3.2821 H   0  0  0  0  0  0  0  0  0  0  0  0
    6.3037    1.3099    1.1032 H   0  0  0  0  0  0  0  0  0  0  0  0
    5.8695   -1.0660    1.5875 H   0  0  0  0  0  0  0  0  0  0  0  0
    4.7896   -2.4996   -0.1058 H   0  0  0  0  0  0  0  0  0  0  0  0
    4.1794   -1.5569   -2.3034 H   0  0  0  0  0  0  0  0  0  0  0  0
    4.6248    0.8190   -2.7929 H   0  0  0  0  0  0  0  0  0  0  0  0
    5.9211    4.9885   -0.0285 H   0  0  0  0  0  0  0  0  0  0  0  0
    8.0192    6.0280    0.7225 H   0  0  0  0  0  0  0  0  0  0  0  0
   10.1586    4.8196    0.4845 H   0  0  0  0  0  0  0  0  0  0  0  0
   10.1827    2.5523   -0.4949 H   0  0  0  0  0  0  0  0  0  0  0  0
    8.0899    1.5182   -1.2675 H   0  0  0  0  0  0  0  0  0  0  0  0
    6.7689    4.2302   -2.8248 H   0  0  0  0  0  0  0  0  0  0  0  0
    4.5985    9.6171   -5.1930 H   0  0  0  0  0  0  0  0  0  0  0  0
    9.4447    8.1837   -5.5238 H   0  0  0  0  0  0  0  0  0  0  0  0
    8.8565   10.9122   -7.5255 H   0  0  0  0  0  0  0  0  0  0  0  0
   10.2173   12.0696   -5.7916 H   0  0  0  0  0  0  0  0  0  0  0  0
    9.2655   11.3198   -3.4747 H   0  0  0  0  0  0  0  0  0  0  0  0
    6.7328   12.1052   -3.3222 H   0  0  0  0  0  0  0  0  0  0  0  0
    6.1238   13.3406   -5.5460 H   0  0  0  0  0  0  0  0  0  0  0  0
    8.3468   13.5408   -7.0506 H   0  0  0  0  0  0  0  0  0  0  0  0
    8.6378   14.1602   -5.4058 H   0  0  0  0  0  0  0  0  0  0  0  0
    6.3958   11.6755   -7.3785 H   0  0  0  0  0  0  0  0  0  0  0  0
  1  2  2  0  0  0  0
  2  3  1  0  0  0  0
  3  4  2  0  0  0  0
  3  5  1  0  0  0  0
  5  6  2  0  0  0  0
  6  7  1  0  0  0  0
  7  8  2  0  0  0  0
  8  9  1  0  0  0  0
  9 10  2  0  0  0  0
 10 11  1  0  0  0  0
 11 12  2  0  0  0  0
 12 13  1  0  0  0  0
 13 14  3  0  0  0  0
 12 15  1  0  0  0  0
 15 16  3  0  0  0  0
  8 17  1  0  0  0  0
 17 18  1  0  0  0  0
 18 19  1  0  0  0  0
 19 20  2  0  0  0  0
 20 21  1  0  0  0  0
 21 22  1  0  0  0  0
 21 23  1  0  0  0  0
  1 24  1  0  0  0  0
 24 25  2  0  0  0  0
 25 26  1  0  0  0  0
 26 27  1  0  0  0  0
 27 28  2  0  0  0  0
 28 29  1  0  0  0  0
 29 30  2  0  0  0  0
 30 31  1  0  0  0  0
 31 32  2  0  0  0  0
 26 33  1  0  0  0  0
 33 34  2  0  0  0  0
 34 35  1  0  0  0  0
 35 36  2  0  0  0  0
 36 37  1  0  0  0  0
 37 38  2  0  0  0  0
 25 39  1  0  0  0  0
 39 40  1  0  0  0  0
 40 41  1  0  0  0  0
 41 42  2  0  0  0  0
 42 43  1  0  0  0  0
 43 44  1  0  0  0  0
 44 45  2  0  0  0  0
 45 46  1  0  0  0  0
 46 47  2  0  0  0  0
 47 48  1  0  0  0  0
 48 49  2  0  0  0  0
 43 50  1  0  0  0  0
 50 51  2  0  0  0  0
 51 52  1  0  0  0  0
 52 53  2  0  0  0  0
 53 54  1  0  0  0  0
 54 55  2  0  0  0  0
 42 56  1  0  0  0  0
 56 57  1  0  0  0  0
 41 58  1  0  0  0  0
 58 59  2  0  0  0  0
 59 60  1  0  0  0  0
 60 61  1  0  0  0  0
 61 62  1  0  0  0  0
 59 63  1  0  0  0  0
 63 64  1  0  0  0  0
 64 65  1  0  0  0  0
 65 66  1  0  0  0  0
 63 67  2  0  0  0  0
 67 68  1  0  0  0  0
 68 69  1  0  0  0  0
 69 70  2  0  0  0  0
 70 71  1  0  0  0  0
 71 72  1  0  0  0  0
 67 73  1  0  0  0  0
 73 74  2  0  0  0  0
 74 75  1  0  0  0  0
 75 76  1  0  0  0  0
 76 77  2  0  0  0  0
 77 78  1  0  0  0  0
 78 79  2  0  0  0  0
 79 80  1  0  0  0  0
 80 81  2  0  0  0  0
 75 82  1  0  0  0  0
 82 83  2  0  0  0  0
 83 84  1  0  0  0  0
 84 85  2  0  0  0  0
 85 86  1  0  0  0  0
 86 87  2  0  0  0  0
 74 88  1  0  0  0  0
 88 89  1  0  0  0  0
 89 90  1  0  0  0  0
 90 91  2  0  0  0  0
 91 92  1  0  0  0  0
 92 93  1  0  0  0  0
 93 94  2  0  0  0  0
 94 95  1  0  0  0  0
 95 96  2  0  0  0  0
 96 97  1  0  0  0  0
 97 98  2  0  0  0  0
 92 99  1  0  0  0  0
 99100  2  0  0  0  0
100101  1  0  0  0  0
101102  2  0  0  0  0
102103  1  0  0  0  0
103104  2  0  0  0  0
 91105  1  0  0  0  0
105106  1  0  0  0  0
 90107  1  0  0  0  0
107108  2  0  0  0  0
108109  1  0  0  0  0
109110  2  0  0  0  0
109111  1  0  0  0  0
111112  2  0  0  0  0
112113  1  0  0  0  0
113114  2  0  0  0  0
114115  1  0  0  0  0
115116  2  0  0  0  0
116117  1  0  0  0  0
117118  2  0  0  0  0
118119  1  0  0  0  0
119120  3  0  0  0  0
118121  1  0  0  0  0
121122  3  0  0  0  0
114123  1  0  0  0  0
123124  1  0  0  0  0
124125  1  0  0  0  0
125126  2  0  0  0  0
126127  1  0  0  0  0
127128  1  0  0  0  0
127129  1  0  0  0  0
 11  2  1  0  0  0  0
 23 17  1  0  0  0  0
 57 24  1  0  0  0  0
 69 58  1  0  0  0  0
106 73  1  0  0  0  0
117108  1  0  0  0  0
129123  1  0  0  0  0
 10  5  1  0  0  0  0
 22 18  1  0  0  0  0
 32 27  1  0  0  0  0
 38 33  1  0  0  0  0
 56 39  2  0  0  0  0
 72 68  2  0  0  0  0
 81 76  1  0  0  0  0
 87 82  1  0  0  0  0
105 88  2  0  0  0  0
116111  1  0  0  0  0
128124  1  0  0  0  0
 23  7  1  0  0  0  0
 49 44  1  0  0  0  0
 55 50  1  0  0  0  0
 98 93  1  0  0  0  0
104 99  1  0  0  0  0
129113  1  0  0  0  0
  1130  1  0  0  0  0
  6131  1  0  0  0  0
  9132  1  0  0  0  0
 17133  1  0  0  0  0
 18134  1  0  0  0  0
 19135  1  0  0  0  0
 20136  1  0  0  0  0
 21137  1  0  0  0  0
 22138  1  0  0  0  0
 22139  1  0  0  0  0
 23140  1  0  0  0  0
 28141  1  0  0  0  0
 29142  1  0  0  0  0
 30143  1  0  0  0  0
 31144  1  0  0  0  0
 32145  1  0  0  0  0
 34146  1  0  0  0  0
 35147  1  0  0  0  0
 36148  1  0  0  0  0
 37149  1  0  0  0  0
 38150  1  0  0  0  0
 45151  1  0  0  0  0
 46152  1  0  0  0  0
 47153  1  0  0  0  0
 48154  1  0  0  0  0
 49155  1  0  0  0  0
 51156  1  0  0  0  0
 52157  1  0  0  0  0
 53158  1  0  0  0  0
 54159  1  0  0  0  0
 55160  1  0  0  0  0
 61161  1  0  0  0  0
 61162  1  0  0  0  0
 62163  1  0  0  0  0
 62164  1  0  0  0  0
 62165  1  0  0  0  0
 65166  1  0  0  0  0
 65167  1  0  0  0  0
 66168  1  0  0  0  0
 66169  1  0  0  0  0
 66170  1  0  0  0  0
 77171  1  0  0  0  0
 78172  1  0  0  0  0
 79173  1  0  0  0  0
 80174  1  0  0  0  0
 81175  1  0  0  0  0
 83176  1  0  0  0  0
 84177  1  0  0  0  0
 85178  1  0  0  0  0
 86179  1  0  0  0  0
 87180  1  0  0  0  0
 94181  1  0  0  0  0
 95182  1  0  0  0  0
 96183  1  0  0  0  0
 97184  1  0  0  0  0
 98185  1  0  0  0  0
100186  1  0  0  0  0
101187  1  0  0  0  0
102188  1  0  0  0  0
103189  1  0  0  0  0
104190  1  0  0  0  0
107191  1  0  0  0  0
112192  1  0  0  0  0
115193  1  0  0  0  0
123194  1  0  0  0  0
124195  1  0  0  0  0
125196  1  0  0  0  0
126197  1  0  0  0  0
127198  1  0  0  0  0
128199  1  0  0  0  0
128200  1  0  0  0  0
129201  1  0  0  0  0
M  END
