167

C          4.16170        5.69370        3.48290
C          3.60110        5.73100        4.71260
C          2.71330        4.66090        5.25840
O          2.29130        3.68260        4.68170
C          2.49500        5.00890        6.67080
C          1.74800        4.28270        7.59630
C          1.71000        4.84430        8.84880
C          2.37640        6.03780        9.16370
C          3.12480        6.75800        8.26450
C          3.16790        6.20990        6.97760
C          3.82860        6.70160        5.77480
C          4.48160        7.89730        5.65040
C          4.66070        8.82620        6.69830
N          4.84660        9.62560        7.50060
C          5.03750        8.39750        4.45430
N          5.49620        8.88720        3.52250
C          1.89330        6.02240       10.59190
C          0.72880        6.97330       10.96560
C         -0.06240        7.20260        9.70150
C         -0.69090        6.07260        9.40630
C         -0.33510        5.05810       10.46500
C         -0.19580        5.97970       11.68710
C          1.15360        4.69280       10.24160
C          3.73270        4.72760        2.47520
C          4.55740        3.79160        1.83800
O          5.87700        3.58150        2.03100
C          6.69200        4.57340        2.60640
C          3.95000        2.88930        0.95570
F          4.73390        1.94150        0.40460
C          2.60280        2.90270        0.63510
C          1.76510        3.82930        1.29750
O          0.45270        3.79400        0.96390
C         -0.50550        4.25030        1.90040
C          2.36040        4.71360        2.17410
F          1.61340        5.70200        2.73120
C          2.05030        2.02380       -0.37680
C          2.55290        1.75740       -1.64030
N          3.64880        2.36290       -2.22560
C          4.43790        1.63510       -3.12780
C          4.68230        0.27940       -2.93270
C          5.43920       -0.43810       -3.83890
C          5.97370        0.19510       -4.95170
S          6.95310       -0.61170       -6.17890
C          6.96410       -2.35030       -5.65740
C          5.74940        1.55870       -5.13860
C          4.98870        2.27130       -4.24070
C          4.05770        3.64050       -1.81840
C          5.40880        3.91090       -1.59720
C          5.78970        5.10310       -1.02640
C          4.83550        6.05400       -0.66810
S          5.42350        7.46110        0.22440
C          3.91530        8.34200        0.70630
C          3.50290        5.83460       -0.98890
C          3.12070        4.63860       -1.56440
C          1.73000        0.81280       -2.31230
S          1.76770        0.05150       -3.86970
C          0.30310       -0.81090       -3.49780
C         -0.20010       -0.51150       -2.25260
N         -1.41350       -1.02990       -1.77110
C         -1.43180       -2.02490       -0.79660
C         -0.26960       -2.69730       -0.42890
C         -0.31200       -3.73480        0.48150
C         -1.51990       -4.11840        1.04210
S         -1.69950       -5.49080        2.14980
C         -0.17820       -6.44310        1.87700
C         -2.67160       -3.39660        0.74230
C         -2.62730       -2.35460       -0.15440
C         -2.52240       -0.77100       -2.58820
C         -2.71320        0.52370       -3.06360
C         -3.73380        0.81030       -3.94750
C         -4.58450       -0.20100       -4.36880
S         -5.83940        0.00790       -5.59720
C         -5.64880        1.73400       -6.12760
C         -4.42240       -1.49150       -3.86760
C         -3.40220       -1.77740       -2.98870
C          0.62420        0.41690       -1.57690
S          0.53540        1.20890       -0.05150
C         -0.25580       -1.89950       -4.30260
C          0.08960       -3.19430       -3.96820
F          1.12650       -3.40390       -3.14180
C         -0.64420       -4.31400       -4.38770
F         -0.23390       -5.51830       -3.96850
C         -1.76300       -4.20310       -5.19210
C         -2.00740       -2.91700       -5.72920
C         -1.27250       -1.76260       -5.27170
N         -1.69650       -0.64320       -5.85920
S         -2.87950       -1.01220       -6.88070
N         -2.93910       -2.59280       -6.62190
C         -2.67840       -5.30340       -5.40580
C         -3.11130       -6.08290       -4.38810
C         -2.92930       -5.75550       -2.93860
O         -2.34520       -4.80710       -2.45820
C         -3.70670       -6.75520       -2.20020
C         -3.82630       -6.84390       -0.81340
C         -4.61720       -7.88320       -0.39060
C         -5.25510       -8.76180       -1.27960
C         -5.14520       -8.68440       -2.64760
C         -4.33500       -7.63770       -3.10420
C         -3.97160       -7.25710       -4.46410
C         -4.31690       -7.92420       -5.60740
C         -5.13950       -9.07060       -5.64690
N         -5.80540       -9.99950       -5.75310
C         -3.88560       -7.57820       -6.90660
N         -3.56400       -7.37580       -7.98970
C         -5.89740       -9.54800       -0.16390
C         -7.39090       -9.26610        0.10790
C         -7.60830       -9.79350        1.50810
C         -6.99640       -8.96950        2.34930
C         -6.35590       -7.87080        1.53260
C         -7.37820       -7.75870        0.39410
C         -5.17860       -8.57460        0.82510
H          4.90090        6.42970        3.20000
H          1.25470        3.36670        7.31110
H          3.63850        7.66810        8.52560
H          2.66550        5.99170       11.35770
H          1.03110        7.86350       11.51020
H         -0.03950        8.11740        9.13870
H         -1.29810        5.85420        8.54730
H         -1.00080        4.20380       10.55500
H         -1.14230        6.42700       11.98650
H          0.27050        5.49640       12.54450
H          1.44490        3.79060       10.77580
H          6.40840        4.77220        3.64550
H          6.66740        5.50030        2.02730
H          7.69980        4.16080        2.58320
H         -0.24390        3.94120        2.91450
H         -0.61450        5.33720        1.86660
H         -1.44360        3.78190        1.60560
H          4.29200       -0.21290       -2.05500
H          5.60880       -1.48660       -3.65620
H          5.94770       -2.73030       -5.61360
H          7.46590       -2.44920       -4.69920
H          7.52390       -2.88060       -6.42160
H          6.17400        2.04590       -6.00290
H          4.81140        3.32540       -4.39340
H          6.14720        3.15810       -1.82480
H          6.83050        5.29800       -0.81780
H          3.24200        7.66850        1.22920
H          3.43960        8.77650       -0.16820
H          4.24860        9.12530        1.38070
H          2.75070        6.57950       -0.78550
H          2.07870        4.46390       -1.78750
H          0.67610       -2.42690       -0.87180
H          0.60540       -4.24480        0.72790
H         -0.33380       -7.40030        2.36510
H         -0.02870       -6.58650        0.81100
H          0.66960       -5.93540        2.32830
H         -3.60360       -3.66680        1.21650
H         -3.52630       -1.80000       -0.37610
H         -2.04120        1.30860       -2.75150
H         -3.84440        1.82010       -4.30660
H         -6.36430        1.87140       -6.93240
H         -5.88690        2.40420       -5.30690
H         -4.64050        1.89990       -6.49560
H         -5.08600       -2.27340       -4.20630
H         -3.24900       -2.78710       -2.64120
H         -3.05450       -5.42560       -6.41200
H         -3.31990       -6.14600       -0.16560
H         -5.63960       -9.36950       -3.31580
H         -5.65190      -10.60750       -0.12770
H         -8.06890       -9.62530       -0.66140
H         -8.12060      -10.71110        1.73010
H         -6.89530       -9.06150        3.41470
H         -6.08720       -6.96010        2.06050
H         -7.04450       -7.14960       -0.44400
H         -8.34480       -7.39920        0.74290
H         -4.44610       -8.98000        1.51980
