139

C          5.26020       -8.61980        0.13100
C          6.09910       -8.15960       -0.83600
C          6.12720       -6.78560       -1.40560
O          5.31380       -5.89290       -1.28440
C          7.41520       -6.67400       -2.11330
C          7.90350       -5.54290       -2.76450
C          9.13860       -5.71770       -3.33840
C          9.84300       -6.92780       -3.26410
C          9.37140       -8.05140       -2.62900
C          8.11090       -7.89660       -2.04260
C          7.29260       -8.85080       -1.30340
C          7.55960      -10.18530       -1.15300
C          8.71770      -10.82700       -1.64050
N          9.63770      -11.40970       -2.00400
C          6.70490      -11.11920       -0.52810
N          6.06220      -11.94760       -0.05970
C         11.01580       -6.38360       -4.04040
C         12.28520       -5.98560       -3.24700
C         11.82760       -5.62530       -1.85540
C         11.15970       -4.48200       -1.93170
C         11.15300       -4.04870       -3.37690
C         12.52310       -4.58150       -3.82570
C         10.22860       -5.03820       -4.12840
C          4.04980       -8.00440        0.60040
C          3.21930       -7.27930       -0.25510
C          2.12430       -6.63460        0.28580
N          1.20870       -5.82300       -0.33430
C          1.25650       -5.43160       -1.71890
C          2.26040       -4.30330       -1.94870
C          0.35640       -5.32950        0.61810
C          0.67900       -5.88890        1.88190
C          1.82000       -6.72260        1.67020
C          2.61430       -7.51140        2.50040
C          3.70620       -8.14850        1.96280
C         -0.06890       -5.53660        3.00210
C         -1.08800       -4.62200        2.86500
C         -1.38240       -4.04340        1.62050
C         -0.66680       -4.40540        0.48600
C         -2.40310       -2.99620        1.49740
C         -3.29420       -2.95840        0.44730
F         -3.34200       -3.96790       -0.44370
C         -4.17050       -1.88160        0.23780
F         -4.95020       -1.93210       -0.85810
C         -4.19630       -0.78070        1.06550
C         -3.33880       -0.81800        2.19850
N         -3.38480        0.18700        3.09320
C         -2.58650        0.16900        4.12980
C         -2.76980        1.27580        5.12430
C         -3.72990        0.83240        6.23110
C         -1.64200       -0.88400        4.29760
N         -1.60390       -1.88180        3.45320
C         -2.45160       -1.90690        2.40900
C         -0.61530       -0.90790        5.38970
C          0.62720       -0.12370        4.96010
C         -5.00430        0.40500        0.75960
C         -4.40470        1.65410        0.85560
C         -5.14030        2.76630        0.48250
N         -4.75970        4.08240        0.44110
C         -3.48030        4.59740        0.85100
C         -3.44400        4.86280        2.35500
C         -5.80790        4.82210       -0.04330
C         -6.90320        3.96040       -0.32490
C         -6.47600        2.64270        0.01920
C         -7.07120        1.38520       -0.04010
C         -6.33430        0.28210        0.32560
C         -8.08480        4.49380       -0.83800
C         -8.14770        5.84110       -1.09100
C         -7.04170        6.69470       -0.86080
C         -5.87720        6.17990       -0.28330
C         -7.18050        8.07060       -1.22910
C         -6.22770        8.97080       -1.61080
C         -4.82490        8.68920       -2.00800
O         -4.16310        7.68720       -1.83840
C         -4.36920        9.89650       -2.72850
C         -3.17370       10.10190       -3.35440
C         -2.93830       11.33910       -3.99310
C         -1.72230       11.60490       -4.65230
C         -1.52200       12.80910       -5.26630
F         -0.36440       13.06040       -5.89370
C         -2.52600       13.79800       -5.24790
F         -2.30100       14.96930       -5.85830
C         -3.71610       13.56960       -4.61630
C         -3.95430       12.33830       -3.97250
C         -5.18140       12.09520       -3.31420
C         -5.38490       10.88940       -2.69560
C         -6.51920       10.35650       -1.94960
C         -7.62260       11.07200       -1.56780
C         -8.66660       10.58640       -0.75090
N         -9.54020       10.27790       -0.07260
C         -7.84030       12.42300       -1.91080
N         -8.07460       13.51790       -2.16380
H          5.55370       -9.51710        0.66400
H          7.32840       -4.63040       -2.79440
H          9.92600       -8.97350       -2.57880
H         11.25250       -6.89860       -4.96920
H         13.10100       -6.70010       -3.31390
H         11.98270       -6.24830       -0.99410
H         10.64480       -3.95910       -1.14700
H         10.93830       -2.99950       -3.56280
H         12.65850       -4.57470       -4.90630
H         13.35330       -4.06400       -3.34750
H          9.94780       -4.67630       -5.11570
H          3.42670       -7.24180       -1.31040
H          1.53310       -6.30520       -2.31600
H          0.25370       -5.11990       -2.02090
H          3.26040       -4.62660       -1.66960
H          1.99480       -3.43600       -1.34820
H          2.26330       -4.01550       -2.99670
H          2.37780       -7.61070        3.54890
H          4.34710       -8.74510        2.59510
H          0.15680       -5.96880        3.96520
H         -1.67550       -4.33380        3.72100
H         -0.88180       -3.94530       -0.46560
H         -3.20280        2.13100        4.60400
H         -1.81380        1.57110        5.55640
H         -3.86930        1.63610        6.94980
H         -3.34530       -0.03960        6.75570
H         -4.69580        0.57660        5.80260
H         -0.33380       -1.94710        5.56280
H         -1.01900       -0.49020        6.31170
H          1.37580       -0.14840        5.74790
H          0.38070        0.91500        4.74840
H          1.05170       -0.56660        4.06260
H         -3.38300        1.73730        1.18750
H         -3.28530        5.51690        0.29440
H         -2.71090        3.86800        0.58230
H         -4.19580        5.59970        2.62760
H         -2.46610        5.23580        2.64740
H         -3.64780        3.94370        2.89990
H         -8.09040        1.27850       -0.37840
H         -6.78460       -0.69720        0.28380
H         -8.93120        3.85400       -1.03520
H         -9.04940        6.26790       -1.50430
H         -5.06630        6.83530       -0.02100
H         -8.20890        8.41190       -1.27930
H         -2.41940        9.32970       -3.36250
H         -0.94440       10.85780       -4.67580
H         -4.47330       14.33790       -4.61070
H         -5.93250       12.86820       -3.32240
