236

C         11.51150        6.07570       -4.92650
C         11.24890        6.82590       -6.03090
C          9.98670        7.52730       -6.38850
O          8.87510        7.38450       -5.92360
C         10.35610        8.50660       -7.42760
C          9.51200        9.44680       -8.01510
C         10.12240       10.23180       -8.96240
C         11.47860       10.10180       -9.29380
C         12.32280        9.18240       -8.71970
C         11.71690        8.36360       -7.76120
C         12.27470        7.27980       -6.96250
C         13.51430        6.72320       -7.12960
C         14.46700        7.16810       -8.07070
N         15.28850        7.47700       -8.81090
C         14.00630        5.59950       -6.43030
N         14.47750        4.67900       -5.93040
C         11.41490       11.20450      -10.32050
C         11.37040       10.79400      -11.81320
C         10.75610        9.41690      -11.86090
C          9.47220        9.53550      -11.55020
C          9.19500       10.99510      -11.28710
C         10.17510       11.64000      -12.28000
C          9.90360       11.34580       -9.95490
C         10.62060        5.52260       -3.94600
C          9.29380        5.19400       -4.23070
C          8.51210        4.67740       -3.21530
N          7.18860        4.31490       -3.24400
C          6.32270        4.40670       -4.39050
C          6.34210        3.12080       -5.21510
C          6.84440        3.83300       -2.00850
C          7.97000        3.89630       -1.14460
C          9.03810        4.44340       -1.91740
C         10.37410        4.73950       -1.65250
C         11.14710        5.26240       -2.65910
C          7.85590        3.45110        0.16940
C          6.64630        2.96130        0.60160
C          5.52600        2.90600       -0.24760
C          5.62870        3.33930       -1.56810
C          4.26690        2.38580        0.24020
C          3.03380        2.51320       -0.32090
C          2.00150        1.84970        0.38900
C          0.63930        1.76180        0.05290
C          0.14980        2.30370       -1.19820
C          0.74200        2.18020       -2.42480
C          0.00080        2.82130       -3.43500
Cl         0.51210        2.84420       -5.07460
C         -1.14750        3.43240       -3.02050
Si        -2.36860        4.43950       -4.05350
C         -3.69340        5.03770       -2.81210
C         -4.79570        5.88110       -3.44240
C         -1.41250        5.91210       -4.81560
C         -0.61470        6.70750       -3.78540
C         -3.11700        3.29900       -5.39630
C         -3.64220        4.05240       -6.61440
S         -1.33110        3.20470       -1.31570
C         -0.17170        1.05100        0.92740
C          0.32550        0.34700        2.05070
C          1.68590        0.44650        2.39610
C          2.26980       -0.22580        3.54060
S          1.91400       -1.88060        3.93170
C          3.01690       -1.89920        5.26020
Si         3.27810       -3.44740        6.31750
C          2.29190       -4.86850        5.49800
C          0.77770       -4.77730        5.65720
C          2.68590       -3.06210        8.09790
C          1.51140       -2.08890        8.16640
C          5.14060       -3.87620        6.28490
C          5.48970       -5.05130        7.19110
C          3.59720       -0.66800        5.37410
C          3.19810        0.27810        4.41030
Cl         4.72860       -0.29630        6.61080
C          2.48460        1.21980        1.55770
S          4.20310        1.45430        1.72490
C         -0.68620       -0.44050        2.66120
C         -1.89480       -0.34730        2.04770
S         -1.87780        0.79550        0.71550
C         -3.05730       -1.16480        2.25640
C         -3.09340       -2.54840        2.22970
N         -2.00260       -3.38100        2.03200
C         -1.98080       -4.60070        2.71960
C         -2.45460       -4.66610        4.02890
C         -2.53050       -5.87890        4.68110
C         -2.12340       -7.03460        4.03460
S         -2.32240       -8.60610        4.84580
C         -3.55040       -9.31580        3.70240
C         -1.59550       -6.97000        2.75310
C         -1.52770       -5.76050        2.09460
C         -0.96200       -3.00590        1.17490
C          0.35820       -3.30920        1.49230
C          1.39890       -2.81320        0.73080
C          1.13540       -1.99940       -0.36130
S          2.38070       -1.19580       -1.32130
C          3.91290       -1.53110       -0.40930
C         -0.18590       -1.77350       -0.74000
C         -1.22250       -2.27960        0.01110
C         -4.42230       -3.02790        2.35830
S         -5.11050       -4.61000        2.42920
C         -6.72880       -3.90710        2.47970
C         -6.69580       -2.49120        2.55850
N         -7.78190       -1.68230        2.75340
C         -7.73420       -0.34870        2.30690
C         -7.24730       -0.04900        1.03810
C         -7.14500        1.26230        0.61790
C         -7.53490        2.29300        1.46280
S         -7.40020        3.99860        1.04180
C         -6.16840        3.99470       -0.29320
C         -8.07430        1.99170        2.71260
C         -8.17260        0.68530        3.13320
C         -8.91810       -2.10430        3.47010
C         -8.79130       -2.91330        4.60130
C         -9.91430       -3.40840        5.22200
C        -11.18570       -3.08780        4.74430
S        -12.55770       -3.85370        5.54500
C        -13.89360       -3.68630        4.32740
C        -11.31290       -2.20180        3.68380
C        -10.18610       -1.72020        3.04560
C         -5.37310       -2.01960        2.44940
S         -4.64860       -0.44400        2.38340
C         -7.90730       -4.63960        2.34720
C         -8.13920       -5.99420        2.40020
C         -7.16620       -7.04240        2.71570
O         -5.95540       -6.92880        2.82700
C         -7.94330       -8.28510        2.88870
C         -7.45810       -9.55120        3.20830
C         -8.43040      -10.51880        3.29920
C         -9.78760      -10.25240        3.08110
C        -10.28050       -9.00960        2.75970
C         -9.30860       -8.00990        2.67050
C         -9.44830       -6.59690        2.32680
C        -10.62650       -5.97760        1.98410
C        -11.90280       -6.56750        2.06700
N        -12.98530       -6.94660        2.13900
C        -10.74880       -4.67090        1.47740
N        -10.95210       -3.63540        1.01900
C        -10.19310      -11.68280        3.33580
C        -10.83010      -11.98510        4.70850
C        -10.67320      -13.48100        4.85840
C         -9.38750      -13.73280        5.06870
C         -8.65370      -12.41110        5.06430
C         -9.73490      -11.50710        5.67050
C         -8.67900      -11.97990        3.58230
H         12.55900        5.89740       -4.70830
H          8.47520        9.51730       -7.72520
H         13.36520        9.10040       -8.97830
H         12.06460       12.05930      -10.14380
H         12.31060       10.91840      -12.34340
H         11.31390        8.51920      -12.05320
H          8.74220        8.75630      -11.43100
H          8.15400       11.30330      -11.33920
H          9.90650       11.45240      -13.31850
H         10.31200       12.70900      -12.12260
H          9.56470       12.29410       -9.54210
H          8.90230        5.32420       -5.22330
H          5.30710        4.61320       -4.04200
H          6.65130        5.25240       -4.99970
H          6.01500        2.27770       -4.61070
H          5.67820        3.21550       -6.07000
H          7.34820        2.91730       -5.57420
H         10.79070        4.55420       -0.67430
H         12.18330        5.50030       -2.46940
H          8.70460        3.48930        0.83490
H          6.53910        2.61150        1.61780
H          4.78270        3.27100       -2.23250
H          2.84180        3.09180       -1.20460
H          1.63640        1.61160       -2.60310
H         -4.14250        4.17180       -2.32350
H         -3.21260        5.61430       -2.02060
H         -5.50050        6.23050       -2.68970
H         -4.37670        6.75170       -3.94050
H         -5.34850        5.30160       -4.17720
H         -2.11270        6.58100       -5.31720
H         -0.72970        5.54920       -5.58440
H          0.11180        6.06790       -3.28930
H         -0.07920        7.52670       -4.26170
H         -1.27110        7.12570       -3.02640
H         -3.92970        2.71390       -4.96300
H         -2.36750        2.58090       -5.72950
H         -4.40860        4.76840       -6.32960
H         -4.07410        3.36140       -7.33620
H         -2.83790        4.59500       -7.10380
H          2.62390       -5.81910        5.91660
H          2.53090       -4.90330        4.43330
H          0.39800       -3.85260        5.22820
H          0.49920       -4.80860        6.70700
H          0.28640       -5.60840        5.15430
H          3.51510       -2.64600        8.67190
H          2.40550       -3.99310        8.59280
H          1.78720       -1.12810        7.73860
H          0.65600       -2.47100        7.61540
H          1.20830       -1.92650        9.19910
H          5.72670       -3.01110        6.59240
H          5.44900       -4.11040        5.26510
H          6.55700       -5.26180        7.15630
H          4.95760       -5.94770        6.88300
H          5.21980       -4.83350        8.22120
H          3.55970        1.28950        4.38950
H         -0.52000       -1.06840        3.51690
H         -2.77620       -3.76250        4.52550
H         -2.91320       -5.93830        5.68790
H         -4.30090       -8.55800        3.49420
H         -3.06490       -9.63710        2.78520
H         -3.98600      -10.16990        4.21160
H         -1.25640       -7.87070        2.26430
H         -1.14370       -5.70750        1.08680
H          0.57190       -3.91310        2.36060
H          2.40950       -3.04990        1.02050
H          3.79980       -1.22420        0.62610
H          4.68010       -0.93120       -0.88950
H          4.16930       -2.58400       -0.48270
H         -0.38760       -1.18090       -1.61960
H         -2.24360       -2.09220       -0.28600
H         -6.95080       -0.85020        0.37740
H         -6.76350        1.46640       -0.36920
H         -6.61290        3.63890       -1.21830
H         -5.31940        3.38480        0.00100
H         -5.85960        5.02850       -0.40910
H         -8.39480        2.79770        3.35410
H         -8.56890        0.45570        4.11080
H         -7.80980       -3.17530        4.96690
H         -9.82400       -4.05700        6.07970
H        -14.25610       -2.66280        4.30060
H        -14.68430       -4.34810        4.66670
H        -13.53820       -4.00660        3.35250
H        -12.28230       -1.90290        3.32160
H        -10.29100       -1.06720        2.19350
H         -8.78640       -4.02740        2.19530
H         -6.40420       -9.72380        3.35760
H        -11.32680       -8.81870        2.58820
H        -10.69540      -12.18720        2.51250
H        -11.82930      -11.58090        4.84520
H        -11.47810      -14.18320        4.74420
H         -8.90400      -14.68720        5.16530
H         -7.67050      -12.39600        5.52700
H         -9.95460      -11.76550        6.70510
H         -9.51550      -10.44350        5.59970
H         -8.17300      -12.68500        2.92510
