
  xtb     02142214303D
 energy: -313.617909115766 gnorm: 0.000453154749 xtb: 6.4.1 (unknown)
190210  0     0  0            999 V2000
   -0.0309   -7.5709   -8.6547 C   0  0  0  0  0  0  0  0  0  0  0  0
   -0.6331   -8.7079   -8.2137 C   0  0  0  0  0  0  0  0  0  0  0  0
   -1.4923   -8.8706   -7.0107 C   0  0  0  0  0  0  0  0  0  0  0  0
   -1.6066   -8.1406   -6.0487 O   0  0  0  0  0  0  0  0  0  0  0  0
   -2.2527  -10.1154   -7.2339 C   0  0  0  0  0  0  0  0  0  0  0  0
   -3.2540  -10.6319   -6.4129 C   0  0  0  0  0  0  0  0  0  0  0  0
   -3.8009  -11.8062   -6.8692 C   0  0  0  0  0  0  0  0  0  0  0  0
   -3.3855  -12.4243   -8.0572 C   0  0  0  0  0  0  0  0  0  0  0  0
   -2.3964  -11.9298   -8.8727 C   0  0  0  0  0  0  0  0  0  0  0  0
   -1.8250  -10.7336   -8.4249 C   0  0  0  0  0  0  0  0  0  0  0  0
   -0.7670   -9.9204   -9.0109 C   0  0  0  0  0  0  0  0  0  0  0  0
    0.0200  -10.2746  -10.0734 C   0  0  0  0  0  0  0  0  0  0  0  0
    1.1153   -9.5251  -10.5555 C   0  0  0  0  0  0  0  0  0  0  0  0
    2.0335   -8.9928  -10.9939 N   0  0  0  0  0  0  0  0  0  0  0  0
   -0.1257  -11.4688  -10.8103 C   0  0  0  0  0  0  0  0  0  0  0  0
   -0.1925  -12.4168  -11.4542 N   0  0  0  0  0  0  0  0  0  0  0  0
   -4.3729  -13.5548   -7.9081 C   0  0  0  0  0  0  0  0  0  0  0  0
   -5.6391  -13.4856   -8.7880 C   0  0  0  0  0  0  0  0  0  0  0  0
   -6.6089  -14.4190   -8.0998 C   0  0  0  0  0  0  0  0  0  0  0  0
   -7.0009  -13.8356   -6.9744 C   0  0  0  0  0  0  0  0  0  0  0  0
   -6.3027  -12.4980   -6.8829 C   0  0  0  0  0  0  0  0  0  0  0  0
   -6.2340  -12.1340   -8.3717 C   0  0  0  0  0  0  0  0  0  0  0  0
   -4.8342  -12.8673   -6.5831 C   0  0  0  0  0  0  0  0  0  0  0  0
    0.1542   -6.3197   -7.9746 C   0  0  0  0  0  0  0  0  0  0  0  0
    0.3259   -6.2331   -6.5922 C   0  0  0  0  0  0  0  0  0  0  0  0
    0.4362   -4.9783   -6.0224 C   0  0  0  0  0  0  0  0  0  0  0  0
    0.5608   -4.6372   -4.7001 N   0  0  0  0  0  0  0  0  0  0  0  0
    0.5641   -5.5676   -3.6016 C   0  0  0  0  0  0  0  0  0  0  0  0
    1.9703   -6.0774   -3.2931 C   0  0  0  0  0  0  0  0  0  0  0  0
    0.6052   -3.2706   -4.6066 C   0  0  0  0  0  0  0  0  0  0  0  0
    0.5075   -2.7047   -5.9045 C   0  0  0  0  0  0  0  0  0  0  0  0
    0.4045   -3.7997   -6.8142 C   0  0  0  0  0  0  0  0  0  0  0  0
    0.2892   -3.9001   -8.1993 C   0  0  0  0  0  0  0  0  0  0  0  0
    0.1791   -5.1466   -8.7637 C   0  0  0  0  0  0  0  0  0  0  0  0
    0.4911   -1.3213   -6.0543 C   0  0  0  0  0  0  0  0  0  0  0  0
    0.5611   -0.5296   -4.9319 C   0  0  0  0  0  0  0  0  0  0  0  0
    0.6651   -1.0894   -3.6454 C   0  0  0  0  0  0  0  0  0  0  0  0
    0.7027   -2.4697   -3.4809 C   0  0  0  0  0  0  0  0  0  0  0  0
    0.7029   -0.2178   -2.4678 C   0  0  0  0  0  0  0  0  0  0  0  0
    1.3897    0.9788   -2.4432 C   0  0  0  0  0  0  0  0  0  0  0  0
    2.1220    1.3731   -3.5054 F   0  0  0  0  0  0  0  0  0  0  0  0
    1.4492    1.7947   -1.3057 C   0  0  0  0  0  0  0  0  0  0  0  0
    2.2076    2.9042   -1.3728 F   0  0  0  0  0  0  0  0  0  0  0  0
    0.8406    1.4459   -0.1191 C   0  0  0  0  0  0  0  0  0  0  0  0
    0.0701    0.2508   -0.1201 C   0  0  0  0  0  0  0  0  0  0  0  0
   -0.6121   -0.0861    0.9881 N   0  0  0  0  0  0  0  0  0  0  0  0
   -1.2973   -1.2022    1.0086 C   0  0  0  0  0  0  0  0  0  0  0  0
   -2.0601   -1.4901    2.2657 C   0  0  0  0  0  0  0  0  0  0  0  0
   -3.4157   -0.7801    2.2292 C   0  0  0  0  0  0  0  0  0  0  0  0
   -1.3423   -2.0393   -0.1414 C   0  0  0  0  0  0  0  0  0  0  0  0
   -0.7135   -1.7015   -1.2376 N   0  0  0  0  0  0  0  0  0  0  0  0
    0.0135   -0.5719   -1.2728 C   0  0  0  0  0  0  0  0  0  0  0  0
   -2.0667   -3.3514   -0.1859 C   0  0  0  0  0  0  0  0  0  0  0  0
   -1.1698   -4.4690    0.3528 C   0  0  0  0  0  0  0  0  0  0  0  0
    1.0156    2.2079    1.0998 C   0  0  0  0  0  0  0  0  0  0  0  0
    1.3782    1.7111    2.3400 C   0  0  0  0  0  0  0  0  0  0  0  0
    1.7248    0.3997    2.6215 N   0  0  0  0  0  0  0  0  0  0  0  0
    2.2904   -0.4108    1.6318 C   0  0  0  0  0  0  0  0  0  0  0  0
    3.2146    0.1149    0.7305 C   0  0  0  0  0  0  0  0  0  0  0  0
    3.6799   -0.6378   -0.3291 C   0  0  0  0  0  0  0  0  0  0  0  0
    3.2359   -1.9410   -0.5022 C   0  0  0  0  0  0  0  0  0  0  0  0
    3.7159   -2.9636   -1.8602 S   0  0  0  0  0  0  0  0  0  0  0  0
    4.3194   -1.7829   -3.0970 C   0  0  0  0  0  0  0  0  0  0  0  0
    2.3779   -2.4997    0.4415 C   0  0  0  0  0  0  0  0  0  0  0  0
    1.9121   -1.7479    1.4966 C   0  0  0  0  0  0  0  0  0  0  0  0
    1.3618   -0.1429    3.8612 C   0  0  0  0  0  0  0  0  0  0  0  0
    0.1711    0.2342    4.4843 C   0  0  0  0  0  0  0  0  0  0  0  0
   -0.1678   -0.2937    5.7104 C   0  0  0  0  0  0  0  0  0  0  0  0
    0.6659   -1.2156    6.3396 C   0  0  0  0  0  0  0  0  0  0  0  0
    0.1157   -1.8359    7.8987 S   0  0  0  0  0  0  0  0  0  0  0  0
    1.5138   -2.8287    8.4941 C   0  0  0  0  0  0  0  0  0  0  0  0
    1.8475   -1.5996    5.7194 C   0  0  0  0  0  0  0  0  0  0  0  0
    2.1926   -1.0623    4.4948 C   0  0  0  0  0  0  0  0  0  0  0  0
    1.4226    2.7533    3.2987 C   0  0  0  0  0  0  0  0  0  0  0  0
    1.8471    2.8200    4.9685 S   0  0  0  0  0  0  0  0  0  0  0  0
    1.5233    4.5610    5.0077 C   0  0  0  0  0  0  0  0  0  0  0  0
    1.2004    5.0647    3.7313 C   0  0  0  0  0  0  0  0  0  0  0  0
    1.0935    6.3762    3.3658 N   0  0  0  0  0  0  0  0  0  0  0  0
    0.3260    6.7107    2.2296 C   0  0  0  0  0  0  0  0  0  0  0  0
    0.8465    7.5746    1.2733 C   0  0  0  0  0  0  0  0  0  0  0  0
    0.1096    7.9046    0.1524 C   0  0  0  0  0  0  0  0  0  0  0  0
   -1.1613    7.3724   -0.0230 C   0  0  0  0  0  0  0  0  0  0  0  0
   -2.1916    7.7096   -1.4128 S   0  0  0  0  0  0  0  0  0  0  0  0
   -1.1616    8.7514   -2.4849 C   0  0  0  0  0  0  0  0  0  0  0  0
   -1.6917    6.5228    0.9478 C   0  0  0  0  0  0  0  0  0  0  0  0
   -0.9579    6.1934    2.0646 C   0  0  0  0  0  0  0  0  0  0  0  0
    1.7095    7.4215    4.0638 C   0  0  0  0  0  0  0  0  0  0  0  0
    1.0310    8.6302    4.2399 C   0  0  0  0  0  0  0  0  0  0  0  0
    1.5955    9.6433    4.9809 C   0  0  0  0  0  0  0  0  0  0  0  0
    2.8547    9.4825    5.5575 C   0  0  0  0  0  0  0  0  0  0  0  0
    3.4320   10.8092    6.5588 S   0  0  0  0  0  0  0  0  0  0  0  0
    5.0669   10.2687    7.1267 C   0  0  0  0  0  0  0  0  0  0  0  0
    3.5623    8.3072    5.3281 C   0  0  0  0  0  0  0  0  0  0  0  0
    2.9921    7.2889    4.5914 C   0  0  0  0  0  0  0  0  0  0  0  0
    1.1139    4.0077    2.7923 C   0  0  0  0  0  0  0  0  0  0  0  0
    0.7964    3.9417    1.0930 S   0  0  0  0  0  0  0  0  0  0  0  0
    1.6536    5.1970    6.2458 C   0  0  0  0  0  0  0  0  0  0  0  0
    1.0437    6.3778    6.6098 C   0  0  0  0  0  0  0  0  0  0  0  0
   -0.2248    6.8583    6.0380 C   0  0  0  0  0  0  0  0  0  0  0  0
   -0.8877    6.3297    5.1641 O   0  0  0  0  0  0  0  0  0  0  0  0
   -0.5939    8.0514    6.8283 C   0  0  0  0  0  0  0  0  0  0  0  0
   -1.7075    8.8652    6.6495 C   0  0  0  0  0  0  0  0  0  0  0  0
   -1.7527    9.9465    7.4982 C   0  0  0  0  0  0  0  0  0  0  0  0
   -0.7691   10.1920    8.4635 C   0  0  0  0  0  0  0  0  0  0  0  0
    0.3252    9.3840    8.6648 C   0  0  0  0  0  0  0  0  0  0  0  0
    0.3926    8.2864    7.8058 C   0  0  0  0  0  0  0  0  0  0  0  0
    1.4216    7.2580    7.6784 C   0  0  0  0  0  0  0  0  0  0  0  0
    2.6260    7.2357    8.3400 C   0  0  0  0  0  0  0  0  0  0  0  0
    3.0137    8.1489    9.3371 C   0  0  0  0  0  0  0  0  0  0  0  0
    3.4134    8.8589   10.1478 N   0  0  0  0  0  0  0  0  0  0  0  0
    3.6718    6.3428    8.0364 C   0  0  0  0  0  0  0  0  0  0  0  0
    4.5926    5.6932    7.8096 N   0  0  0  0  0  0  0  0  0  0  0  0
   -1.4319   11.4622    8.9326 C   0  0  0  0  0  0  0  0  0  0  0  0
   -0.8227   12.8042    8.4572 C   0  0  0  0  0  0  0  0  0  0  0  0
   -0.1374   12.5279    7.1415 C   0  0  0  0  0  0  0  0  0  0  0  0
   -1.0803   12.3019    6.2361 C   0  0  0  0  0  0  0  0  0  0  0  0
   -2.4179   12.4140    6.9244 C   0  0  0  0  0  0  0  0  0  0  0  0
   -2.0975   13.5041    7.9592 C   0  0  0  0  0  0  0  0  0  0  0  0
   -2.5335   11.1860    7.8613 C   0  0  0  0  0  0  0  0  0  0  0  0
    0.2964   -7.5645   -9.6889 H   0  0  0  0  0  0  0  0  0  0  0  0
   -3.5426  -10.1239   -5.5060 H   0  0  0  0  0  0  0  0  0  0  0  0
   -2.0880  -12.4146   -9.7838 H   0  0  0  0  0  0  0  0  0  0  0  0
   -3.9453  -14.5541   -7.8559 H   0  0  0  0  0  0  0  0  0  0  0  0
   -5.4668  -13.6530   -9.8476 H   0  0  0  0  0  0  0  0  0  0  0  0
   -6.8586  -15.3986   -8.4629 H   0  0  0  0  0  0  0  0  0  0  0  0
   -7.6434  -14.2306   -6.2094 H   0  0  0  0  0  0  0  0  0  0  0  0
   -6.7355  -11.7651   -6.2072 H   0  0  0  0  0  0  0  0  0  0  0  0
   -7.2210  -11.9694   -8.8009 H   0  0  0  0  0  0  0  0  0  0  0  0
   -5.5949  -11.2807   -8.5912 H   0  0  0  0  0  0  0  0  0  0  0  0
   -4.7139  -13.4084   -5.6464 H   0  0  0  0  0  0  0  0  0  0  0  0
    0.3896   -7.1254   -5.9954 H   0  0  0  0  0  0  0  0  0  0  0  0
    0.1476   -5.0627   -2.7267 H   0  0  0  0  0  0  0  0  0  0  0  0
   -0.0930   -6.4026   -3.8611 H   0  0  0  0  0  0  0  0  0  0  0  0
    2.3970   -6.5628   -4.1675 H   0  0  0  0  0  0  0  0  0  0  0  0
    1.9353   -6.7961   -2.4789 H   0  0  0  0  0  0  0  0  0  0  0  0
    2.6176   -5.2536   -3.0021 H   0  0  0  0  0  0  0  0  0  0  0  0
    0.2876   -3.0124   -8.8132 H   0  0  0  0  0  0  0  0  0  0  0  0
    0.0787   -5.2442   -9.8346 H   0  0  0  0  0  0  0  0  0  0  0  0
    0.4095   -0.8781   -7.0349 H   0  0  0  0  0  0  0  0  0  0  0  0
    0.5103    0.5422   -5.0398 H   0  0  0  0  0  0  0  0  0  0  0  0
    0.8123   -2.8926   -2.4978 H   0  0  0  0  0  0  0  0  0  0  0  0
   -2.2062   -2.5619    2.3939 H   0  0  0  0  0  0  0  0  0  0  0  0
   -1.4839   -1.1106    3.1109 H   0  0  0  0  0  0  0  0  0  0  0  0
   -3.2692    0.2916    2.1217 H   0  0  0  0  0  0  0  0  0  0  0  0
   -4.0154   -1.1310    1.3915 H   0  0  0  0  0  0  0  0  0  0  0  0
   -3.9607   -0.9682    3.1506 H   0  0  0  0  0  0  0  0  0  0  0  0
   -2.9901   -3.3035    0.3911 H   0  0  0  0  0  0  0  0  0  0  0  0
   -2.3123   -3.5618   -1.2277 H   0  0  0  0  0  0  0  0  0  0  0  0
   -1.6862   -5.4240    0.2960 H   0  0  0  0  0  0  0  0  0  0  0  0
   -0.8936   -4.2846    1.3889 H   0  0  0  0  0  0  0  0  0  0  0  0
   -0.2579   -4.5323   -0.2362 H   0  0  0  0  0  0  0  0  0  0  0  0
    3.5641    1.1290    0.8555 H   0  0  0  0  0  0  0  0  0  0  0  0
    4.3867   -0.1966   -1.0136 H   0  0  0  0  0  0  0  0  0  0  0  0
    5.2872   -1.3880   -2.8014 H   0  0  0  0  0  0  0  0  0  0  0  0
    4.4198   -2.3477   -4.0187 H   0  0  0  0  0  0  0  0  0  0  0  0
    3.5908   -0.9899   -3.2308 H   0  0  0  0  0  0  0  0  0  0  0  0
    2.0678   -3.5271    0.3263 H   0  0  0  0  0  0  0  0  0  0  0  0
    1.2230   -2.1813    2.2059 H   0  0  0  0  0  0  0  0  0  0  0  0
   -0.4852    0.9396    3.9976 H   0  0  0  0  0  0  0  0  0  0  0  0
   -1.0872   -0.0019    6.1946 H   0  0  0  0  0  0  0  0  0  0  0  0
    1.2329   -3.1604    9.4889 H   0  0  0  0  0  0  0  0  0  0  0  0
    1.6654   -3.6899    7.8492 H   0  0  0  0  0  0  0  0  0  0  0  0
    2.4061   -2.2122    8.5487 H   0  0  0  0  0  0  0  0  0  0  0  0
    2.5143   -2.3099    6.1806 H   0  0  0  0  0  0  0  0  0  0  0  0
    3.1187   -1.3565    4.0233 H   0  0  0  0  0  0  0  0  0  0  0  0
    1.8366    7.9856    1.4064 H   0  0  0  0  0  0  0  0  0  0  0  0
    0.5417    8.5716   -0.5755 H   0  0  0  0  0  0  0  0  0  0  0  0
   -0.9350    9.6905   -1.9884 H   0  0  0  0  0  0  0  0  0  0  0  0
   -1.7606    8.9397   -3.3704 H   0  0  0  0  0  0  0  0  0  0  0  0
   -0.2561    8.2182   -2.7586 H   0  0  0  0  0  0  0  0  0  0  0  0
   -2.6880    6.1310    0.8130 H   0  0  0  0  0  0  0  0  0  0  0  0
   -1.3724    5.5611    2.8335 H   0  0  0  0  0  0  0  0  0  0  0  0
    0.0483    8.7544    3.8111 H   0  0  0  0  0  0  0  0  0  0  0  0
    1.0579   10.5632    5.1480 H   0  0  0  0  0  0  0  0  0  0  0  0
    4.9783    9.3637    7.7203 H   0  0  0  0  0  0  0  0  0  0  0  0
    5.4371   11.0760    7.7508 H   0  0  0  0  0  0  0  0  0  0  0  0
    5.7266   10.1253    6.2760 H   0  0  0  0  0  0  0  0  0  0  0  0
    4.5527    8.1634    5.7286 H   0  0  0  0  0  0  0  0  0  0  0  0
    3.5485    6.3771    4.4340 H   0  0  0  0  0  0  0  0  0  0  0  0
    2.2632    4.6797    6.9774 H   0  0  0  0  0  0  0  0  0  0  0  0
   -2.4411    8.6444    5.8895 H   0  0  0  0  0  0  0  0  0  0  0  0
    1.0711    9.5803    9.4170 H   0  0  0  0  0  0  0  0  0  0  0  0
   -1.7320   11.4909    9.9782 H   0  0  0  0  0  0  0  0  0  0  0  0
   -0.2276   13.3194    9.2062 H   0  0  0  0  0  0  0  0  0  0  0  0
    0.9295   12.4695    7.0245 H   0  0  0  0  0  0  0  0  0  0  0  0
   -0.9646   12.0246    5.2041 H   0  0  0  0  0  0  0  0  0  0  0  0
   -3.2785   12.5735    6.2795 H   0  0  0  0  0  0  0  0  0  0  0  0
   -1.8965   14.4722    7.5027 H   0  0  0  0  0  0  0  0  0  0  0  0
   -2.8620   13.6112    8.7276 H   0  0  0  0  0  0  0  0  0  0  0  0
   -3.5520   11.0235    8.2094 H   0  0  0  0  0  0  0  0  0  0  0  0
  1  2  2  0  0  0  0
  2  3  1  0  0  0  0
  3  4  2  0  0  0  0
  3  5  1  0  0  0  0
  5  6  2  0  0  0  0
  6  7  1  0  0  0  0
  7  8  2  0  0  0  0
  8  9  1  0  0  0  0
  9 10  2  0  0  0  0
 10 11  1  0  0  0  0
 11 12  2  0  0  0  0
 12 13  1  0  0  0  0
 13 14  3  0  0  0  0
 12 15  1  0  0  0  0
 15 16  3  0  0  0  0
  8 17  1  0  0  0  0
 17 18  1  0  0  0  0
 18 19  1  0  0  0  0
 19 20  2  0  0  0  0
 20 21  1  0  0  0  0
 21 22  1  0  0  0  0
 21 23  1  0  0  0  0
  1 24  1  0  0  0  0
 24 25  2  0  0  0  0
 25 26  1  0  0  0  0
 26 27  1  0  0  0  0
 27 28  1  0  0  0  0
 28 29  1  0  0  0  0
 27 30  1  0  0  0  0
 30 31  2  0  0  0  0
 31 32  1  0  0  0  0
 32 33  1  0  0  0  0
 33 34  2  0  0  0  0
 31 35  1  0  0  0  0
 35 36  2  0  0  0  0
 36 37  1  0  0  0  0
 37 38  2  0  0  0  0
 37 39  1  0  0  0  0
 39 40  2  0  0  0  0
 40 41  1  0  0  0  0
 40 42  1  0  0  0  0
 42 43  1  0  0  0  0
 42 44  2  0  0  0  0
 44 45  1  0  0  0  0
 45 46  2  0  0  0  0
 46 47  1  0  0  0  0
 47 48  1  0  0  0  0
 48 49  1  0  0  0  0
 47 50  2  0  0  0  0
 50 51  1  0  0  0  0
 51 52  2  0  0  0  0
 50 53  1  0  0  0  0
 53 54  1  0  0  0  0
 44 55  1  0  0  0  0
 55 56  2  0  0  0  0
 56 57  1  0  0  0  0
 57 58  1  0  0  0  0
 58 59  2  0  0  0  0
 59 60  1  0  0  0  0
 60 61  2  0  0  0  0
 61 62  1  0  0  0  0
 62 63  1  0  0  0  0
 61 64  1  0  0  0  0
 64 65  2  0  0  0  0
 57 66  1  0  0  0  0
 66 67  2  0  0  0  0
 67 68  1  0  0  0  0
 68 69  2  0  0  0  0
 69 70  1  0  0  0  0
 70 71  1  0  0  0  0
 69 72  1  0  0  0  0
 72 73  2  0  0  0  0
 56 74  1  0  0  0  0
 74 75  1  0  0  0  0
 75 76  1  0  0  0  0
 76 77  2  0  0  0  0
 77 78  1  0  0  0  0
 78 79  1  0  0  0  0
 79 80  2  0  0  0  0
 80 81  1  0  0  0  0
 81 82  2  0  0  0  0
 82 83  1  0  0  0  0
 83 84  1  0  0  0  0
 82 85  1  0  0  0  0
 85 86  2  0  0  0  0
 78 87  1  0  0  0  0
 87 88  2  0  0  0  0
 88 89  1  0  0  0  0
 89 90  2  0  0  0  0
 90 91  1  0  0  0  0
 91 92  1  0  0  0  0
 90 93  1  0  0  0  0
 93 94  2  0  0  0  0
 77 95  1  0  0  0  0
 95 96  1  0  0  0  0
 76 97  1  0  0  0  0
 97 98  2  0  0  0  0
 98 99  1  0  0  0  0
 99100  2  0  0  0  0
 99101  1  0  0  0  0
101102  2  0  0  0  0
102103  1  0  0  0  0
103104  2  0  0  0  0
104105  1  0  0  0  0
105106  2  0  0  0  0
106107  1  0  0  0  0
107108  2  0  0  0  0
108109  1  0  0  0  0
109110  3  0  0  0  0
108111  1  0  0  0  0
111112  3  0  0  0  0
104113  1  0  0  0  0
113114  1  0  0  0  0
114115  1  0  0  0  0
115116  2  0  0  0  0
116117  1  0  0  0  0
117118  1  0  0  0  0
117119  1  0  0  0  0
 11  2  1  0  0  0  0
 23 17  1  0  0  0  0
 34 24  1  0  0  0  0
 52 39  1  0  0  0  0
 96 55  1  0  0  0  0
107 98  1  0  0  0  0
119113  1  0  0  0  0
 10  5  1  0  0  0  0
 22 18  1  0  0  0  0
 32 26  2  0  0  0  0
 52 45  1  0  0  0  0
 65 58  1  0  0  0  0
 73 66  1  0  0  0  0
 95 74  2  0  0  0  0
106101  1  0  0  0  0
118114  1  0  0  0  0
 23  7  1  0  0  0  0
 38 30  1  0  0  0  0
 86 79  1  0  0  0  0
 94 87  1  0  0  0  0
119103  1  0  0  0  0
  1120  1  0  0  0  0
  6121  1  0  0  0  0
  9122  1  0  0  0  0
 17123  1  0  0  0  0
 18124  1  0  0  0  0
 19125  1  0  0  0  0
 20126  1  0  0  0  0
 21127  1  0  0  0  0
 22128  1  0  0  0  0
 22129  1  0  0  0  0
 23130  1  0  0  0  0
 25131  1  0  0  0  0
 28132  1  0  0  0  0
 28133  1  0  0  0  0
 29134  1  0  0  0  0
 29135  1  0  0  0  0
 29136  1  0  0  0  0
 33137  1  0  0  0  0
 34138  1  0  0  0  0
 35139  1  0  0  0  0
 36140  1  0  0  0  0
 38141  1  0  0  0  0
 48142  1  0  0  0  0
 48143  1  0  0  0  0
 49144  1  0  0  0  0
 49145  1  0  0  0  0
 49146  1  0  0  0  0
 53147  1  0  0  0  0
 53148  1  0  0  0  0
 54149  1  0  0  0  0
 54150  1  0  0  0  0
 54151  1  0  0  0  0
 59152  1  0  0  0  0
 60153  1  0  0  0  0
 63154  1  0  0  0  0
 63155  1  0  0  0  0
 63156  1  0  0  0  0
 64157  1  0  0  0  0
 65158  1  0  0  0  0
 67159  1  0  0  0  0
 68160  1  0  0  0  0
 71161  1  0  0  0  0
 71162  1  0  0  0  0
 71163  1  0  0  0  0
 72164  1  0  0  0  0
 73165  1  0  0  0  0
 80166  1  0  0  0  0
 81167  1  0  0  0  0
 84168  1  0  0  0  0
 84169  1  0  0  0  0
 84170  1  0  0  0  0
 85171  1  0  0  0  0
 86172  1  0  0  0  0
 88173  1  0  0  0  0
 89174  1  0  0  0  0
 92175  1  0  0  0  0
 92176  1  0  0  0  0
 92177  1  0  0  0  0
 93178  1  0  0  0  0
 94179  1  0  0  0  0
 97180  1  0  0  0  0
102181  1  0  0  0  0
105182  1  0  0  0  0
113183  1  0  0  0  0
114184  1  0  0  0  0
115185  1  0  0  0  0
116186  1  0  0  0  0
117187  1  0  0  0  0
118188  1  0  0  0  0
118189  1  0  0  0  0
119190  1  0  0  0  0
M  END
