139

C          0.28600       -3.17180        5.47140
C          0.66570       -2.22800        6.38590
C          1.43660       -1.01560        6.09430
O          1.83110       -0.63070        5.00410
C          1.67150       -0.35200        7.38460
C          2.38770        0.82300        7.60620
C          2.45420        1.19650        8.92680
C          1.85620        0.45330        9.95360
C          1.14740       -0.70700        9.74900
C          1.06160       -1.10310        8.41080
C          0.39790       -2.25940        7.81160
C         -0.38220       -3.16460        8.48170
C         -1.06880       -4.25150        7.90190
N         -1.66730       -5.15680        7.52440
C         -0.63760       -3.12680        9.86910
N         -0.88940       -3.16230       10.98870
C          2.31810        1.41010       11.02400
C          1.25780        2.38400       11.58040
C          2.07630        3.48020       12.22360
C          2.64160        4.18480       11.25180
C          2.21470        3.57660        9.93520
C          0.80190        3.10810       10.30700
C          2.98370        2.23940        9.87900
C          0.39040       -3.15420        4.07080
C         -0.13580       -4.16600        3.27320
C         -0.09800       -3.87220        1.91900
Cl        -0.63920       -4.94290        0.69160
C          0.45600       -2.63150        1.64260
S          1.01420       -1.85630        3.08670
C          0.47530       -1.93830        0.39640
C         -0.59640       -1.73780       -0.46440
N         -1.88900       -2.16970       -0.23490
C         -2.37860       -2.19230        1.08220
C         -2.01320       -1.18770        1.98020
C         -2.34580       -1.28820        3.31110
C         -3.06450       -2.38700        3.77780
S         -3.30610       -2.47090        5.52500
C         -4.16110       -4.04960        5.77560
C         -3.51870       -3.33490        2.87050
C         -3.18040       -3.23540        1.53350
C         -2.71020       -2.44020       -1.33500
C         -4.06330       -2.10280       -1.32680
C         -4.82610       -2.28350       -2.45920
C         -4.25650       -2.79340       -3.62430
S         -5.29530       -2.93200       -5.04390
C         -4.11340       -2.93150       -6.42440
C         -2.92540       -3.18580       -3.61730
C         -2.16340       -3.01770       -2.47940
C         -0.21480       -0.89890       -1.54150
S         -1.02780       -0.30650       -2.94180
C          0.38880        0.64110       -3.39040
C          1.45590        0.46270       -2.50810
N          2.72170        0.99840       -2.60510
C          3.43040        1.20500       -1.40570
C          2.78600        1.77670       -0.31100
C          3.42210        1.87440        0.91020
C          4.72370        1.41170        1.05010
S          5.59740        1.42570        2.58020
C          4.27970        1.54030        3.82580
C          5.39790        0.91230       -0.06370
C          4.75980        0.80510       -1.27920
C          3.34030        1.25030       -3.83660
C          4.19390        2.34650       -3.97480
C          4.71020        2.67210       -5.20880
C          4.38490        1.91690       -6.33410
S          5.00300        2.47120       -7.88940
C          3.83650        1.73970       -9.07230
C          3.60050        0.77990       -6.18510
C          3.08760        0.44910       -4.94700
C          1.08120       -0.41630       -1.45740
S          1.89880       -1.02500       -0.05900
C          0.29370        1.36850       -4.60380
C          0.97250        2.50740       -5.00740
C          0.67050        2.86060       -6.31250
Cl         1.40910        4.19290       -7.09580
C         -0.27350        2.03640       -6.94330
S         -0.79610        0.79870       -5.82970
C         -0.65860        2.17280       -8.28090
C         -1.63380        1.51030       -8.98210
C         -2.63960        0.60340       -8.41690
O         -2.64220        0.08620       -7.31270
C         -3.66480        0.43910       -9.46470
C         -4.86980       -0.23240       -9.40370
C         -5.67890       -0.23020      -10.53180
C         -5.28000        0.43170      -11.68370
C         -4.06860        1.10920      -11.74940
C         -3.25410        1.11360      -10.62920
C         -1.94670        1.71830      -10.38030
C         -1.12740        2.28140      -11.32390
C         -1.48500        2.45800      -12.67620
N         -1.72570        2.63580      -13.78450
C          0.20450        2.67900      -11.08390
N          1.31020        2.96710      -10.96570
H         -0.21350       -4.05480        5.84940
H          2.83650        1.36100        6.78570
H          0.70040       -1.26900       10.55160
H          2.95410        0.98540       11.79810
H          0.49180        1.91950       12.19490
H          2.19960        3.59260       13.28460
H          3.33190        5.00330       11.33840
H          2.32010        4.20020        9.05140
H          0.13620        3.94160       10.52420
H          0.34020        2.45700        9.56700
H          4.06430        2.36880        9.88960
H         -0.54870       -5.07270        3.67730
H         -1.44330       -0.33930        1.63190
H         -2.03670       -0.52600        4.00990
H         -5.13570       -4.02490        5.29690
H         -4.27710       -4.15150        6.85000
H         -3.54830       -4.86360        5.40130
H         -4.11700       -4.17120        3.19360
H         -3.51280       -3.99180        0.83860
H         -4.50210       -1.67360       -0.43840
H         -5.86890       -2.00580       -2.46270
H         -4.71940       -2.89930       -7.32480
H         -3.52670       -3.84530       -6.42330
H         -3.48100       -2.04970       -6.36450
H         -2.46970       -3.62110       -4.49150
H         -1.13130       -3.33610       -2.47440
H          1.77020        2.12960       -0.41680
H          2.89220        2.30190        1.74540
H          3.53100        0.77260        3.65150
H          4.77380        1.36450        4.77680
H          3.84070        2.53410        3.82110
H          6.41900        0.58170        0.04620
H          5.27430        0.38510       -2.13030
H          4.42060        2.95740       -3.11340
H          5.34760        3.53500       -5.32300
H          3.96990        2.28350      -10.00180
H          2.82200        1.88130       -8.71340
H          4.05770        0.68720       -9.22530
H          3.37940        0.14740       -7.02980
H          2.47570       -0.43430       -4.84260
H          1.64730        3.06570       -4.38720
H         -0.10650        2.94090       -8.81120
H         -5.16700       -0.73220       -8.49490
H         -6.62780       -0.74470      -10.51250
H         -5.92430        0.42610      -12.55000
H         -3.78620        1.62290      -12.65390
