
  xtb     02052200213D
 energy: -328.442493812759 gnorm: 0.000542449051 xtb: 6.4.1 (unknown)
195215  0     0  0            999 V2000
   -6.5278   -3.3797    8.6987 C   0  0  0  0  0  0  0  0  0  0  0  0
   -7.7392   -3.1561    8.1260 C   0  0  0  0  0  0  0  0  0  0  0  0
   -8.0081   -2.2132    7.0075 C   0  0  0  0  0  0  0  0  0  0  0  0
   -7.2089   -1.6277    6.3053 O   0  0  0  0  0  0  0  0  0  0  0  0
   -9.4696   -2.0428    6.9711 C   0  0  0  0  0  0  0  0  0  0  0  0
  -10.1833   -1.2038    6.1160 C   0  0  0  0  0  0  0  0  0  0  0  0
  -11.5435   -1.2454    6.3009 C   0  0  0  0  0  0  0  0  0  0  0  0
  -12.1515   -2.0522    7.2736 C   0  0  0  0  0  0  0  0  0  0  0  0
  -11.4598   -2.8762    8.1285 C   0  0  0  0  0  0  0  0  0  0  0  0
  -10.0720   -2.8577    7.9505 C   0  0  0  0  0  0  0  0  0  0  0  0
   -9.0251   -3.5909    8.6520 C   0  0  0  0  0  0  0  0  0  0  0  0
   -9.2201   -4.5780    9.5802 C   0  0  0  0  0  0  0  0  0  0  0  0
  -10.4842   -4.9987   10.0447 C   0  0  0  0  0  0  0  0  0  0  0  0
  -11.4791   -5.3862   10.4662 N   0  0  0  0  0  0  0  0  0  0  0  0
   -8.1926   -5.3401   10.1771 C   0  0  0  0  0  0  0  0  0  0  0  0
   -7.4198   -6.0168   10.6903 N   0  0  0  0  0  0  0  0  0  0  0  0
  -13.5393   -1.5956    6.8988 C   0  0  0  0  0  0  0  0  0  0  0  0
  -14.3817   -2.5757    6.0548 C   0  0  0  0  0  0  0  0  0  0  0  0
  -15.4542   -1.7000    5.4479 C   0  0  0  0  0  0  0  0  0  0  0  0
  -14.8792   -0.9378    4.5264 C   0  0  0  0  0  0  0  0  0  0  0  0
  -13.4083   -1.2854    4.4949 C   0  0  0  0  0  0  0  0  0  0  0  0
  -13.4838   -2.7811    4.8278 C   0  0  0  0  0  0  0  0  0  0  0  0
  -12.8617   -0.6983    5.8138 C   0  0  0  0  0  0  0  0  0  0  0  0
   -5.2450   -3.0271    8.1487 C   0  0  0  0  0  0  0  0  0  0  0  0
   -4.9943   -3.1302    6.7800 C   0  0  0  0  0  0  0  0  0  0  0  0
   -3.7596   -2.7292    6.3069 C   0  0  0  0  0  0  0  0  0  0  0  0
   -3.2875   -2.7079    5.0185 N   0  0  0  0  0  0  0  0  0  0  0  0
   -4.0665   -3.0584    3.8590 C   0  0  0  0  0  0  0  0  0  0  0  0
   -5.0291   -1.9389    3.4705 C   0  0  0  0  0  0  0  0  0  0  0  0
   -2.0355   -2.1508    5.0237 C   0  0  0  0  0  0  0  0  0  0  0  0
   -1.6580   -1.8542    6.3599 C   0  0  0  0  0  0  0  0  0  0  0  0
   -2.7622   -2.2276    7.1843 C   0  0  0  0  0  0  0  0  0  0  0  0
   -3.0054   -2.1798    8.5558 C   0  0  0  0  0  0  0  0  0  0  0  0
   -4.2291   -2.5918    9.0253 C   0  0  0  0  0  0  0  0  0  0  0  0
   -0.4216   -1.2744    6.6240 C   0  0  0  0  0  0  0  0  0  0  0  0
    0.3971   -0.9562    5.5674 C   0  0  0  0  0  0  0  0  0  0  0  0
    0.0118   -1.2217    4.2419 C   0  0  0  0  0  0  0  0  0  0  0  0
   -1.1941   -1.8496    3.9635 C   0  0  0  0  0  0  0  0  0  0  0  0
    0.8705   -0.7531    3.1640 C   0  0  0  0  0  0  0  0  0  0  0  0
    1.3496    0.5338    3.0385 C   0  0  0  0  0  0  0  0  0  0  0  0
    0.9604    1.5760    3.8766 N   0  0  0  0  0  0  0  0  0  0  0  0
    1.8932    2.4965    4.3417 C   0  0  0  0  0  0  0  0  0  0  0  0
    1.5078    3.7937    4.6874 C   0  0  0  0  0  0  0  0  0  0  0  0
    2.4431    4.7015    5.1275 C   0  0  0  0  0  0  0  0  0  0  0  0
    3.7877    4.3476    5.2254 C   0  0  0  0  0  0  0  0  0  0  0  0
    4.8919    5.6037    5.7983 S   0  0  0  0  0  0  0  0  0  0  0  0
    6.5343    4.8475    5.6368 C   0  0  0  0  0  0  0  0  0  0  0  0
    4.1768    3.0607    4.8856 C   0  0  0  0  0  0  0  0  0  0  0  0
    3.2368    2.1450    4.4538 C   0  0  0  0  0  0  0  0  0  0  0  0
   -0.4063    1.6457    4.1947 C   0  0  0  0  0  0  0  0  0  0  0  0
   -1.3478    1.4263    3.1894 C   0  0  0  0  0  0  0  0  0  0  0  0
   -2.6878    1.3579    3.4919 C   0  0  0  0  0  0  0  0  0  0  0  0
   -3.1192    1.5042    4.8071 C   0  0  0  0  0  0  0  0  0  0  0  0
   -4.8503    1.3199    5.1101 S   0  0  0  0  0  0  0  0  0  0  0  0
   -4.9038    0.7245    6.8233 C   0  0  0  0  0  0  0  0  0  0  0  0
   -2.1926    1.7920    5.8004 C   0  0  0  0  0  0  0  0  0  0  0  0
   -0.8468    1.8625    5.4967 C   0  0  0  0  0  0  0  0  0  0  0  0
    2.1583    0.6715    1.8839 C   0  0  0  0  0  0  0  0  0  0  0  0
    2.9873    1.9940    1.1413 S   0  0  0  0  0  0  0  0  0  0  0  0
    3.4893    0.9499   -0.1760 C   0  0  0  0  0  0  0  0  0  0  0  0
    2.9825   -0.3355   -0.0705 C   0  0  0  0  0  0  0  0  0  0  0  0
    3.0901   -1.3349   -1.0312 N   0  0  0  0  0  0  0  0  0  0  0  0
    3.0152   -1.0250   -2.3950 C   0  0  0  0  0  0  0  0  0  0  0  0
    3.7908   -1.7156   -3.3280 C   0  0  0  0  0  0  0  0  0  0  0  0
    3.8174   -1.3200   -4.6452 C   0  0  0  0  0  0  0  0  0  0  0  0
    3.0616   -0.2319   -5.0763 C   0  0  0  0  0  0  0  0  0  0  0  0
    3.2634    0.2423   -6.7655 S   0  0  0  0  0  0  0  0  0  0  0  0
    2.2969    1.7664   -6.9213 C   0  0  0  0  0  0  0  0  0  0  0  0
    2.2215    0.4041   -4.1724 C   0  0  0  0  0  0  0  0  0  0  0  0
    2.1978    0.0080   -2.8489 C   0  0  0  0  0  0  0  0  0  0  0  0
    3.4388   -2.6223   -0.6046 C   0  0  0  0  0  0  0  0  0  0  0  0
    4.3280   -2.7952    0.4571 C   0  0  0  0  0  0  0  0  0  0  0  0
    4.6980   -4.0596    0.8558 C   0  0  0  0  0  0  0  0  0  0  0  0
    4.1940   -5.1830    0.2036 C   0  0  0  0  0  0  0  0  0  0  0  0
    4.7938   -6.7466    0.7639 S   0  0  0  0  0  0  0  0  0  0  0  0
    3.9120   -7.9534   -0.2657 C   0  0  0  0  0  0  0  0  0  0  0  0
    3.2900   -5.0169   -0.8377 C   0  0  0  0  0  0  0  0  0  0  0  0
    2.9138   -3.7480   -1.2328 C   0  0  0  0  0  0  0  0  0  0  0  0
    2.2507   -0.4883    1.1321 C   0  0  0  0  0  0  0  0  0  0  0  0
    1.3455   -1.7854    1.8345 S   0  0  0  0  0  0  0  0  0  0  0  0
    4.2600    1.4194   -1.2862 C   0  0  0  0  0  0  0  0  0  0  0  0
    5.2505    0.7242   -1.9116 C   0  0  0  0  0  0  0  0  0  0  0  0
    5.6084    1.2398   -3.1791 C   0  0  0  0  0  0  0  0  0  0  0  0
    6.5205    0.7040   -4.1160 C   0  0  0  0  0  0  0  0  0  0  0  0
    7.4022   -0.4069   -3.8408 C   0  0  0  0  0  0  0  0  0  0  0  0
    8.6335   -0.6470   -4.3973 C   0  0  0  0  0  0  0  0  0  0  0  0
    9.2360   -1.8419   -3.9749 C   0  0  0  0  0  0  0  0  0  0  0  0
    8.4666   -2.5412   -3.0878 C   0  0  0  0  0  0  0  0  0  0  0  0
    8.9059   -4.0367   -2.3042 S   0  0  0  0  0  0  0  0  0  0  0  0
    7.2819   -4.6433   -1.7219 C   0  0  0  0  0  0  0  0  0  0  0  0
    6.4171   -5.1410   -2.8625 C   0  0  0  0  0  0  0  0  0  0  0  0
    6.9914   -1.6972   -2.7406 S   0  0  0  0  0  0  0  0  0  0  0  0
    6.5018    1.2937   -5.3809 C   0  0  0  0  0  0  0  0  0  0  0  0
    5.7096    2.4258   -5.7032 C   0  0  0  0  0  0  0  0  0  0  0  0
    4.9331    3.0658   -4.7052 C   0  0  0  0  0  0  0  0  0  0  0  0
    4.2373    4.2938   -4.9894 C   0  0  0  0  0  0  0  0  0  0  0  0
    4.6508    5.3334   -5.7836 C   0  0  0  0  0  0  0  0  0  0  0  0
    3.7480    6.4040   -5.8330 C   0  0  0  0  0  0  0  0  0  0  0  0
    2.6241    6.1886   -5.0826 C   0  0  0  0  0  0  0  0  0  0  0  0
    1.2686    7.2763   -4.9709 S   0  0  0  0  0  0  0  0  0  0  0  0
    0.4137    6.6713   -3.4713 C   0  0  0  0  0  0  0  0  0  0  0  0
    1.1765    6.9962   -2.2027 C   0  0  0  0  0  0  0  0  0  0  0  0
    2.6735    4.6421   -4.2949 S   0  0  0  0  0  0  0  0  0  0  0  0
    4.8590    2.4039   -3.4870 C   0  0  0  0  0  0  0  0  0  0  0  0
    3.8022    2.8529   -2.1752 S   0  0  0  0  0  0  0  0  0  0  0  0
    5.6977    2.7019   -7.0808 C   0  0  0  0  0  0  0  0  0  0  0  0
    6.4641    1.8382   -7.8268 C   0  0  0  0  0  0  0  0  0  0  0  0
    7.2918    0.6738   -6.7982 S   0  0  0  0  0  0  0  0  0  0  0  0
    6.7087    1.7624   -9.2125 C   0  0  0  0  0  0  0  0  0  0  0  0
    6.0293    2.3201  -10.2629 C   0  0  0  0  0  0  0  0  0  0  0  0
    4.6935    2.9566  -10.2496 C   0  0  0  0  0  0  0  0  0  0  0  0
    4.0083    3.2837   -9.3008 O   0  0  0  0  0  0  0  0  0  0  0  0
    4.3023    3.0901  -11.6667 C   0  0  0  0  0  0  0  0  0  0  0  0
    3.1166    3.5781  -12.1834 C   0  0  0  0  0  0  0  0  0  0  0  0
    2.9591    3.6093  -13.5594 C   0  0  0  0  0  0  0  0  0  0  0  0
    3.9900    3.1500  -14.3662 C   0  0  0  0  0  0  0  0  0  0  0  0
    3.8184    3.1813  -15.6973 F   0  0  0  0  0  0  0  0  0  0  0  0
    5.1899    2.6582  -13.8703 C   0  0  0  0  0  0  0  0  0  0  0  0
    5.3414    2.6324  -12.4938 C   0  0  0  0  0  0  0  0  0  0  0  0
    6.4518    2.1986  -11.6480 C   0  0  0  0  0  0  0  0  0  0  0  0
    7.6913    1.8321  -12.1002 C   0  0  0  0  0  0  0  0  0  0  0  0
    8.8069    1.5291  -11.2893 C   0  0  0  0  0  0  0  0  0  0  0  0
    9.7713    1.2963  -10.7110 N   0  0  0  0  0  0  0  0  0  0  0  0
    8.0419    1.7543  -13.4653 C   0  0  0  0  0  0  0  0  0  0  0  0
    8.3873    1.6627  -14.5559 N   0  0  0  0  0  0  0  0  0  0  0  0
   -6.5026   -3.8203    9.6885 H   0  0  0  0  0  0  0  0  0  0  0  0
   -9.6732   -0.5935    5.3871 H   0  0  0  0  0  0  0  0  0  0  0  0
  -11.9405   -3.4798    8.8801 H   0  0  0  0  0  0  0  0  0  0  0  0
  -14.1111   -1.1155    7.6905 H   0  0  0  0  0  0  0  0  0  0  0  0
  -14.7157   -3.4625    6.5863 H   0  0  0  0  0  0  0  0  0  0  0  0
  -16.4759   -1.6865    5.7789 H   0  0  0  0  0  0  0  0  0  0  0  0
  -15.3245   -0.1602    3.9340 H   0  0  0  0  0  0  0  0  0  0  0  0
  -12.8561   -0.9966    3.6046 H   0  0  0  0  0  0  0  0  0  0  0  0
  -13.9811   -3.3520    4.0455 H   0  0  0  0  0  0  0  0  0  0  0  0
  -12.5206   -3.2353    5.0532 H   0  0  0  0  0  0  0  0  0  0  0  0
  -12.9811    0.3814    5.8807 H   0  0  0  0  0  0  0  0  0  0  0  0
   -5.7434   -3.5368    6.1218 H   0  0  0  0  0  0  0  0  0  0  0  0
   -3.3788   -3.2728    3.0377 H   0  0  0  0  0  0  0  0  0  0  0  0
   -4.6234   -3.9738    4.0822 H   0  0  0  0  0  0  0  0  0  0  0  0
   -5.7114   -1.7208    4.2885 H   0  0  0  0  0  0  0  0  0  0  0  0
   -5.6076   -2.2307    2.5980 H   0  0  0  0  0  0  0  0  0  0  0  0
   -4.4758   -1.0326    3.2392 H   0  0  0  0  0  0  0  0  0  0  0  0
   -2.2440   -1.8235    9.2330 H   0  0  0  0  0  0  0  0  0  0  0  0
   -4.4429   -2.5506   10.0830 H   0  0  0  0  0  0  0  0  0  0  0  0
   -0.1214   -1.0650    7.6392 H   0  0  0  0  0  0  0  0  0  0  0  0
    1.3549   -0.4913    5.7456 H   0  0  0  0  0  0  0  0  0  0  0  0
   -1.4710   -2.0474    2.9392 H   0  0  0  0  0  0  0  0  0  0  0  0
    0.4721    4.0844    4.5973 H   0  0  0  0  0  0  0  0  0  0  0  0
    2.1453    5.7046    5.3920 H   0  0  0  0  0  0  0  0  0  0  0  0
    6.6274    4.0047    6.3156 H   0  0  0  0  0  0  0  0  0  0  0  0
    7.2410    5.6227    5.9157 H   0  0  0  0  0  0  0  0  0  0  0  0
    6.7025    4.5471    4.6068 H   0  0  0  0  0  0  0  0  0  0  0  0
    5.2065    2.7499    4.9589 H   0  0  0  0  0  0  0  0  0  0  0  0
    3.5513    1.1410    4.2081 H   0  0  0  0  0  0  0  0  0  0  0  0
   -1.0161    1.2907    2.1706 H   0  0  0  0  0  0  0  0  0  0  0  0
   -3.4162    1.1851    2.7142 H   0  0  0  0  0  0  0  0  0  0  0  0
   -4.9427    1.5602    7.5166 H   0  0  0  0  0  0  0  0  0  0  0  0
   -5.8084    0.1281    6.8986 H   0  0  0  0  0  0  0  0  0  0  0  0
   -4.0376    0.0986    7.0103 H   0  0  0  0  0  0  0  0  0  0  0  0
   -2.5124    1.9491    6.8186 H   0  0  0  0  0  0  0  0  0  0  0  0
   -0.1287    2.0670    6.2766 H   0  0  0  0  0  0  0  0  0  0  0  0
    4.3955   -2.5478   -3.0055 H   0  0  0  0  0  0  0  0  0  0  0  0
    4.4461   -1.8349   -5.3557 H   0  0  0  0  0  0  0  0  0  0  0  0
    1.2351    1.5372   -6.9210 H   0  0  0  0  0  0  0  0  0  0  0  0
    2.5898    2.2055   -7.8706 H   0  0  0  0  0  0  0  0  0  0  0  0
    2.5546    2.4444   -6.1149 H   0  0  0  0  0  0  0  0  0  0  0  0
    1.5851    1.2180   -4.4811 H   0  0  0  0  0  0  0  0  0  0  0  0
    1.5504    0.5235   -2.1548 H   0  0  0  0  0  0  0  0  0  0  0  0
    4.7393   -1.9301    0.9562 H   0  0  0  0  0  0  0  0  0  0  0  0
    5.3946   -4.1943    1.6689 H   0  0  0  0  0  0  0  0  0  0  0  0
    4.1756   -7.8189   -1.3108 H   0  0  0  0  0  0  0  0  0  0  0  0
    2.8409   -7.8608   -0.1115 H   0  0  0  0  0  0  0  0  0  0  0  0
    4.2497   -8.9272    0.0750 H   0  0  0  0  0  0  0  0  0  0  0  0
    2.8651   -5.8662   -1.3485 H   0  0  0  0  0  0  0  0  0  0  0  0
    2.2094   -3.6252   -2.0417 H   0  0  0  0  0  0  0  0  0  0  0  0
    5.6799   -0.1541   -1.4695 H   0  0  0  0  0  0  0  0  0  0  0  0
    9.1158    0.0335   -5.0750 H   0  0  0  0  0  0  0  0  0  0  0  0
   10.1967   -2.1843   -4.3116 H   0  0  0  0  0  0  0  0  0  0  0  0
    6.8018   -3.8331   -1.1723 H   0  0  0  0  0  0  0  0  0  0  0  0
    7.5217   -5.4484   -1.0284 H   0  0  0  0  0  0  0  0  0  0  0  0
    6.8968   -5.9761   -3.3676 H   0  0  0  0  0  0  0  0  0  0  0  0
    6.2425   -4.3514   -3.5906 H   0  0  0  0  0  0  0  0  0  0  0  0
    5.4545   -5.4657   -2.4730 H   0  0  0  0  0  0  0  0  0  0  0  0
    5.6074    5.3485   -6.2739 H   0  0  0  0  0  0  0  0  0  0  0  0
    3.9110    7.3084   -6.3892 H   0  0  0  0  0  0  0  0  0  0  0  0
    0.2602    5.5989   -3.5912 H   0  0  0  0  0  0  0  0  0  0  0  0
   -0.5508    7.1776   -3.4928 H   0  0  0  0  0  0  0  0  0  0  0  0
    0.6090    6.6581   -1.3384 H   0  0  0  0  0  0  0  0  0  0  0  0
    1.3356    8.0687   -2.1193 H   0  0  0  0  0  0  0  0  0  0  0  0
    2.1434    6.4979   -2.1917 H   0  0  0  0  0  0  0  0  0  0  0  0
    5.1066    3.4792   -7.5246 H   0  0  0  0  0  0  0  0  0  0  0  0
    7.5481    1.1249   -9.4661 H   0  0  0  0  0  0  0  0  0  0  0  0
    2.3393    3.9253  -11.5206 H   0  0  0  0  0  0  0  0  0  0  0  0
    2.0555    3.9807  -14.0162 H   0  0  0  0  0  0  0  0  0  0  0  0
    5.9470    2.3146  -14.5553 H   0  0  0  0  0  0  0  0  0  0  0  0
  1  2  2  0  0  0  0
  2  3  1  0  0  0  0
  3  4  2  0  0  0  0
  3  5  1  0  0  0  0
  5  6  2  0  0  0  0
  6  7  1  0  0  0  0
  7  8  2  0  0  0  0
  8  9  1  0  0  0  0
  9 10  2  0  0  0  0
 10 11  1  0  0  0  0
 11 12  2  0  0  0  0
 12 13  1  0  0  0  0
 13 14  3  0  0  0  0
 12 15  1  0  0  0  0
 15 16  3  0  0  0  0
  8 17  1  0  0  0  0
 17 18  1  0  0  0  0
 18 19  1  0  0  0  0
 19 20  2  0  0  0  0
 20 21  1  0  0  0  0
 21 22  1  0  0  0  0
 21 23  1  0  0  0  0
  1 24  1  0  0  0  0
 24 25  2  0  0  0  0
 25 26  1  0  0  0  0
 26 27  1  0  0  0  0
 27 28  1  0  0  0  0
 28 29  1  0  0  0  0
 27 30  1  0  0  0  0
 30 31  2  0  0  0  0
 31 32  1  0  0  0  0
 32 33  1  0  0  0  0
 33 34  2  0  0  0  0
 31 35  1  0  0  0  0
 35 36  2  0  0  0  0
 36 37  1  0  0  0  0
 37 38  2  0  0  0  0
 37 39  1  0  0  0  0
 39 40  2  0  0  0  0
 40 41  1  0  0  0  0
 41 42  1  0  0  0  0
 42 43  2  0  0  0  0
 43 44  1  0  0  0  0
 44 45  2  0  0  0  0
 45 46  1  0  0  0  0
 46 47  1  0  0  0  0
 45 48  1  0  0  0  0
 48 49  2  0  0  0  0
 41 50  1  0  0  0  0
 50 51  2  0  0  0  0
 51 52  1  0  0  0  0
 52 53  2  0  0  0  0
 53 54  1  0  0  0  0
 54 55  1  0  0  0  0
 53 56  1  0  0  0  0
 56 57  2  0  0  0  0
 40 58  1  0  0  0  0
 58 59  1  0  0  0  0
 59 60  1  0  0  0  0
 60 61  2  0  0  0  0
 61 62  1  0  0  0  0
 62 63  1  0  0  0  0
 63 64  2  0  0  0  0
 64 65  1  0  0  0  0
 65 66  2  0  0  0  0
 66 67  1  0  0  0  0
 67 68  1  0  0  0  0
 66 69  1  0  0  0  0
 69 70  2  0  0  0  0
 62 71  1  0  0  0  0
 71 72  2  0  0  0  0
 72 73  1  0  0  0  0
 73 74  2  0  0  0  0
 74 75  1  0  0  0  0
 75 76  1  0  0  0  0
 74 77  1  0  0  0  0
 77 78  2  0  0  0  0
 61 79  1  0  0  0  0
 79 80  1  0  0  0  0
 60 81  1  0  0  0  0
 81 82  2  0  0  0  0
 82 83  1  0  0  0  0
 83 84  2  0  0  0  0
 84 85  1  0  0  0  0
 85 86  2  0  0  0  0
 86 87  1  0  0  0  0
 87 88  2  0  0  0  0
 88 89  1  0  0  0  0
 89 90  1  0  0  0  0
 90 91  1  0  0  0  0
 88 92  1  0  0  0  0
 84 93  1  0  0  0  0
 93 94  2  0  0  0  0
 94 95  1  0  0  0  0
 95 96  1  0  0  0  0
 96 97  2  0  0  0  0
 97 98  1  0  0  0  0
 98 99  2  0  0  0  0
 99100  1  0  0  0  0
100101  1  0  0  0  0
101102  1  0  0  0  0
 99103  1  0  0  0  0
 95104  2  0  0  0  0
104105  1  0  0  0  0
 94106  1  0  0  0  0
106107  2  0  0  0  0
107108  1  0  0  0  0
107109  1  0  0  0  0
109110  2  0  0  0  0
110111  1  0  0  0  0
111112  2  0  0  0  0
111113  1  0  0  0  0
113114  2  0  0  0  0
114115  1  0  0  0  0
115116  2  0  0  0  0
116117  1  0  0  0  0
116118  1  0  0  0  0
118119  2  0  0  0  0
119120  1  0  0  0  0
120121  2  0  0  0  0
121122  1  0  0  0  0
122123  3  0  0  0  0
121124  1  0  0  0  0
124125  3  0  0  0  0
 11  2  1  0  0  0  0
 23 17  1  0  0  0  0
 34 24  1  0  0  0  0
 80 39  1  0  0  0  0
105 81  1  0  0  0  0
120110  1  0  0  0  0
 10  5  1  0  0  0  0
 22 18  1  0  0  0  0
 32 26  2  0  0  0  0
 49 42  1  0  0  0  0
 57 50  1  0  0  0  0
 79 58  2  0  0  0  0
104 83  1  0  0  0  0
119113  1  0  0  0  0
 23  7  1  0  0  0  0
 38 30  1  0  0  0  0
 70 63  1  0  0  0  0
 78 71  1  0  0  0  0
 92 85  1  0  0  0  0
108 93  1  0  0  0  0
103 96  1  0  0  0  0
  1126  1  0  0  0  0
  6127  1  0  0  0  0
  9128  1  0  0  0  0
 17129  1  0  0  0  0
 18130  1  0  0  0  0
 19131  1  0  0  0  0
 20132  1  0  0  0  0
 21133  1  0  0  0  0
 22134  1  0  0  0  0
 22135  1  0  0  0  0
 23136  1  0  0  0  0
 25137  1  0  0  0  0
 28138  1  0  0  0  0
 28139  1  0  0  0  0
 29140  1  0  0  0  0
 29141  1  0  0  0  0
 29142  1  0  0  0  0
 33143  1  0  0  0  0
 34144  1  0  0  0  0
 35145  1  0  0  0  0
 36146  1  0  0  0  0
 38147  1  0  0  0  0
 43148  1  0  0  0  0
 44149  1  0  0  0  0
 47150  1  0  0  0  0
 47151  1  0  0  0  0
 47152  1  0  0  0  0
 48153  1  0  0  0  0
 49154  1  0  0  0  0
 51155  1  0  0  0  0
 52156  1  0  0  0  0
 55157  1  0  0  0  0
 55158  1  0  0  0  0
 55159  1  0  0  0  0
 56160  1  0  0  0  0
 57161  1  0  0  0  0
 64162  1  0  0  0  0
 65163  1  0  0  0  0
 68164  1  0  0  0  0
 68165  1  0  0  0  0
 68166  1  0  0  0  0
 69167  1  0  0  0  0
 70168  1  0  0  0  0
 72169  1  0  0  0  0
 73170  1  0  0  0  0
 76171  1  0  0  0  0
 76172  1  0  0  0  0
 76173  1  0  0  0  0
 77174  1  0  0  0  0
 78175  1  0  0  0  0
 82176  1  0  0  0  0
 86177  1  0  0  0  0
 87178  1  0  0  0  0
 90179  1  0  0  0  0
 90180  1  0  0  0  0
 91181  1  0  0  0  0
 91182  1  0  0  0  0
 91183  1  0  0  0  0
 97184  1  0  0  0  0
 98185  1  0  0  0  0
101186  1  0  0  0  0
101187  1  0  0  0  0
102188  1  0  0  0  0
102189  1  0  0  0  0
102190  1  0  0  0  0
106191  1  0  0  0  0
109192  1  0  0  0  0
114193  1  0  0  0  0
115194  1  0  0  0  0
118195  1  0  0  0  0
M  END
