172

C         -5.51840       -4.09840       -1.33760
C         -6.55780       -4.41590       -2.16580
C         -7.38510       -3.51850       -3.00710
O         -7.15510       -2.38200       -3.36380
C         -8.60910       -4.28560       -3.31490
C         -9.73850       -3.81800       -3.98230
C        -10.74480       -4.74670       -4.09770
C        -10.63630       -6.04960       -3.59230
C         -9.52390       -6.52810       -2.94210
C         -8.49150       -5.59560       -2.80960
C         -7.18050       -5.72730       -2.18760
C         -6.58880       -6.90180       -1.79870
C         -5.24780       -7.01500       -1.38290
N         -4.15010       -7.18620       -1.08680
C         -7.21600       -8.16360       -1.84430
N         -7.67210       -9.21730       -1.84520
C        -12.02550       -6.42560       -4.04210
C        -13.14180       -6.47140       -2.96940
C        -12.72700       -5.51730       -1.87690
C        -12.82950       -4.28450       -2.35540
C        -13.31590       -4.38270       -3.78020
C        -14.21420       -5.62550       -3.67430
C        -12.14640       -4.97470       -4.60590
C         -4.75250       -2.92090       -1.22710
C         -4.66070       -1.79030       -2.01430
C         -3.68180       -0.88270       -1.59700
C         -3.45600        0.41450       -2.23620
C         -3.15690        1.54480       -1.47840
C         -2.95050        2.76590       -2.09260
C         -3.03880        2.87790       -3.47050
C         -3.36090        1.76500       -4.22860
C         -3.57750        0.54400       -3.61790
C         -2.98750       -1.32970       -0.47560
S         -3.59420       -2.84720        0.08550
C         -1.82970       -0.72810        0.11120
C         -0.70020       -0.28840       -0.56700
N         -0.43510       -0.52480       -1.89810
C          0.53480        0.26550       -2.54070
C          1.60080       -0.33220       -3.20630
C          2.62130        0.43840       -3.72540
C          2.58800        1.82030       -3.58640
S          3.89570        2.87740       -4.12540
C          5.32470        1.75720       -4.18950
C          1.48370        2.42530       -2.99270
C          0.46540        1.65630       -2.47230
C         -0.91260       -1.68480       -2.53380
C         -0.99720       -2.90040       -1.86010
C         -1.55810       -4.00660       -2.46720
C         -2.02320       -3.91900       -3.77240
S         -2.83080       -5.25200       -4.60140
C         -2.23480       -6.71900       -3.71100
C         -1.87490       -2.72420       -4.47330
C         -1.32110       -1.61940       -3.86410
C          0.19930        0.34350        0.32620
S          1.73310        1.11100        0.13660
C          1.82630        1.40910        1.86930
C          0.74900        0.85410        2.56110
N          0.63450        0.74660        3.93110
C          1.75760        0.45580        4.72070
C          1.83050        0.91510        6.03660
C          2.96650        0.69770        6.78400
C          4.06440        0.03690        6.23230
S          5.50940       -0.09000        7.23260
C          6.77780       -0.66470        6.07010
C          3.97620       -0.46510        4.94020
C          2.82980       -0.26390        4.20030
C         -0.65110        0.75670        4.49470
C         -1.59300        1.68780        4.05400
C         -2.86290        1.69340        4.58410
C         -3.22120        0.77560        5.57030
S         -4.87590        0.88010        6.17030
C         -4.98910       -0.46030        7.38890
C         -2.28270       -0.14510        6.01870
C         -1.01040       -0.15490        5.48230
C         -0.19140        0.30170        1.65570
S         -1.71290       -0.49830        1.85030
C          2.93670        2.15450        2.33580
C          3.13170        2.83600        3.52330
C          4.35320        3.50890        3.59510
C          4.74900        4.30720        4.76000
C          5.10600        5.64740        4.63380
C          5.46490        6.37890        5.75090
C          5.47600        5.78320        7.00150
C          5.11220        4.45360        7.13430
C          4.74380        3.72050        6.02200
C          5.15050        3.32060        2.46280
S          4.30510        2.34430        1.28490
C          6.42230        3.87140        2.22680
C          7.28860        3.62370        1.19850
C          8.26230        4.66580        0.79210
O          8.60680        5.63540        1.43120
C          8.66470        4.29980       -0.58350
C          9.46540        5.03770       -1.45190
C          9.65910        4.44430       -2.67670
C          9.11140        3.19970       -3.01400
C          8.32890        2.45470       -2.16370
C          8.10320        3.05010       -0.92000
C          7.36360        2.55320        0.23730
C          7.04910        1.23720        0.48500
C          6.71020        0.77600        1.77150
N          6.51620        0.35700        2.82410
C          7.09820        0.21920       -0.48210
N          7.06870       -0.62900       -1.25720
C          9.72330        3.21400       -4.39410
C          8.78350        3.55530       -5.56950
C          9.72270        3.97160       -6.67850
C         10.22850        5.15510       -6.35630
C          9.64180        5.55690       -5.02250
C          8.24710        4.92910       -5.14700
C         10.32810        4.60510       -4.01910
H         -5.22310       -4.86510       -0.62930
H         -9.78160       -2.80740       -4.35750
H         -9.45360       -7.53090       -2.55410
H        -12.09160       -7.25350       -4.74510
H        -13.42160       -7.47230       -2.65180
H        -12.35850       -5.82930       -0.91720
H        -12.56320       -3.36100       -1.87540
H        -13.75510       -3.48180       -4.20060
H        -14.51690       -6.02600       -4.64080
H        -15.09330       -5.45780       -3.05380
H        -12.29260       -4.85460       -5.67760
H         -5.30940       -1.62420       -2.85410
H         -3.10620        1.47030       -0.40180
H         -2.72410        3.63600       -1.49280
H         -2.86690        3.83040       -3.94900
H         -3.44670        1.84950       -5.30190
H         -3.83000       -0.32130       -4.21140
H          1.64030       -1.40810       -3.29130
H          3.44680       -0.04970       -4.21780
H          5.27990        1.13350       -5.07790
H          5.35200        1.15340       -3.28730
H          6.19750        2.40110       -4.23460
H          1.44590        3.50140       -2.92400
H         -0.38270        2.12210       -1.99390
H         -0.63230       -2.97970       -0.84640
H         -1.64070       -4.92620       -1.91040
H         -2.50060       -7.56710       -4.33470
H         -1.15600       -6.65890       -3.60650
H         -2.72470       -6.81020       -2.74440
H         -2.21230       -2.67170       -5.49690
H         -1.21010       -0.69180       -4.40520
H          1.00090        1.46160        6.46060
H          3.02820        1.06380        7.79760
H          6.76280       -0.05150        5.17410
H          7.72440       -0.54710        6.58880
H          6.61710       -1.71280        5.83330
H          4.79340       -1.00400        4.49200
H          2.77420       -0.66740        3.20070
H         -1.31690        2.40680        3.29670
H         -3.59370        2.41140        4.24520
H         -4.28610       -0.28840        8.19880
H         -4.81270       -1.41680        6.90580
H         -6.00490       -0.42180        7.76990
H         -2.52990       -0.86880        6.77800
H         -0.28940       -0.88180        5.82520
H          2.39330        2.89220        4.30110
H          5.07730        6.12260        3.66370
H          5.73760        7.41840        5.64390
H          5.76380        6.35600        7.87040
H          5.11670        3.98260        8.10590
H          4.46590        2.68280        6.12040
H          6.71950        4.67460        2.89260
H          9.88550        5.98430       -1.15030
H          7.91890        1.49310       -2.42540
H         10.40410        2.39450       -4.61670
H          8.05810        2.78370       -5.81480
H          9.95620        3.35740       -7.52830
H         10.96980        5.72700       -6.88280
H          9.69550        6.61020       -4.76130
H          7.68020        4.92000       -4.21750
H          7.65220        5.39770       -5.92910
H         11.41090        4.71460       -4.00190
