177

C         -7.71340        6.09640       -4.28030
C         -8.23800        6.49080       -3.08780
C         -7.55180        6.47940       -1.76860
O         -6.51790        5.92940       -1.44970
C         -8.35530        7.35550       -0.89570
C         -8.06020        7.70540        0.42110
C         -8.98580        8.53950        0.99880
C        -10.11890        9.00210        0.31500
C        -10.41860        8.67030       -0.98430
C         -9.49250        7.81310       -1.58890
C         -9.47270        7.24540       -2.93190
C        -10.48280        7.33260       -3.85260
C        -11.68270        8.04720       -3.65430
N        -12.67840        8.61070       -3.55830
C        -10.49180        6.68760       -5.10830
N        -10.58880        6.18210       -6.13500
C        -10.60750        9.79700        1.50050
C        -11.77060        9.18390        2.30900
C        -11.70800        9.90540        3.63600
C        -10.63650        9.46640        4.28390
C         -9.95660        8.44110        3.40540
C        -11.18340        7.82710        2.71880
C         -9.34540        9.27980        2.26290
C         -6.53200        5.31130       -4.50020
C         -6.14210        4.30970       -3.60920
C         -4.94930        3.65450       -3.84110
N         -4.33810        2.68450       -3.08700
C         -4.82490        2.18380       -1.82760
C         -4.48560        3.12410       -0.67360
C         -3.12140        2.40790       -3.65160
C         -2.96750        3.15490       -4.84890
C         -4.13900        3.96250       -4.96710
C         -4.57420        4.91420       -5.88790
C         -5.76070        5.56610       -5.65610
C         -1.80270        3.00620       -5.59620
C         -0.80850        2.16820       -5.14360
C         -0.93760        1.46250       -3.93340
C         -2.11860        1.57420       -3.19790
C          0.11220        0.63160       -3.37560
C          1.16350       -0.07280       -3.93120
N          1.54230       -0.11210       -5.28140
C          1.66440       -1.39020       -5.84270
C          0.69650       -2.35040       -5.55820
C          0.79080       -3.62870       -6.07330
C          1.85780       -3.96910       -6.89200
S          2.08700       -5.56160       -7.62240
C          0.64130       -6.51080       -7.07080
C          2.83350       -3.01470       -7.17330
C          2.74480       -1.74430       -6.65200
C          2.12770        1.00600       -5.87600
C          2.70950        2.01150       -5.09990
C          3.25270        3.12660       -5.69740
C          3.23980        3.26690       -7.08310
S          3.97430        4.73830       -7.73100
C          3.83280        4.54350       -9.53020
C          2.66080        2.27300       -7.86070
C          2.10710        1.15860       -7.26240
C          1.83840       -0.85520       -2.95560
S          3.19410       -1.92980       -2.98810
C          3.04230       -2.21820       -1.25990
C          2.02220       -1.47930       -0.68900
N          1.67680       -1.40960        0.65660
C          0.32740       -1.17100        0.96020
C         -0.67800       -1.84560        0.26480
C         -2.00200       -1.53710        0.48210
C         -2.35440       -0.55540        1.40530
S         -4.07710       -0.18560        1.53400
C         -4.16820        1.02570        2.88250
C         -1.36130        0.07930        2.13930
C         -0.03310       -0.22730        1.91750
C          2.62760       -1.47840        1.67810
C          2.30010       -2.09590        2.88710
C          3.25980       -2.28420        3.85490
C          4.57310       -1.86960        3.64290
S          5.74080       -2.28440        4.90090
C          7.33790       -1.81340        4.19040
C          4.88400       -1.18300        2.47660
C          3.91850       -0.98360        1.51000
C          1.34210       -0.71980       -1.67430
S          0.02570        0.38860       -1.63430
C          4.01170       -3.04110       -0.56250
C          3.59800       -3.85730        0.48690
C          4.56520       -4.40220        1.31340
N          4.41830       -5.10110        2.48400
C          3.18130       -5.59000        3.03090
C          2.89250       -7.01800        2.57050
C          5.66170       -5.29550        3.03280
C          6.64900       -4.74860        2.16820
C          5.94510       -4.17840        1.06700
C          6.34320       -3.46650       -0.06190
C          5.37850       -2.90680       -0.86400
C          7.99490       -4.81260        2.52350
C          8.33740       -5.32860        3.74940
C          7.35670       -5.81860        4.63560
C          6.01250       -5.85980        4.24160
C          7.67580       -6.31280        5.94250
C          8.64610       -5.88180        6.79710
C          9.39280       -4.60310        6.70530
O          9.40310       -3.78810        5.80820
C         10.08320       -4.45900        8.00540
C         10.88150       -3.41870        8.43560
C         11.43160       -3.49370        9.70860
Cl        12.43610       -2.22350       10.27970
C         11.16970       -4.59970       10.52530
Cl        11.85150       -4.67690       12.09970
C         10.36240       -5.64390       10.08860
C          9.81520       -5.57350        8.81720
C          8.94760       -6.48930        8.08420
C          8.55110       -7.72630        8.51830
C          7.77410       -8.64370        7.77860
N          7.16370       -9.45520        7.24220
C          8.88870       -8.26770        9.77720
N          9.11970       -8.76140       10.78720
H         -8.19350        6.46090       -5.18140
H         -7.17190        7.33250        0.90670
H        -11.28640        9.04450       -1.50120
H        -10.71770       10.86790        1.34120
H        -12.72890        9.18170        1.79720
H        -12.39520       10.67550        3.93320
H        -10.24970        9.79660        5.23020
H         -9.26260        7.76190        3.89350
H        -10.94360        7.17580        1.88030
H        -11.82500        7.29620        3.42020
H         -8.61370       10.00600        2.61230
H         -6.76930        4.05110       -2.77400
H         -4.38430        1.19920       -1.65250
H         -5.90900        2.06080       -1.90140
H         -3.40730        3.24250       -0.59120
H         -4.93480        4.10080       -0.83690
H         -4.86690        2.71060        0.25600
H         -3.98170        5.13840       -6.76180
H         -6.10320        6.32240       -6.34680
H         -1.66990        3.55640       -6.51530
H          0.10000        2.08090       -5.71240
H         -2.24040        1.01940       -2.28000
H         -0.14140       -2.08880       -4.92820
H          0.02160       -4.34420       -5.83050
H         -0.27050       -6.03940       -7.42590
H          0.64570       -6.60060       -5.98840
H          0.74790       -7.49250       -7.52200
H          3.66990       -3.28940       -7.79760
H          3.52060       -1.02280       -6.85830
H          2.73050        1.91380       -4.02500
H          3.70210        3.90160       -5.09570
H          4.36010        3.64930       -9.84970
H          4.30660        5.42250       -9.95620
H          2.78690        4.51200       -9.82150
H          2.62320        2.35500       -8.93490
H          1.64070        0.40060       -7.87390
H         -0.41060       -2.60000       -0.46070
H         -2.77920       -2.04610       -0.06730
H         -3.76450        0.59480        3.79400
H         -5.22490        1.23840        3.01340
H         -3.64020        1.93380        2.60600
H         -1.60380        0.83200        2.87180
H          0.73710        0.28630        2.47350
H          1.29060       -2.44590        3.04950
H          3.01140       -2.77890        4.78140
H          8.09050       -2.27120        4.82600
H          7.41810       -2.21790        3.18660
H          7.44370       -0.73220        4.19630
H          5.87650       -0.79900        2.30600
H          4.17390       -0.45340        0.60520
H          2.54600       -4.01460        0.66600
H          2.37750       -4.92130        2.71570
H          3.24550       -5.55070        4.12130
H          3.68990       -7.68630        2.88660
H          2.82000       -7.05600        1.48590
H          1.95540       -7.36620        2.99620
H          7.39130       -3.32590       -0.27840
H          5.66090       -2.30750       -1.71680
H          8.75390       -4.44110        1.85190
H          9.37420       -5.38490        4.03480
H          5.27180       -6.26610        4.91350
H          7.01170       -7.08940        6.30440
H         11.07330       -2.57170        7.79600
H         10.17860       -6.47620       10.74780
