197

C         -9.64500        4.64100       -0.33660
C        -10.09580        4.00110       -1.44880
C         -9.42050        2.88400       -2.16020
O         -8.27100        2.50410       -2.06560
C        -10.46590        2.25180       -2.98610
C        -10.32100        1.11160       -3.77540
C        -11.46430        0.74330       -4.44130
C        -12.66800        1.45360       -4.33010
C        -12.82470        2.57950       -3.55800
C        -11.67060        2.97300       -2.87190
C        -11.44950        4.10020       -1.97450
C        -12.32720        5.12360       -1.73720
C        -12.04120        6.26350       -0.95460
N        -11.87900        7.23140       -0.35860
C        -13.62580        5.20310       -2.28210
N        -14.69280        5.32470       -2.68830
C        -13.39900        0.51740       -5.25980
C        -14.34230       -0.51210       -4.60230
C        -14.52770       -1.56590       -5.67020
C        -13.38840       -2.23760       -5.77670
C        -12.41350       -1.64890       -4.78250
C        -13.38480       -1.25560       -3.66200
C        -12.05710       -0.27320       -5.38510
C         -8.31880        4.60280        0.21370
C         -7.18870        4.53210       -0.60330
C         -5.95190        4.40920        0.00030
N         -4.71730        4.23510       -0.57560
C         -4.44720        4.19410       -1.98870
C         -4.06980        5.57170       -2.52960
C         -3.79120        4.08040        0.42360
C         -4.43330        4.18330        1.68450
C         -5.81940        4.38890        1.41450
C         -6.94830        4.52310        2.21900
C         -8.17730        4.64080        1.61800
C         -3.69780        4.02470        2.85480
C         -2.37170        3.67700        2.75850
C         -1.75720        3.49520        1.50780
C         -2.44710        3.76030        0.33170
C         -0.44210        2.87940        1.42990
C         -0.07430        1.69300        2.02790
N         -0.83690        0.93070        2.90920
C         -2.21580        0.79700        2.73370
C         -3.07620        0.75560        3.83190
C         -4.43970        0.75110        3.64530
C         -4.98260        0.79450        2.36270
S         -6.74230        0.89140        2.25350
C         -7.08340        0.87990        0.47400
C         -4.13230        0.77450        1.26670
C         -2.76450        0.76290        1.45370
C         -0.16890        0.38580        4.01280
C         -0.46830       -0.89490        4.47580
C          0.24270       -1.43560        5.52590
C          1.26460       -0.71220        6.13280
S          2.17250       -1.49550        7.44040
C          2.56260       -0.09170        8.53400
C          1.56120        0.56630        5.68340
C          0.84480        1.11100        4.63880
C          1.22450        1.29910        1.61890
S          2.21460       -0.06490        1.97630
C          3.47330        0.56050        0.92530
C          3.14230        1.77090        0.34900
N          3.98020        2.53860       -0.44150
C          5.36840        2.42320       -0.28320
C          5.92610        2.36070        0.99450
C          7.25780        2.05480        1.15300
C          8.06770        1.82540        0.04180
S          9.71520        1.27990        0.35730
C         10.26240        0.64770       -1.25330
C          7.54440        2.01770       -1.22990
C          6.20380        2.31270       -1.39020
C          3.44490        3.31680       -1.47290
C          2.34340        2.87640       -2.20770
C          1.80870        3.66900       -3.19800
C          2.36570        4.91210       -3.48800
S          1.58160        5.84060       -4.77120
C          2.57540        7.35430       -4.89190
C          3.47730        5.34380       -2.77740
C          4.00800        4.55280       -1.77750
C          1.83610        2.17200        0.73940
S          0.79250        3.49680        0.34920
C          4.71290       -0.19490        0.78930
C          5.13250       -0.61550       -0.48480
S          4.01330       -0.37380       -1.84990
C          2.74290       -1.61630       -1.41520
C          3.25950       -3.03280       -1.55530
C          6.34630       -1.27130       -0.66090
S          7.07770       -1.79810       -2.17860
C          6.66710       -0.58720       -3.49900
C          5.81860       -1.20290       -4.59190
C          7.06270       -1.67490        0.47840
C          6.61090       -1.33750        1.74850
C          5.46310       -0.54620        1.92130
C          5.10900       -0.04380        3.26580
O          4.38330        0.91370        3.46670
C          5.74430       -0.77730        4.36560
C          6.85900       -1.64740        4.17810
C          7.41110       -1.88560        2.85360
O          8.43300       -2.51880        2.63350
C          7.29680       -2.18780        5.35610
S          6.35400       -1.67340        6.68780
C          5.37560       -0.69570        5.67620
C          8.27350       -2.48900        0.33050
C          8.19380       -3.80800        0.03840
C          6.91050       -4.54650        0.08300
O          5.80970       -4.08330        0.30930
C          7.24900       -5.95490       -0.17370
C          6.36560       -7.03160       -0.23710
C          6.97030       -8.23970       -0.48530
C          8.35520       -8.37070       -0.65930
C          9.23780       -7.31940       -0.60240
C          8.64370       -6.07780       -0.34930
C          9.25580       -4.75760       -0.23830
C         10.58080       -4.46560       -0.40940
C         11.12400       -3.16460       -0.39280
N         11.64280       -2.14110       -0.43420
C         11.58820       -5.42020       -0.66310
N         12.45660       -6.14300       -0.86720
C          8.26930       -9.86270       -0.86390
C          8.68210      -10.74710        0.33160
C          8.05290      -12.08680        0.02440
C          6.74190      -11.96390        0.18820
C          6.46290      -10.53910        0.60940
C          7.72890      -10.25310        1.42750
C          6.72570       -9.71690       -0.67030
H        -10.37060        5.18770        0.25520
H         -9.37510        0.59610       -3.83430
H        -13.75630        3.11480       -3.48030
H        -13.82190        0.97200       -6.15350
H        -15.24480       -0.09040       -4.16870
H        -15.42060       -1.67430       -6.25730
H        -13.13920       -3.01890       -6.47050
H        -11.55890       -2.26360       -4.51230
H        -13.85300       -2.12320       -3.20010
H        -12.94240       -0.62740       -2.89090
H        -11.58500       -0.34610       -6.36310
H         -7.29030        4.59070       -1.67350
H         -3.63060        3.48850       -2.16500
H         -5.33810        3.81630       -2.49700
H         -3.17980        5.94240       -2.02630
H         -3.86820        5.51310       -3.59560
H         -4.88020        6.27790       -2.36410
H         -6.85450        4.52060        3.29370
H         -9.06740        4.72310        2.22350
H         -4.17140        4.13810        3.81730
H         -1.78710        3.51900        3.65190
H         -1.94890        3.64520       -0.61930
H         -2.66760        0.75640        4.83140
H         -5.10560        0.74090        4.49450
H         -6.70580       -0.03600        0.02930
H         -6.65940        1.75850       -0.00140
H         -8.16450        0.91220        0.38280
H         -4.52170        0.77630        0.26120
H         -2.10980        0.74850        0.59500
H         -1.25450       -1.46230        4.00070
H          0.02080       -2.43110        5.87850
H          3.39050        0.49230        8.14190
H          1.67700        0.52440        8.65220
H          2.84630       -0.52700        9.48680
H          2.34740        1.14920        6.13640
H          1.08360        2.10640        4.29500
H          5.29680        2.51170        1.85820
H          7.68580        1.96990        2.14060
H         11.16380        0.07670       -1.05170
H          9.49960       -0.00860       -1.66300
H         10.48260        1.47070       -1.92730
H          8.16780        1.91900       -2.10420
H          5.78840        2.43520       -2.38040
H          1.92280        1.90300       -2.00790
H          0.95610        3.33150       -3.76720
H          2.53250        7.90300       -3.95550
H          3.59850        7.10690       -5.15980
H          2.11910        7.94060       -5.68350
H          3.93570        6.29780       -2.98240
H          4.86650        4.89710       -1.21960
H          2.40050       -1.41110       -0.40190
H          1.93410       -1.41460       -2.11840
H          3.61690       -3.21450       -2.56720
H          2.45440       -3.73290       -1.34080
H          4.07360       -3.22470       -0.85880
H          6.17870        0.26090       -3.02970
H          7.63830       -0.28330       -3.89160
H          5.67230       -0.47780       -5.38940
H          4.84520       -1.48750       -4.20240
H          6.30640       -2.08360       -5.00340
H          8.11710       -2.86440        5.49360
H          4.56240       -0.12900        6.08050
H          9.21900       -1.96350        0.35010
H          5.30540       -6.88540       -0.10020
H         10.29950       -7.43680       -0.74110
H          8.64280      -10.23340       -1.81650
H          9.74580      -10.74460        0.55320
H          8.60230      -12.94210       -0.32270
H          5.97740      -12.69610        0.00520
H          5.50460      -10.34800        1.08500
H          7.78410      -10.86440        2.32670
H          7.85980       -9.20530        1.69110
H          6.06920       -9.99040       -1.49440
