
  xtb     02092204223D
 energy: -402.516133385665 gnorm: 0.000657216148 xtb: 6.4.1 (unknown)
246273  0     0  0            999 V2000
    8.5365    4.5383    1.5542 C   0  0  0  0  0  0  0  0  0  0  0  0
    8.6483    5.3307    2.6797 C   0  0  0  0  0  0  0  0  0  0  0  0
    7.5245    5.6011    3.5837 C   0  0  0  0  0  0  0  0  0  0  0  0
    6.4111    5.1006    3.5618 O   0  0  0  0  0  0  0  0  0  0  0  0
    7.9656    6.7037    4.4582 C   0  0  0  0  0  0  0  0  0  0  0  0
    7.2178    7.3411    5.4445 C   0  0  0  0  0  0  0  0  0  0  0  0
    7.8979    8.3415    6.0988 C   0  0  0  0  0  0  0  0  0  0  0  0
    9.2172    8.6900    5.7862 C   0  0  0  0  0  0  0  0  0  0  0  0
    9.9627    8.0731    4.8077 C   0  0  0  0  0  0  0  0  0  0  0  0
    9.2932    7.0478    4.1376 C   0  0  0  0  0  0  0  0  0  0  0  0
    9.7444    6.1775    3.0522 C   0  0  0  0  0  0  0  0  0  0  0  0
   11.0248    6.0905    2.5614 C   0  0  0  0  0  0  0  0  0  0  0  0
   11.4244    5.1566    1.5861 C   0  0  0  0  0  0  0  0  0  0  0  0
   11.8215    4.4055    0.8126 N   0  0  0  0  0  0  0  0  0  0  0  0
   12.1043    6.8730    3.0093 C   0  0  0  0  0  0  0  0  0  0  0  0
   13.0244    7.4774    3.3386 N   0  0  0  0  0  0  0  0  0  0  0  0
    9.2655    9.7727    6.8361 C   0  0  0  0  0  0  0  0  0  0  0  0
   10.0281    9.4374    8.1351 C   0  0  0  0  0  0  0  0  0  0  0  0
    9.5094   10.4493    9.1310 C   0  0  0  0  0  0  0  0  0  0  0  0
    8.2597   10.1176    9.4293 C   0  0  0  0  0  0  0  0  0  0  0  0
    7.9129    8.8758    8.6403 C   0  0  0  0  0  0  0  0  0  0  0  0
    9.2831    8.1861    8.6178 C   0  0  0  0  0  0  0  0  0  0  0  0
    7.7940    9.3817    7.1871 C   0  0  0  0  0  0  0  0  0  0  0  0
    7.5656    3.5537    1.3788 C   0  0  0  0  0  0  0  0  0  0  0  0
    6.8496    2.7967    2.3372 C   0  0  0  0  0  0  0  0  0  0  0  0
    7.2719    2.5563    3.6022 N   0  0  0  0  0  0  0  0  0  0  0  0
    8.5788    2.8545    4.0421 C   0  0  0  0  0  0  0  0  0  0  0  0
    9.6963    2.4594    3.3123 C   0  0  0  0  0  0  0  0  0  0  0  0
   10.9619    2.7750    3.7663 C   0  0  0  0  0  0  0  0  0  0  0  0
   11.1259    3.4867    4.9453 C   0  0  0  0  0  0  0  0  0  0  0  0
   10.0170    3.8546    5.6870 C   0  0  0  0  0  0  0  0  0  0  0  0
    8.7456    3.5332    5.2457 C   0  0  0  0  0  0  0  0  0  0  0  0
    6.4474    1.9243    4.5651 C   0  0  0  0  0  0  0  0  0  0  0  0
    5.2423    2.4845    4.9662 C   0  0  0  0  0  0  0  0  0  0  0  0
    4.5069    1.8639    5.9607 C   0  0  0  0  0  0  0  0  0  0  0  0
    4.9525    0.6872    6.5369 C   0  0  0  0  0  0  0  0  0  0  0  0
    6.1550    0.1306    6.1326 C   0  0  0  0  0  0  0  0  0  0  0  0
    6.9087    0.7517    5.1559 C   0  0  0  0  0  0  0  0  0  0  0  0
    5.7251    2.1880    1.7350 C   0  0  0  0  0  0  0  0  0  0  0  0
    4.3344    1.3252    2.3095 S   0  0  0  0  0  0  0  0  0  0  0  0
    3.6760    1.2270    0.6814 C   0  0  0  0  0  0  0  0  0  0  0  0
    4.5619    1.7332   -0.2653 C   0  0  0  0  0  0  0  0  0  0  0  0
    4.3918    1.7265   -1.6543 N   0  0  0  0  0  0  0  0  0  0  0  0
    4.5522    2.9602   -2.3021 C   0  0  0  0  0  0  0  0  0  0  0  0
    4.0049    4.1028   -1.7201 C   0  0  0  0  0  0  0  0  0  0  0  0
    4.1655    5.3354   -2.3214 C   0  0  0  0  0  0  0  0  0  0  0  0
    4.8656    5.4470   -3.5109 C   0  0  0  0  0  0  0  0  0  0  0  0
    5.4150    4.3146   -4.0893 C   0  0  0  0  0  0  0  0  0  0  0  0
    5.2684    3.0784   -3.4908 C   0  0  0  0  0  0  0  0  0  0  0  0
    4.4268    0.5136   -2.3522 C   0  0  0  0  0  0  0  0  0  0  0  0
    4.9981   -0.6211   -1.7796 C   0  0  0  0  0  0  0  0  0  0  0  0
    4.9492   -1.8347   -2.4401 C   0  0  0  0  0  0  0  0  0  0  0  0
    4.3412   -1.9368   -3.6787 C   0  0  0  0  0  0  0  0  0  0  0  0
    3.7840   -0.8076   -4.2585 C   0  0  0  0  0  0  0  0  0  0  0  0
    3.8223    0.4075   -3.6070 C   0  0  0  0  0  0  0  0  0  0  0  0
    5.6781    2.3297    0.3535 C   0  0  0  0  0  0  0  0  0  0  0  0
    7.0040    3.2357   -0.2711 S   0  0  0  0  0  0  0  0  0  0  0  0
    2.3646    0.7220    0.4621 C   0  0  0  0  0  0  0  0  0  0  0  0
    1.3032    0.6258    1.3610 C   0  0  0  0  0  0  0  0  0  0  0  0
    1.2574    1.1195    2.6583 N   0  0  0  0  0  0  0  0  0  0  0  0
    1.6123    2.4280    2.9813 C   0  0  0  0  0  0  0  0  0  0  0  0
    1.7449    2.7987    4.3211 C   0  0  0  0  0  0  0  0  0  0  0  0
    2.1483    4.0704    4.6608 C   0  0  0  0  0  0  0  0  0  0  0  0
    2.4608    5.0033    3.6770 C   0  0  0  0  0  0  0  0  0  0  0  0
    3.0181    6.5929    4.2107 S   0  0  0  0  0  0  0  0  0  0  0  0
    4.0270    7.1525    2.8098 C   0  0  0  0  0  0  0  0  0  0  0  0
    2.2946    4.6557    2.3436 C   0  0  0  0  0  0  0  0  0  0  0  0
    1.8609    3.3905    2.0023 C   0  0  0  0  0  0  0  0  0  0  0  0
    0.5587    0.3104    3.5804 C   0  0  0  0  0  0  0  0  0  0  0  0
   -0.5572    0.7789    4.2651 C   0  0  0  0  0  0  0  0  0  0  0  0
   -1.2463   -0.0471    5.1317 C   0  0  0  0  0  0  0  0  0  0  0  0
   -0.8249   -1.3560    5.3250 C   0  0  0  0  0  0  0  0  0  0  0  0
   -1.6311   -2.5144    6.3844 S   0  0  0  0  0  0  0  0  0  0  0  0
   -3.1203   -1.6406    6.9417 C   0  0  0  0  0  0  0  0  0  0  0  0
    0.3014   -1.8225    4.6488 C   0  0  0  0  0  0  0  0  0  0  0  0
    0.9818   -1.0022    3.7781 C   0  0  0  0  0  0  0  0  0  0  0  0
    0.1763    0.0190    0.7531 C   0  0  0  0  0  0  0  0  0  0  0  0
   -1.4209   -0.3973    1.2735 S   0  0  0  0  0  0  0  0  0  0  0  0
   -1.8449   -0.9113   -0.3536 C   0  0  0  0  0  0  0  0  0  0  0  0
   -0.8073   -0.7472   -1.2388 C   0  0  0  0  0  0  0  0  0  0  0  0
   -0.9262   -0.9107   -2.6341 N   0  0  0  0  0  0  0  0  0  0  0  0
   -0.4628   -2.0922   -3.2249 C   0  0  0  0  0  0  0  0  0  0  0  0
   -1.1181   -2.6252   -4.3332 C   0  0  0  0  0  0  0  0  0  0  0  0
   -0.7102   -3.8174   -4.8957 C   0  0  0  0  0  0  0  0  0  0  0  0
    0.3635   -4.5100   -4.3537 C   0  0  0  0  0  0  0  0  0  0  0  0
    0.9494   -6.0565   -4.9759 S   0  0  0  0  0  0  0  0  0  0  0  0
   -0.4304   -6.6461   -5.9974 C   0  0  0  0  0  0  0  0  0  0  0  0
    1.0380   -3.9720   -3.2623 C   0  0  0  0  0  0  0  0  0  0  0  0
    0.6298   -2.7813   -2.7006 C   0  0  0  0  0  0  0  0  0  0  0  0
   -1.2822    0.2188   -3.3734 C   0  0  0  0  0  0  0  0  0  0  0  0
   -2.0011    1.2594   -2.7782 C   0  0  0  0  0  0  0  0  0  0  0  0
   -2.3695    2.3682   -3.5053 C   0  0  0  0  0  0  0  0  0  0  0  0
   -2.0373    2.4778   -4.8521 C   0  0  0  0  0  0  0  0  0  0  0  0
   -2.6239    3.9208   -5.6924 S   0  0  0  0  0  0  0  0  0  0  0  0
   -1.9585    3.7505   -7.3717 C   0  0  0  0  0  0  0  0  0  0  0  0
   -1.2847    1.4726   -5.4414 C   0  0  0  0  0  0  0  0  0  0  0  0
   -0.9023    0.3663   -4.7071 C   0  0  0  0  0  0  0  0  0  0  0  0
    0.3430   -0.2433   -0.5952 C   0  0  0  0  0  0  0  0  0  0  0  0
    1.9059    0.2030   -1.1542 S   0  0  0  0  0  0  0  0  0  0  0  0
   -3.1865   -1.3316   -0.6852 C   0  0  0  0  0  0  0  0  0  0  0  0
   -3.6196   -2.5896   -1.0560 C   0  0  0  0  0  0  0  0  0  0  0  0
   -2.8267   -3.7249   -1.0661 N   0  0  0  0  0  0  0  0  0  0  0  0
   -1.8947   -3.9132   -0.0290 C   0  0  0  0  0  0  0  0  0  0  0  0
   -2.2082   -3.5381    1.2751 C   0  0  0  0  0  0  0  0  0  0  0  0
   -1.2873   -3.7170    2.2894 C   0  0  0  0  0  0  0  0  0  0  0  0
   -0.0466   -4.2669    2.0166 C   0  0  0  0  0  0  0  0  0  0  0  0
    0.2620   -4.6554    0.7236 C   0  0  0  0  0  0  0  0  0  0  0  0
   -0.6557   -4.4882   -0.2953 C   0  0  0  0  0  0  0  0  0  0  0  0
   -3.0544   -4.7189   -2.0225 C   0  0  0  0  0  0  0  0  0  0  0  0
   -2.8366   -6.0632   -1.7230 C   0  0  0  0  0  0  0  0  0  0  0  0
   -3.0763   -7.0351   -2.6735 C   0  0  0  0  0  0  0  0  0  0  0  0
   -3.5485   -6.6910   -3.9302 C   0  0  0  0  0  0  0  0  0  0  0  0
   -3.7726   -5.3583   -4.2306 C   0  0  0  0  0  0  0  0  0  0  0  0
   -3.5226   -4.3778   -3.2906 C   0  0  0  0  0  0  0  0  0  0  0  0
   -5.0026   -2.5714   -1.3698 C   0  0  0  0  0  0  0  0  0  0  0  0
   -6.1428   -3.7887   -1.8115 S   0  0  0  0  0  0  0  0  0  0  0  0
   -7.4445   -2.5948   -1.8336 C   0  0  0  0  0  0  0  0  0  0  0  0
   -6.9859   -1.3142   -1.5023 C   0  0  0  0  0  0  0  0  0  0  0  0
   -7.7637   -0.1893   -1.4268 N   0  0  0  0  0  0  0  0  0  0  0  0
   -7.1953    1.0510   -1.7729 C   0  0  0  0  0  0  0  0  0  0  0  0
   -7.4673    2.1892   -1.0193 C   0  0  0  0  0  0  0  0  0  0  0  0
   -6.9155    3.4029   -1.3825 C   0  0  0  0  0  0  0  0  0  0  0  0
   -6.0921    3.4956   -2.4931 C   0  0  0  0  0  0  0  0  0  0  0  0
   -5.8228    2.3651   -3.2463 C   0  0  0  0  0  0  0  0  0  0  0  0
   -6.3698    1.1474   -2.8914 C   0  0  0  0  0  0  0  0  0  0  0  0
   -9.0962   -0.2360   -0.9706 C   0  0  0  0  0  0  0  0  0  0  0  0
  -10.0608    0.5697   -1.5684 C   0  0  0  0  0  0  0  0  0  0  0  0
  -11.3667    0.5305   -1.1174 C   0  0  0  0  0  0  0  0  0  0  0  0
  -11.7210   -0.3088   -0.0746 C   0  0  0  0  0  0  0  0  0  0  0  0
  -10.7582   -1.1049    0.5246 C   0  0  0  0  0  0  0  0  0  0  0  0
   -9.4481   -1.0683    0.0887 C   0  0  0  0  0  0  0  0  0  0  0  0
   -5.5974   -1.3279   -1.2343 C   0  0  0  0  0  0  0  0  0  0  0  0
   -4.4748   -0.1397   -0.6793 S   0  0  0  0  0  0  0  0  0  0  0  0
   -8.7322   -2.9119   -2.3038 C   0  0  0  0  0  0  0  0  0  0  0  0
   -9.3011   -4.1393   -2.4729 C   0  0  0  0  0  0  0  0  0  0  0  0
  -10.4255   -4.3118   -3.4248 C   0  0  0  0  0  0  0  0  0  0  0  0
  -11.0901   -3.4339   -3.9313 O   0  0  0  0  0  0  0  0  0  0  0  0
  -10.5164   -5.7676   -3.6593 C   0  0  0  0  0  0  0  0  0  0  0  0
  -11.3401   -6.4278   -4.5677 C   0  0  0  0  0  0  0  0  0  0  0  0
  -11.1815   -7.7930   -4.5793 C   0  0  0  0  0  0  0  0  0  0  0  0
  -10.2618   -8.4581   -3.7575 C   0  0  0  0  0  0  0  0  0  0  0  0
   -9.4461   -7.8216   -2.8521 C   0  0  0  0  0  0  0  0  0  0  0  0
   -9.6029   -6.4347   -2.8158 C   0  0  0  0  0  0  0  0  0  0  0  0
   -8.9586   -5.4429   -1.9579 C   0  0  0  0  0  0  0  0  0  0  0  0
   -8.3894   -5.6986   -0.7351 C   0  0  0  0  0  0  0  0  0  0  0  0
   -8.1538   -6.9892   -0.2254 C   0  0  0  0  0  0  0  0  0  0  0  0
   -7.9277   -8.0176    0.2330 N   0  0  0  0  0  0  0  0  0  0  0  0
   -8.0897   -4.6834    0.1943 C   0  0  0  0  0  0  0  0  0  0  0  0
   -7.8962   -3.8875    1.0003 N   0  0  0  0  0  0  0  0  0  0  0  0
  -10.6377   -9.8146   -4.2993 C   0  0  0  0  0  0  0  0  0  0  0  0
  -11.5394  -10.7147   -3.4193 C   0  0  0  0  0  0  0  0  0  0  0  0
  -12.3414   -9.7871   -2.5404 C   0  0  0  0  0  0  0  0  0  0  0  0
  -13.2176   -9.1568   -3.3111 C   0  0  0  0  0  0  0  0  0  0  0  0
  -13.0238   -9.6466   -4.7249 C   0  0  0  0  0  0  0  0  0  0  0  0
  -12.6093  -11.1015   -4.4528 C   0  0  0  0  0  0  0  0  0  0  0  0
  -11.6682   -9.0742   -5.2090 C   0  0  0  0  0  0  0  0  0  0  0  0
    9.1736    4.7445    0.7027 H   0  0  0  0  0  0  0  0  0  0  0  0
    6.1989    7.0491    5.6482 H   0  0  0  0  0  0  0  0  0  0  0  0
   10.9727    8.3606    4.5666 H   0  0  0  0  0  0  0  0  0  0  0  0
    9.4645   10.7794    6.4733 H   0  0  0  0  0  0  0  0  0  0  0  0
   11.1068    9.3673    8.0243 H   0  0  0  0  0  0  0  0  0  0  0  0
   10.0668   11.3061    9.4614 H   0  0  0  0  0  0  0  0  0  0  0  0
    7.5648   10.6422   10.0587 H   0  0  0  0  0  0  0  0  0  0  0  0
    7.0644    8.2944    8.9910 H   0  0  0  0  0  0  0  0  0  0  0  0
    9.6035    7.8729    9.6102 H   0  0  0  0  0  0  0  0  0  0  0  0
    9.3431    7.3433    7.9315 H   0  0  0  0  0  0  0  0  0  0  0  0
    7.0119   10.1280    7.0591 H   0  0  0  0  0  0  0  0  0  0  0  0
    9.5721    1.9103    2.3912 H   0  0  0  0  0  0  0  0  0  0  0  0
   11.8236    2.4680    3.1941 H   0  0  0  0  0  0  0  0  0  0  0  0
   12.1165    3.7473    5.2853 H   0  0  0  0  0  0  0  0  0  0  0  0
   10.1387    4.3984    6.6119 H   0  0  0  0  0  0  0  0  0  0  0  0
    7.8760    3.8142    5.8211 H   0  0  0  0  0  0  0  0  0  0  0  0
    4.9158    3.4122    4.5229 H   0  0  0  0  0  0  0  0  0  0  0  0
    3.5875    2.3123    6.2989 H   0  0  0  0  0  0  0  0  0  0  0  0
    4.3688    0.2086    7.3088 H   0  0  0  0  0  0  0  0  0  0  0  0
    6.5101   -0.7841    6.5829 H   0  0  0  0  0  0  0  0  0  0  0  0
    7.8562    0.3366    4.8438 H   0  0  0  0  0  0  0  0  0  0  0  0
    3.4571    4.0142   -0.7928 H   0  0  0  0  0  0  0  0  0  0  0  0
    3.7377    6.2141   -1.8612 H   0  0  0  0  0  0  0  0  0  0  0  0
    4.9878    6.4109   -3.9808 H   0  0  0  0  0  0  0  0  0  0  0  0
    5.9754    4.3954   -5.0089 H   0  0  0  0  0  0  0  0  0  0  0  0
    5.7209    2.2031   -3.9319 H   0  0  0  0  0  0  0  0  0  0  0  0
    5.4745   -0.5506   -0.8125 H   0  0  0  0  0  0  0  0  0  0  0  0
    5.3923   -2.7060   -1.9806 H   0  0  0  0  0  0  0  0  0  0  0  0
    4.2959   -2.8871   -4.1880 H   0  0  0  0  0  0  0  0  0  0  0  0
    3.3016   -0.8791   -5.2220 H   0  0  0  0  0  0  0  0  0  0  0  0
    3.3572    1.2773   -4.0461 H   0  0  0  0  0  0  0  0  0  0  0  0
    1.5399    2.0735    5.0931 H   0  0  0  0  0  0  0  0  0  0  0  0
    2.2455    4.3547    5.6976 H   0  0  0  0  0  0  0  0  0  0  0  0
    4.7280    6.3648    2.5503 H   0  0  0  0  0  0  0  0  0  0  0  0
    4.5656    8.0276    3.1609 H   0  0  0  0  0  0  0  0  0  0  0  0
    3.3969    7.4240    1.9677 H   0  0  0  0  0  0  0  0  0  0  0  0
    2.4917    5.3693    1.5588 H   0  0  0  0  0  0  0  0  0  0  0  0
    1.7099    3.1514    0.9603 H   0  0  0  0  0  0  0  0  0  0  0  0
   -0.8922    1.7935    4.1089 H   0  0  0  0  0  0  0  0  0  0  0  0
   -2.1130    0.3410    5.6415 H   0  0  0  0  0  0  0  0  0  0  0  0
   -3.6729   -2.3595    7.5389 H   0  0  0  0  0  0  0  0  0  0  0  0
   -2.8466   -0.7867    7.5547 H   0  0  0  0  0  0  0  0  0  0  0  0
   -3.7141   -1.3401    6.0836 H   0  0  0  0  0  0  0  0  0  0  0  0
    0.6318   -2.8350    4.8206 H   0  0  0  0  0  0  0  0  0  0  0  0
    1.8483   -1.3652    3.2459 H   0  0  0  0  0  0  0  0  0  0  0  0
   -1.9611   -2.0993   -4.7560 H   0  0  0  0  0  0  0  0  0  0  0  0
   -1.2440   -4.2004   -5.7502 H   0  0  0  0  0  0  0  0  0  0  0  0
   -0.4970   -6.0662   -6.9138 H   0  0  0  0  0  0  0  0  0  0  0  0
   -0.1989   -7.6796   -6.2354 H   0  0  0  0  0  0  0  0  0  0  0  0
   -1.3514   -6.5906   -5.4237 H   0  0  0  0  0  0  0  0  0  0  0  0
    1.8854   -4.5008   -2.8535 H   0  0  0  0  0  0  0  0  0  0  0  0
    1.1614   -2.3919   -1.8475 H   0  0  0  0  0  0  0  0  0  0  0  0
   -2.2761    1.2106   -1.7371 H   0  0  0  0  0  0  0  0  0  0  0  0
   -2.9258    3.1611   -3.0300 H   0  0  0  0  0  0  0  0  0  0  0  0
   -2.2944    4.6312   -7.9102 H   0  0  0  0  0  0  0  0  0  0  0  0
   -2.3585    2.8566   -7.8418 H   0  0  0  0  0  0  0  0  0  0  0  0
   -0.8729    3.7290   -7.3402 H   0  0  0  0  0  0  0  0  0  0  0  0
   -0.9752    1.5380   -6.4724 H   0  0  0  0  0  0  0  0  0  0  0  0
   -0.2887   -0.3873   -5.1767 H   0  0  0  0  0  0  0  0  0  0  0  0
   -3.1789   -3.1169    1.4928 H   0  0  0  0  0  0  0  0  0  0  0  0
   -1.5447   -3.4305    3.2973 H   0  0  0  0  0  0  0  0  0  0  0  0
    0.6724   -4.4044    2.8093 H   0  0  0  0  0  0  0  0  0  0  0  0
    1.2240   -5.0937    0.5031 H   0  0  0  0  0  0  0  0  0  0  0  0
   -0.4209   -4.7993   -1.3009 H   0  0  0  0  0  0  0  0  0  0  0  0
   -2.4917   -6.3425   -0.7391 H   0  0  0  0  0  0  0  0  0  0  0  0
   -2.9053   -8.0721   -2.4263 H   0  0  0  0  0  0  0  0  0  0  0  0
   -3.7489   -7.4571   -4.6648 H   0  0  0  0  0  0  0  0  0  0  0  0
   -4.1420   -5.0766   -5.2062 H   0  0  0  0  0  0  0  0  0  0  0  0
   -3.6858   -3.3402   -3.5377 H   0  0  0  0  0  0  0  0  0  0  0  0
   -8.1072    2.1128   -0.1529 H   0  0  0  0  0  0  0  0  0  0  0  0
   -7.1279    4.2811   -0.7914 H   0  0  0  0  0  0  0  0  0  0  0  0
   -5.6653    4.4457   -2.7758 H   0  0  0  0  0  0  0  0  0  0  0  0
   -5.1914    2.4335   -4.1188 H   0  0  0  0  0  0  0  0  0  0  0  0
   -6.1724    0.2672   -3.4862 H   0  0  0  0  0  0  0  0  0  0  0  0
   -9.7832    1.2150   -2.3891 H   0  0  0  0  0  0  0  0  0  0  0  0
  -12.1115    1.1526   -1.5903 H   0  0  0  0  0  0  0  0  0  0  0  0
  -12.7432   -0.3420    0.2701 H   0  0  0  0  0  0  0  0  0  0  0  0
  -11.0234   -1.7555    1.3441 H   0  0  0  0  0  0  0  0  0  0  0  0
   -8.7012   -1.6888    0.5608 H   0  0  0  0  0  0  0  0  0  0  0  0
   -9.3163   -2.0795   -2.6840 H   0  0  0  0  0  0  0  0  0  0  0  0
  -12.0317   -5.8803   -5.1888 H   0  0  0  0  0  0  0  0  0  0  0  0
   -8.7354   -8.3383   -2.2277 H   0  0  0  0  0  0  0  0  0  0  0  0
   -9.8394  -10.3732   -4.7843 H   0  0  0  0  0  0  0  0  0  0  0  0
  -11.0158  -11.5214   -2.9134 H   0  0  0  0  0  0  0  0  0  0  0  0
  -12.1544   -9.6459   -1.4920 H   0  0  0  0  0  0  0  0  0  0  0  0
  -13.9103   -8.3834   -3.0350 H   0  0  0  0  0  0  0  0  0  0  0  0
  -13.8529   -9.4817   -5.4081 H   0  0  0  0  0  0  0  0  0  0  0  0
  -12.2044  -11.6083   -5.3279 H   0  0  0  0  0  0  0  0  0  0  0  0
  -13.4145  -11.6955   -4.0233 H   0  0  0  0  0  0  0  0  0  0  0  0
  -11.5467   -9.1540   -6.2877 H   0  0  0  0  0  0  0  0  0  0  0  0
  1  2  2  0  0  0  0
  2  3  1  0  0  0  0
  3  4  2  0  0  0  0
  3  5  1  0  0  0  0
  5  6  2  0  0  0  0
  6  7  1  0  0  0  0
  7  8  2  0  0  0  0
  8  9  1  0  0  0  0
  9 10  2  0  0  0  0
 10 11  1  0  0  0  0
 11 12  2  0  0  0  0
 12 13  1  0  0  0  0
 13 14  3  0  0  0  0
 12 15  1  0  0  0  0
 15 16  3  0  0  0  0
  8 17  1  0  0  0  0
 17 18  1  0  0  0  0
 18 19  1  0  0  0  0
 19 20  2  0  0  0  0
 20 21  1  0  0  0  0
 21 22  1  0  0  0  0
 21 23  1  0  0  0  0
  1 24  1  0  0  0  0
 24 25  2  0  0  0  0
 25 26  1  0  0  0  0
 26 27  1  0  0  0  0
 27 28  2  0  0  0  0
 28 29  1  0  0  0  0
 29 30  2  0  0  0  0
 30 31  1  0  0  0  0
 31 32  2  0  0  0  0
 26 33  1  0  0  0  0
 33 34  2  0  0  0  0
 34 35  1  0  0  0  0
 35 36  2  0  0  0  0
 36 37  1  0  0  0  0
 37 38  2  0  0  0  0
 25 39  1  0  0  0  0
 39 40  1  0  0  0  0
 40 41  1  0  0  0  0
 41 42  2  0  0  0  0
 42 43  1  0  0  0  0
 43 44  1  0  0  0  0
 44 45  2  0  0  0  0
 45 46  1  0  0  0  0
 46 47  2  0  0  0  0
 47 48  1  0  0  0  0
 48 49  2  0  0  0  0
 43 50  1  0  0  0  0
 50 51  2  0  0  0  0
 51 52  1  0  0  0  0
 52 53  2  0  0  0  0
 53 54  1  0  0  0  0
 54 55  2  0  0  0  0
 42 56  1  0  0  0  0
 56 57  1  0  0  0  0
 41 58  1  0  0  0  0
 58 59  2  0  0  0  0
 59 60  1  0  0  0  0
 60 61  1  0  0  0  0
 61 62  2  0  0  0  0
 62 63  1  0  0  0  0
 63 64  2  0  0  0  0
 64 65  1  0  0  0  0
 65 66  1  0  0  0  0
 64 67  1  0  0  0  0
 67 68  2  0  0  0  0
 60 69  1  0  0  0  0
 69 70  2  0  0  0  0
 70 71  1  0  0  0  0
 71 72  2  0  0  0  0
 72 73  1  0  0  0  0
 73 74  1  0  0  0  0
 72 75  1  0  0  0  0
 75 76  2  0  0  0  0
 59 77  1  0  0  0  0
 77 78  1  0  0  0  0
 78 79  1  0  0  0  0
 79 80  2  0  0  0  0
 80 81  1  0  0  0  0
 81 82  1  0  0  0  0
 82 83  2  0  0  0  0
 83 84  1  0  0  0  0
 84 85  2  0  0  0  0
 85 86  1  0  0  0  0
 86 87  1  0  0  0  0
 85 88  1  0  0  0  0
 88 89  2  0  0  0  0
 81 90  1  0  0  0  0
 90 91  2  0  0  0  0
 91 92  1  0  0  0  0
 92 93  2  0  0  0  0
 93 94  1  0  0  0  0
 94 95  1  0  0  0  0
 93 96  1  0  0  0  0
 96 97  2  0  0  0  0
 80 98  1  0  0  0  0
 98 99  1  0  0  0  0
 79100  1  0  0  0  0
100101  2  0  0  0  0
101102  1  0  0  0  0
102103  1  0  0  0  0
103104  2  0  0  0  0
104105  1  0  0  0  0
105106  2  0  0  0  0
106107  1  0  0  0  0
107108  2  0  0  0  0
102109  1  0  0  0  0
109110  2  0  0  0  0
110111  1  0  0  0  0
111112  2  0  0  0  0
112113  1  0  0  0  0
113114  2  0  0  0  0
101115  1  0  0  0  0
115116  1  0  0  0  0
116117  1  0  0  0  0
117118  2  0  0  0  0
118119  1  0  0  0  0
119120  1  0  0  0  0
120121  2  0  0  0  0
121122  1  0  0  0  0
122123  2  0  0  0  0
123124  1  0  0  0  0
124125  2  0  0  0  0
119126  1  0  0  0  0
126127  2  0  0  0  0
127128  1  0  0  0  0
128129  2  0  0  0  0
129130  1  0  0  0  0
130131  2  0  0  0  0
118132  1  0  0  0  0
132133  1  0  0  0  0
117134  1  0  0  0  0
134135  2  0  0  0  0
135136  1  0  0  0  0
136137  2  0  0  0  0
136138  1  0  0  0  0
138139  2  0  0  0  0
139140  1  0  0  0  0
140141  2  0  0  0  0
141142  1  0  0  0  0
142143  2  0  0  0  0
143144  1  0  0  0  0
144145  2  0  0  0  0
145146  1  0  0  0  0
146147  3  0  0  0  0
145148  1  0  0  0  0
148149  3  0  0  0  0
141150  1  0  0  0  0
150151  1  0  0  0  0
151152  1  0  0  0  0
152153  2  0  0  0  0
153154  1  0  0  0  0
154155  1  0  0  0  0
154156  1  0  0  0  0
 11  2  1  0  0  0  0
 23 17  1  0  0  0  0
 57 24  1  0  0  0  0
 99 58  1  0  0  0  0
133100  1  0  0  0  0
144135  1  0  0  0  0
156150  1  0  0  0  0
 10  5  1  0  0  0  0
 22 18  1  0  0  0  0
 32 27  1  0  0  0  0
 38 33  1  0  0  0  0
 56 39  2  0  0  0  0
 68 61  1  0  0  0  0
 76 69  1  0  0  0  0
 98 77  2  0  0  0  0
108103  1  0  0  0  0
114109  1  0  0  0  0
132115  2  0  0  0  0
143138  1  0  0  0  0
155151  1  0  0  0  0
 23  7  1  0  0  0  0
 49 44  1  0  0  0  0
 55 50  1  0  0  0  0
 89 82  1  0  0  0  0
 97 90  1  0  0  0  0
125120  1  0  0  0  0
131126  1  0  0  0  0
156140  1  0  0  0  0
  1157  1  0  0  0  0
  6158  1  0  0  0  0
  9159  1  0  0  0  0
 17160  1  0  0  0  0
 18161  1  0  0  0  0
 19162  1  0  0  0  0
 20163  1  0  0  0  0
 21164  1  0  0  0  0
 22165  1  0  0  0  0
 22166  1  0  0  0  0
 23167  1  0  0  0  0
 28168  1  0  0  0  0
 29169  1  0  0  0  0
 30170  1  0  0  0  0
 31171  1  0  0  0  0
 32172  1  0  0  0  0
 34173  1  0  0  0  0
 35174  1  0  0  0  0
 36175  1  0  0  0  0
 37176  1  0  0  0  0
 38177  1  0  0  0  0
 45178  1  0  0  0  0
 46179  1  0  0  0  0
 47180  1  0  0  0  0
 48181  1  0  0  0  0
 49182  1  0  0  0  0
 51183  1  0  0  0  0
 52184  1  0  0  0  0
 53185  1  0  0  0  0
 54186  1  0  0  0  0
 55187  1  0  0  0  0
 62188  1  0  0  0  0
 63189  1  0  0  0  0
 66190  1  0  0  0  0
 66191  1  0  0  0  0
 66192  1  0  0  0  0
 67193  1  0  0  0  0
 68194  1  0  0  0  0
 70195  1  0  0  0  0
 71196  1  0  0  0  0
 74197  1  0  0  0  0
 74198  1  0  0  0  0
 74199  1  0  0  0  0
 75200  1  0  0  0  0
 76201  1  0  0  0  0
 83202  1  0  0  0  0
 84203  1  0  0  0  0
 87204  1  0  0  0  0
 87205  1  0  0  0  0
 87206  1  0  0  0  0
 88207  1  0  0  0  0
 89208  1  0  0  0  0
 91209  1  0  0  0  0
 92210  1  0  0  0  0
 95211  1  0  0  0  0
 95212  1  0  0  0  0
 95213  1  0  0  0  0
 96214  1  0  0  0  0
 97215  1  0  0  0  0
104216  1  0  0  0  0
105217  1  0  0  0  0
106218  1  0  0  0  0
107219  1  0  0  0  0
108220  1  0  0  0  0
110221  1  0  0  0  0
111222  1  0  0  0  0
112223  1  0  0  0  0
113224  1  0  0  0  0
114225  1  0  0  0  0
121226  1  0  0  0  0
122227  1  0  0  0  0
123228  1  0  0  0  0
124229  1  0  0  0  0
125230  1  0  0  0  0
127231  1  0  0  0  0
128232  1  0  0  0  0
129233  1  0  0  0  0
130234  1  0  0  0  0
131235  1  0  0  0  0
134236  1  0  0  0  0
139237  1  0  0  0  0
142238  1  0  0  0  0
150239  1  0  0  0  0
151240  1  0  0  0  0
152241  1  0  0  0  0
153242  1  0  0  0  0
154243  1  0  0  0  0
155244  1  0  0  0  0
155245  1  0  0  0  0
156246  1  0  0  0  0
M  END
