270

C          7.10270       -0.15530       -7.95000
C          6.96820       -0.60670       -9.24310
C          6.04850       -1.67980       -9.65480
O          5.24440       -2.27270       -8.95920
C          6.39170       -1.98450      -11.05950
C          5.80800       -2.94850      -11.87530
C          6.34090       -3.00830      -13.14140
C          7.38460       -2.17610      -13.56320
C          7.97060       -1.22030      -12.76660
C          7.43830       -1.14060      -11.47860
C          7.78310       -0.25000      -10.37280
C          8.61170        0.84270      -10.44460
C          9.33180        1.22360      -11.59200
N          9.94310        1.58860      -12.49380
C          8.78770        1.76560       -9.39450
N          8.95070        2.57450       -8.59520
C          7.43600       -2.80070      -14.93530
C          8.57650       -3.80680      -15.22730
C          8.97000       -4.40630      -13.90020
C          7.97930       -5.19290      -13.50160
C          6.89810       -5.13960      -14.55260
C          7.75660       -4.96610      -15.81560
C          6.26980       -3.72670      -14.46620
C          6.12810       -0.21520       -6.94750
C          4.72260       -0.26280       -7.02530
N          3.96090       -0.12440       -8.15750
C          4.40380        0.64170       -9.24490
C          4.14880        0.21650      -10.54780
C          4.61570        0.95410      -11.62070
C          5.32930        2.12170      -11.41020
C          5.55480        2.56500      -10.11560
C          5.09720        1.83360       -9.03790
C          2.67410       -0.68820       -8.19060
C          2.44540       -1.94930       -7.64550
C          1.17070       -2.48160       -7.65070
C          0.11550       -1.77140       -8.19930
C          0.34630       -0.52880       -8.76560
C          1.61730        0.01210       -8.76520
C          4.15590       -0.30650       -5.73490
S          2.52650       -0.27200       -5.15430
C          3.09230       -0.04060       -3.51000
C          4.47680       -0.04610       -3.42650
N          5.17930        0.18580       -2.23730
C          6.08730       -0.77820       -1.80020
C          7.26640       -0.42570       -1.14610
C          8.15390       -1.40370       -0.74470
C          7.88620       -2.74210       -0.98650
C          6.71620       -3.09610       -1.63780
C          5.82150       -2.12560       -2.04240
C          5.12400        1.47520       -1.68990
C          5.00190        2.58760       -2.51880
C          4.92400        3.85480       -1.97200
C          4.96910        4.02970       -0.59950
C          5.09500        2.92440        0.22620
C          5.16930        1.65420       -0.30990
C          5.07040       -0.20180       -4.69360
S          6.69060       -0.10520       -5.27080
C          2.18380        0.03360       -2.41830
C          0.87770        0.50910       -2.38220
N          0.20090        1.15150       -3.40100
C         -1.19630        1.00790       -3.46560
C         -2.00560        2.12020       -3.67260
C         -3.37990        1.99440       -3.69930
C         -3.96730        0.74800       -3.52390
S         -5.71060        0.48310       -3.51710
C         -6.36590        2.00840       -4.25510
C         -3.16000       -0.37030       -3.32990
C         -1.78890       -0.24430       -3.30450
C          0.84440        1.97720       -4.32910
C          0.41000        2.00120       -5.65350
C          1.07780        2.74680       -6.60470
C          2.19850        3.48290       -6.24670
S          3.19010        4.41560       -7.37190
C          2.35400        4.23160       -8.96980
C          2.60520        3.50020       -4.91340
C          1.93750        2.76270       -3.96270
C          0.29450        0.26080       -1.11470
S         -1.25750        0.57880       -0.42960
C         -0.79100       -0.21220        1.07770
C          0.50110       -0.72750        1.01870
N          1.15660       -1.48150        1.97610
C          0.59080       -2.58050        2.62290
C          1.14110       -3.01600        3.83190
C          0.60820       -4.09780        4.49190
C         -0.49620       -4.76750        3.97140
S         -1.11630       -6.13860        4.89690
C         -2.84880       -6.23600        4.36380
C         -1.04220       -4.34780        2.76700
C         -0.50230       -3.26670        2.09800
C          2.55120       -1.28680        2.09570
C          3.43370       -2.34360        1.89640
C          4.79500       -2.15730        2.02800
C          5.29030       -0.91050        2.38760
S          7.00530       -0.55570        2.58960
C          7.77500       -2.19690        2.65070
C          4.40620        0.14960        2.58660
C          3.05010       -0.02980        2.42660
C          1.11590       -0.39940       -0.21790
S          2.69000       -0.66570       -0.88000
C         -1.74670       -0.15760        2.12640
C         -2.95860        0.48450        2.05110
C         -3.69550        0.46980        3.25120
C         -4.93640        1.08700        3.52670
C         -5.73920        1.71790        2.50190
C         -6.53960        2.82110        2.63550
C         -7.29050        3.06860        1.47690
S         -8.47920        4.23040        1.02180
C         -8.69330        3.46300       -0.53710
Si       -10.06370        4.10810       -1.66350
C        -11.72590        3.36510       -1.06850
C        -11.99300        3.58190        0.41840
C         -9.68060        3.51190       -3.43920
C        -10.73300        3.91950       -4.46240
C        -10.05040        6.01800       -1.51600
C        -11.36500        6.69270       -1.89760
C         -7.87440        2.38000       -0.68310
C         -7.07650        2.15330        0.45100
S         -5.89740        0.97710        0.91210
C         -5.37870        1.01760        4.84500
C         -4.70190        0.28660        5.85840
C         -3.49630       -0.38760        5.56220
C         -2.82990       -1.23360        6.52690
S         -2.22900       -2.79050        5.96970
C         -1.67240       -3.17010        7.55620
C         -1.01560       -4.26280        8.14130
C         -0.76970       -4.07170        9.47070
Si         0.08690       -5.27100       10.65150
C          1.07490       -6.51020        9.58220
C          2.18340       -5.85900        8.76190
C          1.27340       -4.30570       11.80400
C          0.56560       -3.50860       12.89570
C         -1.27640       -6.17270       11.64780
C         -0.73000       -7.21370       12.61950
S         -1.36720       -2.52080       10.02130
C         -1.94410       -2.13150        8.44250
C         -2.60780       -1.03720        7.86300
C         -3.00960       -0.23280        4.27290
S         -1.46970       -0.82910        3.71490
C         -5.38490        0.30910        7.08770
C         -6.52730        1.06890        7.07540
S         -6.84120        1.72290        5.46850
C         -7.44680        1.38790        8.09920
C         -7.27560        1.35180        9.45440
C         -6.00570        1.19480       10.20420
O         -4.92150        0.82640        9.79990
C         -6.29910        1.63420       11.58090
C         -5.38590        1.74300       12.62820
C         -5.93380        2.20320       13.80090
C         -7.29080        2.53150       13.92500
C         -8.20360        2.41980       12.90340
C         -7.66590        1.95260       11.69970
C         -8.30830        1.71010       10.41240
C         -9.65790        1.73710       10.17660
C        -10.27840        1.38670        8.95820
N        -10.86560        1.09390        8.01570
C        -10.62800        2.07300       11.14360
N        -11.46910        2.34200       11.87750
C         -7.14100        2.94650       15.36740
C         -7.09860        4.46410       15.64590
C         -6.47620        4.56240       17.01990
C         -5.19210        4.24870       16.90460
C         -4.92480        3.93350       15.45060
C         -5.90770        4.90560       14.78530
C         -5.62890        2.57760       15.23020
H          8.05490        0.26460       -7.64810
H          5.00720       -3.57370      -11.51120
H          8.77920       -0.59090      -13.09970
H          7.25030       -2.13090      -15.77290
H          9.38610       -3.40780      -15.83260
H          9.87430       -4.15870      -13.37580
H          7.89050       -5.73340      -12.57740
H          6.17950       -5.95520      -14.54390
H          8.36400       -5.84270      -16.03580
H          7.18060       -4.68680      -16.69690
H          5.32210       -3.66100      -14.99800
H          3.59330       -0.69530      -10.70900
H          4.43030        0.60520      -12.62580
H          5.70480        2.68680      -12.24950
H          6.09260        3.48420       -9.94020
H          5.27290        2.18770       -8.03360
H          3.27870       -2.51000       -7.25290
H          1.00160       -3.46130       -7.22980
H         -0.88020       -2.18840       -8.19650
H         -0.46920        0.02510       -9.20750
H          1.79900        0.97890       -9.21110
H          7.49110        0.61440       -0.96690
H          9.06780       -1.11510       -0.24640
H          8.58910       -3.50340       -0.67990
H          6.49730       -4.13620       -1.83100
H          4.90680       -2.40390       -2.54550
H          4.98380        2.45490       -3.59040
H          4.84040        4.71330       -2.62220
H          4.91170        5.02120       -0.17660
H          5.13330        3.05300        1.29750
H          5.25930        0.79120        0.32930
H         -1.55100        3.09180       -3.79830
H         -3.98100        2.87830       -3.83800
H         -7.40850        1.80470       -4.47700
H         -5.83000        2.22690       -5.17380
H         -6.29500        2.83070       -3.54830
H         -3.62330       -1.33640       -3.20200
H         -1.16500       -1.11450       -3.16370
H         -0.44070        1.40360       -5.94480
H          0.72180        2.72870       -7.62140
H          2.38590        3.19450       -9.29120
H          1.33380        4.59770       -8.90100
H          2.92030        4.84190       -9.66640
H          3.45390        4.10540       -4.63650
H          2.26810        2.78310       -2.93480
H          1.98060       -2.48690        4.25610
H          1.03140       -4.42670        5.42850
H         -3.34710       -6.87850        5.08290
H         -3.28170       -5.24060        4.38830
H         -2.91730       -6.67420        3.37230
H         -1.88680       -4.85950        2.33370
H         -0.93300       -2.95400        1.15820
H          3.04640       -3.31580        1.63030
H          5.45750       -2.98600        1.83970
H          7.71750       -2.67040        1.67470
H          7.29180       -2.79670        3.41630
H          8.81330       -2.02380        2.91600
H          4.80030        1.11170        2.87480
H          2.36680        0.79290        2.57530
H         -3.28820        0.97360        1.15240
H         -6.56860        3.44140        3.51160
H        -11.74110        2.29320       -1.27500
H        -12.54510        3.80110       -1.64210
H        -11.99340        4.64110        0.66270
H        -12.95780        3.16550        0.70190
H        -11.22640        3.10000        1.01960
H         -8.71340        3.90260       -3.75670
H         -9.59630        2.42460       -3.44030
H        -11.71160        3.54180       -4.17860
H        -10.79270        5.00170       -4.53940
H        -10.48950        3.52530       -5.44810
H         -9.80690        6.28860       -0.48700
H         -9.25090        6.42850       -2.13600
H        -11.63740        6.46480       -2.92480
H        -12.17180        6.35690       -1.25190
H        -11.28250        7.77400       -1.80100
H         -7.85480        1.76420       -1.56290
H         -0.73950       -5.15170        7.60560
H          1.51650       -7.27310       10.22350
H          0.39570       -7.03300        8.90830
H          2.92260       -5.39990        9.41330
H          2.68770       -6.59620        8.13950
H          1.77690       -5.08630        8.11430
H          1.96980       -5.00340       12.27270
H          1.87870       -3.62000       11.20870
H         -0.00020       -4.16690       13.54970
H         -0.12340       -2.79000       12.45920
H          1.28660       -2.96390       13.50290
H         -1.86250       -5.43920       12.20300
H         -1.96930       -6.66060       10.96040
H         -0.05090       -6.75600       13.33440
H         -0.18690       -7.98830       12.08420
H         -1.53840       -7.68730       13.17400
H         -2.87640       -0.14390        8.39640
H         -5.06020       -0.23370        7.95260
H         -8.39090        1.77570        7.73360
H         -4.34950        1.47820       12.48860
H         -9.24370        2.67700       13.01410
H         -7.74880        2.39900       16.08510
H         -8.04320        4.98040       15.49800
H         -7.02790        4.78830       17.91350
H         -4.45670        4.16010       17.68270
H         -3.88860        3.96700       15.12490
H         -5.63820        5.94620       14.95880
H         -6.04410        4.73820       13.71850
H         -5.22780        1.78240       15.85570
