
  xtb     02052209073D
 energy: -287.674518033956 gnorm: 0.000418293545 xtb: 6.4.1 (unknown)
167187  0     0  0            999 V2000
    2.8144    3.8224   -5.6407 C   0  0  0  0  0  0  0  0  0  0  0  0
    2.6714    3.8111   -6.9979 C   0  0  0  0  0  0  0  0  0  0  0  0
    1.4231    3.4852   -7.7330 C   0  0  0  0  0  0  0  0  0  0  0  0
    0.2836    3.4894   -7.3209 O   0  0  0  0  0  0  0  0  0  0  0  0
    1.8623    3.0893   -9.0859 C   0  0  0  0  0  0  0  0  0  0  0  0
    1.0626    2.5617  -10.0957 C   0  0  0  0  0  0  0  0  0  0  0  0
    1.7501    2.2364  -11.2394 C   0  0  0  0  0  0  0  0  0  0  0  0
    3.1307    2.4350  -11.3805 C   0  0  0  0  0  0  0  0  0  0  0  0
    3.9305    2.9601  -10.3939 C   0  0  0  0  0  0  0  0  0  0  0  0
    3.2522    3.2817   -9.2138 C   0  0  0  0  0  0  0  0  0  0  0  0
    3.7644    3.7985   -7.9502 C   0  0  0  0  0  0  0  0  0  0  0  0
    5.0367    4.2520   -7.7155 C   0  0  0  0  0  0  0  0  0  0  0  0
    6.0764    4.2354   -8.6669 C   0  0  0  0  0  0  0  0  0  0  0  0
    6.9677    4.2362   -9.3911 N   0  0  0  0  0  0  0  0  0  0  0  0
    5.4623    4.8328   -6.5023 C   0  0  0  0  0  0  0  0  0  0  0  0
    5.8709    5.3317   -5.5519 N   0  0  0  0  0  0  0  0  0  0  0  0
    3.1506    1.8644  -12.7778 C   0  0  0  0  0  0  0  0  0  0  0  0
    3.7040    0.4295  -12.9648 C   0  0  0  0  0  0  0  0  0  0  0  0
    3.5051   -0.2775  -11.6475 C   0  0  0  0  0  0  0  0  0  0  0  0
    2.2034   -0.4727  -11.4842 C   0  0  0  0  0  0  0  0  0  0  0  0
    1.4996    0.0865  -12.6966 C   0  0  0  0  0  0  0  0  0  0  0  0
    2.5567   -0.1909  -13.7777 C   0  0  0  0  0  0  0  0  0  0  0  0
    1.6162    1.6288  -12.6115 C   0  0  0  0  0  0  0  0  0  0  0  0
    1.7790    3.8132   -4.6805 C   0  0  0  0  0  0  0  0  0  0  0  0
    0.4944    4.3181   -4.7045 C   0  0  0  0  0  0  0  0  0  0  0  0
   -0.2747    3.9655   -3.5926 C   0  0  0  0  0  0  0  0  0  0  0  0
   -1.6688    4.3955   -3.4130 C   0  0  0  0  0  0  0  0  0  0  0  0
   -1.9549    5.7549   -3.3374 C   0  0  0  0  0  0  0  0  0  0  0  0
   -3.2554    6.1860   -3.1532 C   0  0  0  0  0  0  0  0  0  0  0  0
   -4.2829    5.2649   -3.0450 C   0  0  0  0  0  0  0  0  0  0  0  0
   -4.0080    3.9111   -3.1355 C   0  0  0  0  0  0  0  0  0  0  0  0
   -2.7090    3.4769   -3.3213 C   0  0  0  0  0  0  0  0  0  0  0  0
    0.4125    3.1451   -2.7030 C   0  0  0  0  0  0  0  0  0  0  0  0
    2.0759    2.9775   -3.1741 S   0  0  0  0  0  0  0  0  0  0  0  0
   -0.0948    2.4767   -1.5538 C   0  0  0  0  0  0  0  0  0  0  0  0
    0.2759    1.2336   -1.0466 C   0  0  0  0  0  0  0  0  0  0  0  0
    1.1564    0.3254   -1.6062 N   0  0  0  0  0  0  0  0  0  0  0  0
    1.3143    0.1675   -2.9842 C   0  0  0  0  0  0  0  0  0  0  0  0
    2.5542   -0.2157   -3.4917 C   0  0  0  0  0  0  0  0  0  0  0  0
    2.7797   -0.2443   -4.8537 C   0  0  0  0  0  0  0  0  0  0  0  0
    1.7697    0.1219   -5.7330 C   0  0  0  0  0  0  0  0  0  0  0  0
    1.9757    0.2157   -7.4850 S   0  0  0  0  0  0  0  0  0  0  0  0
    3.7777    0.2009   -7.7030 C   0  0  0  0  0  0  0  0  0  0  0  0
    0.5052    0.4311   -5.2349 C   0  0  0  0  0  0  0  0  0  0  0  0
    0.2754    0.4375   -3.8783 C   0  0  0  0  0  0  0  0  0  0  0  0
    1.7463   -0.5926   -0.7105 C   0  0  0  0  0  0  0  0  0  0  0  0
    1.5688   -1.9655   -0.8739 C   0  0  0  0  0  0  0  0  0  0  0  0
    1.9196   -2.8273    0.1422 C   0  0  0  0  0  0  0  0  0  0  0  0
    2.4631   -2.3344    1.3259 C   0  0  0  0  0  0  0  0  0  0  0  0
    2.6616   -3.4582    2.6757 S   0  0  0  0  0  0  0  0  0  0  0  0
    2.5091   -2.3521    4.1095 C   0  0  0  0  0  0  0  0  0  0  0  0
    2.7823   -0.9861    1.4252 C   0  0  0  0  0  0  0  0  0  0  0  0
    2.4183   -0.1200    0.4134 C   0  0  0  0  0  0  0  0  0  0  0  0
   -0.4194    0.9567    0.1540 C   0  0  0  0  0  0  0  0  0  0  0  0
   -0.4268   -0.4063    1.2137 S   0  0  0  0  0  0  0  0  0  0  0  0
   -1.5687    0.4036    2.2802 C   0  0  0  0  0  0  0  0  0  0  0  0
   -2.0731    1.5921    1.7068 C   0  0  0  0  0  0  0  0  0  0  0  0
   -3.1833    2.2963    2.0888 N   0  0  0  0  0  0  0  0  0  0  0  0
   -3.3173    3.6244    1.6301 C   0  0  0  0  0  0  0  0  0  0  0  0
   -4.4695    4.0142    0.9488 C   0  0  0  0  0  0  0  0  0  0  0  0
   -4.5746    5.2916    0.4494 C   0  0  0  0  0  0  0  0  0  0  0  0
   -3.5340    6.2037    0.6206 C   0  0  0  0  0  0  0  0  0  0  0  0
   -3.7534    7.7997   -0.0877 S   0  0  0  0  0  0  0  0  0  0  0  0
   -2.0620    8.4567   -0.1614 C   0  0  0  0  0  0  0  0  0  0  0  0
   -2.4055    5.8313    1.3392 C   0  0  0  0  0  0  0  0  0  0  0  0
   -2.2988    4.5480    1.8393 C   0  0  0  0  0  0  0  0  0  0  0  0
   -4.2239    1.7512    2.8413 C   0  0  0  0  0  0  0  0  0  0  0  0
   -4.5265    0.3895    2.7980 C   0  0  0  0  0  0  0  0  0  0  0  0
   -5.4362   -0.1562    3.6776 C   0  0  0  0  0  0  0  0  0  0  0  0
   -6.0947    0.6552    4.5977 C   0  0  0  0  0  0  0  0  0  0  0  0
   -7.1520    0.0270    5.8521 S   0  0  0  0  0  0  0  0  0  0  0  0
   -6.5616   -1.6764    6.0561 C   0  0  0  0  0  0  0  0  0  0  0  0
   -5.9092    2.0375    4.5348 C   0  0  0  0  0  0  0  0  0  0  0  0
   -4.9895    2.5798    3.6689 C   0  0  0  0  0  0  0  0  0  0  0  0
   -1.3382    1.9183    0.5369 C   0  0  0  0  0  0  0  0  0  0  0  0
   -1.3613    3.2371   -0.5909 S   0  0  0  0  0  0  0  0  0  0  0  0
   -1.7459   -0.2076    3.5417 C   0  0  0  0  0  0  0  0  0  0  0  0
   -2.2605    0.3937    4.7143 C   0  0  0  0  0  0  0  0  0  0  0  0
   -2.4498   -0.3525    5.9408 C   0  0  0  0  0  0  0  0  0  0  0  0
   -2.9463    0.4131    6.9108 N   0  0  0  0  0  0  0  0  0  0  0  0
   -3.1248    1.9140    6.3627 S   0  0  0  0  0  4  0  0  0  0  0  0
   -2.5904    1.6771    4.8634 N   0  0  0  0  0  0  0  0  0  0  0  0
   -2.0553   -1.7022    6.1050 C   0  0  0  0  0  0  0  0  0  0  0  0
   -1.4877   -2.2882    4.9522 C   0  0  0  0  0  0  0  0  0  0  0  0
   -1.1018   -3.5574    4.8106 N   0  0  0  0  0  0  0  0  0  0  0  0
   -0.5287   -3.7846    3.3332 S   0  0  0  0  0  0  0  0  0  0  0  0
   -0.7890   -2.3019    2.7643 N   0  0  0  0  0  0  0  0  0  0  0  0
   -1.3288   -1.5503    3.7252 C   0  0  0  0  0  0  0  0  0  0  0  0
   -2.2746   -2.3843    7.3209 C   0  0  0  0  0  0  0  0  0  0  0  0
   -1.5229   -3.4221    7.8087 C   0  0  0  0  0  0  0  0  0  0  0  0
   -0.1052   -3.6760    7.4801 C   0  0  0  0  0  0  0  0  0  0  0  0
    0.6076   -3.0790    6.6956 O   0  0  0  0  0  0  0  0  0  0  0  0
    0.3421   -4.7183    8.4278 C   0  0  0  0  0  0  0  0  0  0  0  0
    1.6159   -5.2740    8.5191 C   0  0  0  0  0  0  0  0  0  0  0  0
    1.7510   -6.2059    9.5206 C   0  0  0  0  0  0  0  0  0  0  0  0
    0.7003   -6.5528   10.3792 C   0  0  0  0  0  0  0  0  0  0  0  0
   -0.5596   -6.0070   10.3062 C   0  0  0  0  0  0  0  0  0  0  0  0
   -0.7193   -5.0631    9.2878 C   0  0  0  0  0  0  0  0  0  0  0  0
   -1.8964   -4.2935    8.8955 C   0  0  0  0  0  0  0  0  0  0  0  0
   -3.1699   -4.4559    9.3852 C   0  0  0  0  0  0  0  0  0  0  0  0
   -3.5161   -5.3222   10.4400 C   0  0  0  0  0  0  0  0  0  0  0  0
   -3.8624   -6.0002   11.3003 N   0  0  0  0  0  0  0  0  0  0  0  0
   -4.3083   -3.8208    8.8515 C   0  0  0  0  0  0  0  0  0  0  0  0
   -5.2880   -3.3833    8.4392 N   0  0  0  0  0  0  0  0  0  0  0  0
    1.5441   -7.5438   11.1424 C   0  0  0  0  0  0  0  0  0  0  0  0
    1.3167   -9.0360   10.8205 C   0  0  0  0  0  0  0  0  0  0  0  0
    2.5687   -9.7108   11.3324 C   0  0  0  0  0  0  0  0  0  0  0  0
    3.5648   -9.3831   10.5194 C   0  0  0  0  0  0  0  0  0  0  0  0
    3.0027   -8.4815    9.4441 C   0  0  0  0  0  0  0  0  0  0  0  0
    1.5940   -9.0745    9.3121 C   0  0  0  0  0  0  0  0  0  0  0  0
    2.7160   -7.1576   10.1839 C   0  0  0  0  0  0  0  0  0  0  0  0
    3.8147    3.7224   -5.2336 H   0  0  0  0  0  0  0  0  0  0  0  0
    0.0036    2.4229   -9.9477 H   0  0  0  0  0  0  0  0  0  0  0  0
    4.9934    3.0970  -10.5072 H   0  0  0  0  0  0  0  0  0  0  0  0
    3.4786    2.5425  -13.5629 H   0  0  0  0  0  0  0  0  0  0  0  0
    4.7028    0.3820  -13.3904 H   0  0  0  0  0  0  0  0  0  0  0  0
    4.3057   -0.5101  -10.9692 H   0  0  0  0  0  0  0  0  0  0  0  0
    1.6949   -0.8851  -10.6323 H   0  0  0  0  0  0  0  0  0  0  0  0
    0.4922   -0.2798  -12.8750 H   0  0  0  0  0  0  0  0  0  0  0  0
    2.3620    0.3244  -14.7172 H   0  0  0  0  0  0  0  0  0  0  0  0
    2.7005   -1.2542  -13.9642 H   0  0  0  0  0  0  0  0  0  0  0  0
    0.9424    2.1334  -13.3011 H   0  0  0  0  0  0  0  0  0  0  0  0
    0.1123    4.9114   -5.5132 H   0  0  0  0  0  0  0  0  0  0  0  0
   -1.1483    6.4701   -3.4178 H   0  0  0  0  0  0  0  0  0  0  0  0
   -3.4702    7.2423   -3.0920 H   0  0  0  0  0  0  0  0  0  0  0  0
   -5.2975    5.6043   -2.9004 H   0  0  0  0  0  0  0  0  0  0  0  0
   -4.8091    3.1901   -3.0648 H   0  0  0  0  0  0  0  0  0  0  0  0
   -2.4963    2.4211   -3.4056 H   0  0  0  0  0  0  0  0  0  0  0  0
    3.3528   -0.4624   -2.8083 H   0  0  0  0  0  0  0  0  0  0  0  0
    3.7538   -0.5324   -5.2145 H   0  0  0  0  0  0  0  0  0  0  0  0
    4.1749   -0.7905   -7.5051 H   0  0  0  0  0  0  0  0  0  0  0  0
    3.9455    0.4654   -8.7426 H   0  0  0  0  0  0  0  0  0  0  0  0
    4.2312    0.9424   -7.0515 H   0  0  0  0  0  0  0  0  0  0  0  0
   -0.2846    0.6838   -5.9250 H   0  0  0  0  0  0  0  0  0  0  0  0
   -0.7065    0.6774   -3.5006 H   0  0  0  0  0  0  0  0  0  0  0  0
    1.0966   -2.3388   -1.7703 H   0  0  0  0  0  0  0  0  0  0  0  0
    1.7266   -3.8848    0.0523 H   0  0  0  0  0  0  0  0  0  0  0  0
    1.7748   -1.5847    3.8832 H   0  0  0  0  0  0  0  0  0  0  0  0
    3.4719   -1.9103    4.3496 H   0  0  0  0  0  0  0  0  0  0  0  0
    2.1591   -2.9532    4.9440 H   0  0  0  0  0  0  0  0  0  0  0  0
    3.2824   -0.5991    2.2985 H   0  0  0  0  0  0  0  0  0  0  0  0
    2.6099    0.9387    0.5098 H   0  0  0  0  0  0  0  0  0  0  0  0
   -5.2672    3.3020    0.8005 H   0  0  0  0  0  0  0  0  0  0  0  0
   -5.4557    5.5967   -0.0923 H   0  0  0  0  0  0  0  0  0  0  0  0
   -2.1143    9.3394   -0.7910 H   0  0  0  0  0  0  0  0  0  0  0  0
   -1.4106    7.7138   -0.6117 H   0  0  0  0  0  0  0  0  0  0  0  0
   -1.7192    8.7373    0.8301 H   0  0  0  0  0  0  0  0  0  0  0  0
   -1.6048    6.5301    1.5181 H   0  0  0  0  0  0  0  0  0  0  0  0
   -1.4240    4.2540    2.3995 H   0  0  0  0  0  0  0  0  0  0  0  0
   -4.0306   -0.2516    2.0854 H   0  0  0  0  0  0  0  0  0  0  0  0
   -5.6280   -1.2169    3.6437 H   0  0  0  0  0  0  0  0  0  0  0  0
   -6.9608   -2.3144    5.2730 H   0  0  0  0  0  0  0  0  0  0  0  0
   -6.9203   -2.0117    7.0236 H   0  0  0  0  0  0  0  0  0  0  0  0
   -5.4760   -1.6829    6.0553 H   0  0  0  0  0  0  0  0  0  0  0  0
   -6.4676    2.6710    5.2061 H   0  0  0  0  0  0  0  0  0  0  0  0
   -4.8053    3.6426    3.6757 H   0  0  0  0  0  0  0  0  0  0  0  0
   -3.0919   -2.0022    7.9214 H   0  0  0  0  0  0  0  0  0  0  0  0
    2.4024   -4.9751    7.8436 H   0  0  0  0  0  0  0  0  0  0  0  0
   -1.3566   -6.2719   10.9812 H   0  0  0  0  0  0  0  0  0  0  0  0
    1.6573   -7.3508   12.2076 H   0  0  0  0  0  0  0  0  0  0  0  0
    0.3678   -9.4367   11.1664 H   0  0  0  0  0  0  0  0  0  0  0  0
    2.6111  -10.2916   12.2352 H   0  0  0  0  0  0  0  0  0  0  0  0
    4.6054   -9.6354   10.6076 H   0  0  0  0  0  0  0  0  0  0  0  0
    3.5903   -8.3782    8.5358 H   0  0  0  0  0  0  0  0  0  0  0  0
    1.6102  -10.0911    8.9225 H   0  0  0  0  0  0  0  0  0  0  0  0
    0.9113   -8.4681    8.7200 H   0  0  0  0  0  0  0  0  0  0  0  0
    3.6101   -6.7065   10.6109 H   0  0  0  0  0  0  0  0  0  0  0  0
  1  2  2  0  0  0  0
  2  3  1  0  0  0  0
  3  4  2  0  0  0  0
  3  5  1  0  0  0  0
  5  6  2  0  0  0  0
  6  7  1  0  0  0  0
  7  8  2  0  0  0  0
  8  9  1  0  0  0  0
  9 10  2  0  0  0  0
 10 11  1  0  0  0  0
 11 12  2  0  0  0  0
 12 13  1  0  0  0  0
 13 14  3  0  0  0  0
 12 15  1  0  0  0  0
 15 16  3  0  0  0  0
  8 17  1  0  0  0  0
 17 18  1  0  0  0  0
 18 19  1  0  0  0  0
 19 20  2  0  0  0  0
 20 21  1  0  0  0  0
 21 22  1  0  0  0  0
 21 23  1  0  0  0  0
  1 24  1  0  0  0  0
 24 25  2  0  0  0  0
 25 26  1  0  0  0  0
 26 27  1  0  0  0  0
 27 28  2  0  0  0  0
 28 29  1  0  0  0  0
 29 30  2  0  0  0  0
 30 31  1  0  0  0  0
 31 32  2  0  0  0  0
 26 33  2  0  0  0  0
 33 34  1  0  0  0  0
 33 35  1  0  0  0  0
 35 36  2  0  0  0  0
 36 37  1  0  0  0  0
 37 38  1  0  0  0  0
 38 39  2  0  0  0  0
 39 40  1  0  0  0  0
 40 41  2  0  0  0  0
 41 42  1  0  0  0  0
 42 43  1  0  0  0  0
 41 44  1  0  0  0  0
 44 45  2  0  0  0  0
 37 46  1  0  0  0  0
 46 47  2  0  0  0  0
 47 48  1  0  0  0  0
 48 49  2  0  0  0  0
 49 50  1  0  0  0  0
 50 51  1  0  0  0  0
 49 52  1  0  0  0  0
 52 53  2  0  0  0  0
 36 54  1  0  0  0  0
 54 55  1  0  0  0  0
 55 56  1  0  0  0  0
 56 57  2  0  0  0  0
 57 58  1  0  0  0  0
 58 59  1  0  0  0  0
 59 60  2  0  0  0  0
 60 61  1  0  0  0  0
 61 62  2  0  0  0  0
 62 63  1  0  0  0  0
 63 64  1  0  0  0  0
 62 65  1  0  0  0  0
 65 66  2  0  0  0  0
 58 67  1  0  0  0  0
 67 68  2  0  0  0  0
 68 69  1  0  0  0  0
 69 70  2  0  0  0  0
 70 71  1  0  0  0  0
 71 72  1  0  0  0  0
 70 73  1  0  0  0  0
 73 74  2  0  0  0  0
 57 75  1  0  0  0  0
 75 76  1  0  0  0  0
 56 77  1  0  0  0  0
 77 78  2  0  0  0  0
 78 79  1  0  0  0  0
 79 80  1  0  0  0  0
 80 81  2  0  0  0  0
 81 82  2  0  0  0  0
 79 83  2  0  0  0  0
 83 84  1  0  0  0  0
 84 85  2  0  0  0  0
 85 86  1  0  0  0  0
 86 87  1  0  0  0  0
 87 88  2  0  0  0  0
 83 89  1  0  0  0  0
 89 90  2  0  0  0  0
 90 91  1  0  0  0  0
 91 92  2  0  0  0  0
 91 93  1  0  0  0  0
 93 94  2  0  0  0  0
 94 95  1  0  0  0  0
 95 96  2  0  0  0  0
 96 97  1  0  0  0  0
 97 98  2  0  0  0  0
 98 99  1  0  0  0  0
 99100  2  0  0  0  0
100101  1  0  0  0  0
101102  3  0  0  0  0
100103  1  0  0  0  0
103104  3  0  0  0  0
 96105  1  0  0  0  0
105106  1  0  0  0  0
106107  1  0  0  0  0
107108  2  0  0  0  0
108109  1  0  0  0  0
109110  1  0  0  0  0
109111  1  0  0  0  0
 11  2  1  0  0  0  0
 23 17  1  0  0  0  0
 34 24  1  0  0  0  0
 76 35  1  0  0  0  0
 88 77  1  0  0  0  0
 99 90  1  0  0  0  0
111105  1  0  0  0  0
 10  5  1  0  0  0  0
 22 18  1  0  0  0  0
 32 27  1  0  0  0  0
 45 38  1  0  0  0  0
 53 46  1  0  0  0  0
 75 54  2  0  0  0  0
 82 78  1  0  0  0  0
 88 84  1  0  0  0  0
 98 93  1  0  0  0  0
110106  1  0  0  0  0
 23  7  1  0  0  0  0
 66 59  1  0  0  0  0
 74 67  1  0  0  0  0
111 95  1  0  0  0  0
  1112  1  0  0  0  0
  6113  1  0  0  0  0
  9114  1  0  0  0  0
 17115  1  0  0  0  0
 18116  1  0  0  0  0
 19117  1  0  0  0  0
 20118  1  0  0  0  0
 21119  1  0  0  0  0
 22120  1  0  0  0  0
 22121  1  0  0  0  0
 23122  1  0  0  0  0
 25123  1  0  0  0  0
 28124  1  0  0  0  0
 29125  1  0  0  0  0
 30126  1  0  0  0  0
 31127  1  0  0  0  0
 32128  1  0  0  0  0
 39129  1  0  0  0  0
 40130  1  0  0  0  0
 43131  1  0  0  0  0
 43132  1  0  0  0  0
 43133  1  0  0  0  0
 44134  1  0  0  0  0
 45135  1  0  0  0  0
 47136  1  0  0  0  0
 48137  1  0  0  0  0
 51138  1  0  0  0  0
 51139  1  0  0  0  0
 51140  1  0  0  0  0
 52141  1  0  0  0  0
 53142  1  0  0  0  0
 60143  1  0  0  0  0
 61144  1  0  0  0  0
 64145  1  0  0  0  0
 64146  1  0  0  0  0
 64147  1  0  0  0  0
 65148  1  0  0  0  0
 66149  1  0  0  0  0
 68150  1  0  0  0  0
 69151  1  0  0  0  0
 72152  1  0  0  0  0
 72153  1  0  0  0  0
 72154  1  0  0  0  0
 73155  1  0  0  0  0
 74156  1  0  0  0  0
 89157  1  0  0  0  0
 94158  1  0  0  0  0
 97159  1  0  0  0  0
105160  1  0  0  0  0
106161  1  0  0  0  0
107162  1  0  0  0  0
108163  1  0  0  0  0
109164  1  0  0  0  0
110165  1  0  0  0  0
110166  1  0  0  0  0
111167  1  0  0  0  0
M  END
