184

C          8.90210       -0.48050       -4.17210
C          9.67570        0.60280       -3.87640
C          9.31250        1.94240       -3.34890
O          8.29510        2.30140       -2.78950
C         10.46890        2.81320       -3.62680
C         10.54390        4.18650       -3.40270
C         11.73980        4.74900       -3.77590
C         12.78760        4.00070       -4.33090
C         12.73130        2.64470       -4.54530
C         11.52120        2.05240       -4.17050
C         11.09180        0.66100       -4.23520
C         11.91050       -0.40400       -4.49880
C         13.28080       -0.29310       -4.81870
N         14.39660       -0.28110       -5.08850
C         11.54360       -1.76670       -4.43680
N         11.35080       -2.89790       -4.38530
C         13.67360        5.21040       -4.48930
C         13.81360        5.82040       -5.90610
C         12.54890        5.47230       -6.65110
C         11.55970        6.18080       -6.12320
C         12.13780        7.02070       -5.01120
C         13.53830        7.29720       -5.58100
C         12.50840        6.04340       -3.86800
C          7.51650       -0.79270       -3.98590
C          6.64030       -0.04240       -3.19470
C          5.32190       -0.44300       -3.11030
N          4.29430        0.11180       -2.38350
C          4.37190        1.32770       -1.61670
C          4.04530        2.55210       -2.46880
C          3.15760       -0.62010       -2.61380
C          3.45410       -1.69200       -3.49550
C          4.84190       -1.58500       -3.80570
C          5.72530       -2.34500       -4.57000
C          7.03760       -1.95220       -4.64610
C          2.44970       -2.57610       -3.87820
C          1.19640       -2.42730       -3.33630
C          0.92300       -1.41350       -2.40010
C          1.89150       -0.47290       -2.07260
C         -0.35410       -1.39140       -1.70940
C         -1.00050       -2.45820       -1.11700
N         -0.56450       -3.77790       -1.09170
C         -1.53060       -4.78450       -1.22080
C         -2.63410       -4.59740       -2.05590
C         -3.61760       -5.55620       -2.13610
C         -3.51990       -6.73180       -1.39580
S         -4.85680       -7.87250       -1.56750
C         -4.42460       -9.22950       -0.44310
C         -2.40860       -6.93810       -0.58940
C         -1.42630       -5.97060       -0.50080
C          0.80070       -4.07650       -1.04700
C          1.32180       -5.14510       -1.77830
C          2.68260       -5.33570       -1.85330
C          3.55820       -4.46720       -1.20530
S          5.28230       -4.73520       -1.47640
C          6.07000       -3.27100       -0.75160
C          3.04220       -3.45640       -0.40670
C          1.67690       -3.27110       -0.32350
C         -2.19440       -2.03460       -0.47680
S         -3.43730       -2.85540        0.40310
C         -4.31160       -1.34530        0.59720
C         -3.65960       -0.27270        0.01930
N         -4.20750        0.99950       -0.05280
C         -3.40100        2.12290        0.10600
C         -3.72430        3.32440       -0.52770
C         -2.90390        4.42100       -0.39410
C         -1.73870        4.34720        0.36690
S         -0.75750        5.81630        0.44750
C          0.73010        5.29580        1.35020
C         -1.42180        3.16150        1.01290
C         -2.24950        2.06290        0.88750
C         -5.59660        1.10370       -0.26080
C         -6.20440        0.32230       -1.24270
C         -7.57190        0.32950       -1.38850
C         -8.36670        1.11660       -0.55620
S        -10.10670        0.97720       -0.79010
C        -10.82130        2.16730        0.37670
C         -7.76120        1.93260        0.39090
C         -6.38580        1.93140        0.53080
C         -2.44400       -0.67760       -0.58500
S         -1.18080        0.13310       -1.43940
C         -5.51900       -1.22140        1.36970
C         -6.80160       -1.72560        1.15290
C         -7.23480       -2.55350        0.05590
C         -6.53530       -3.12430       -0.97310
C         -7.34920       -3.82430       -1.88160
C         -8.67390       -3.79010       -1.56690
C         -9.80970       -4.44750       -2.27040
C        -10.22120       -5.73890       -1.55960
S         -8.93860       -2.88940       -0.11660
C         -7.70030       -1.21200        2.09650
C         -7.14540       -0.35060        3.02960
S         -5.43340       -0.18690        2.75580
C         -7.91280        0.33160        3.98900
C         -7.51470        1.17040        4.99380
C         -6.12940        1.41260        5.42080
O         -5.10700        1.09150        4.84230
C         -6.21910        2.11170        6.71610
C         -5.16420        2.48170        7.54740
C         -5.55840        3.10280        8.70870
C         -6.90370        3.33310        9.02620
C         -7.95450        2.97660        8.21450
C         -7.57430        2.35170        7.02340
C         -8.39220        1.85760        5.91970
C         -9.72910        2.10370        5.73870
C        -10.44520        1.77150        4.57180
N        -11.07250        1.57620        3.62890
C        -10.54570        2.79380        6.65760
N        -11.26530        3.33950        7.36650
C         -6.56480        3.99080       10.34040
C         -6.65250        5.53120       10.38160
C         -5.82470        5.90810       11.58900
C         -4.55040        5.69360       11.28750
C         -4.49550        5.16820        9.87100
C         -5.68130        5.92760        9.26200
C         -5.06450        3.73770        9.98500
H          9.42400       -1.26820       -4.70510
H          9.71210        4.72410       -2.97460
H         13.54470        2.08430       -4.97480
H         14.62130        5.18040       -3.95550
H         14.74740        5.58330       -6.40880
H         12.49460        4.72770       -7.42370
H         10.51380        6.14610       -6.36640
H         11.54610        7.87740       -4.69910
H         14.22890        7.71700       -4.85090
H         13.51450        7.92660       -6.46930
H         12.69470        6.55680       -2.92670
H          6.99360        0.82920       -2.67380
H          5.38310        1.41750       -1.21230
H          3.67190        1.25160       -0.77980
H          4.76160        2.64120       -3.28170
H          4.09500        3.45250       -1.86290
H          3.04600        2.46560       -2.89010
H          5.38010       -3.22920       -5.08270
H          7.73220       -2.53560       -5.23220
H          2.65860       -3.36950       -4.57850
H          0.40110       -3.09740       -3.62370
H          1.65550        0.31910       -1.37770
H         -2.71400       -3.69330       -2.64210
H         -4.47370       -5.40920       -2.77610
H         -3.50080       -9.70130       -0.76530
H         -5.24330       -9.93900       -0.51300
H         -4.34570       -8.85620        0.57390
H         -2.29840       -7.84210       -0.01240
H         -0.57190       -6.12950        0.14020
H          0.65400       -5.79970       -2.31820
H          3.08800       -6.14310       -2.44340
H          5.62690       -2.37260       -1.17030
H          5.98080       -3.29210        0.33100
H          7.11610       -3.33090       -1.03610
H          3.69210       -2.80050        0.15010
H          1.28390       -2.47540        0.29180
H         -4.61710        3.38500       -1.13160
H         -3.14940        5.34850       -0.88840
H          0.47480        5.02980        2.37200
H          1.38940        6.15820        1.34930
H          1.20390        4.46700        0.83210
H         -0.54040        3.07820        1.62810
H         -2.00820        1.15260        1.41550
H         -5.59620       -0.30420       -1.87760
H         -8.04480       -0.28270       -2.14100
H        -10.62770        1.86210        1.40130
H        -10.43320        3.16120        0.17380
H        -11.89060        2.14610        0.19000
H         -8.35130        2.55810        1.04180
H         -5.91880        2.55430        1.27960
H         -5.47100       -3.05690       -1.08660
H         -6.96620       -4.33640       -2.74660
H        -10.66390       -3.76740       -2.30490
H         -9.50670       -4.67420       -3.29480
H         -9.38490       -6.43360       -1.52630
H        -11.04750       -6.21130       -2.08470
H        -10.53340       -5.52320       -0.54030
H         -8.75230       -1.43990        2.08390
H         -8.97480        0.13010        3.90510
H         -4.14190        2.27780        7.26980
H         -8.98520        3.15130        8.47470
H         -6.97710        3.51670       11.22900
H         -7.66170        5.93070       10.33510
H         -6.24130        6.22860       12.52580
H         -3.69010        5.79900       11.92210
H         -3.53910        5.23880        9.35970
H         -5.97440        5.57560        8.27460
H         -5.50850        7.00190        9.22880
H         -4.47530        3.09620       10.63780
