
  xtb     02172220533D
 energy: -374.625329383522 gnorm: 0.000445344607 xtb: 6.4.1 (unknown)
236259  0     0  0            999 V2000
   11.5115    6.0757   -4.9265 C   0  0  0  0  0  0  0  0  0  0  0  0
   11.2489    6.8259   -6.0309 C   0  0  0  0  0  0  0  0  0  0  0  0
    9.9867    7.5273   -6.3885 C   0  0  0  0  0  0  0  0  0  0  0  0
    8.8751    7.3845   -5.9236 O   0  0  0  0  0  0  0  0  0  0  0  0
   10.3561    8.5066   -7.4276 C   0  0  0  0  0  0  0  0  0  0  0  0
    9.5120    9.4468   -8.0151 C   0  0  0  0  0  0  0  0  0  0  0  0
   10.1224   10.2318   -8.9624 C   0  0  0  0  0  0  0  0  0  0  0  0
   11.4786   10.1018   -9.2938 C   0  0  0  0  0  0  0  0  0  0  0  0
   12.3228    9.1824   -8.7197 C   0  0  0  0  0  0  0  0  0  0  0  0
   11.7169    8.3636   -7.7612 C   0  0  0  0  0  0  0  0  0  0  0  0
   12.2747    7.2798   -6.9625 C   0  0  0  0  0  0  0  0  0  0  0  0
   13.5143    6.7232   -7.1296 C   0  0  0  0  0  0  0  0  0  0  0  0
   14.4670    7.1681   -8.0707 C   0  0  0  0  0  0  0  0  0  0  0  0
   15.2885    7.4770   -8.8109 N   0  0  0  0  0  0  0  0  0  0  0  0
   14.0063    5.5995   -6.4303 C   0  0  0  0  0  0  0  0  0  0  0  0
   14.4775    4.6790   -5.9304 N   0  0  0  0  0  0  0  0  0  0  0  0
   11.4149   11.2045  -10.3205 C   0  0  0  0  0  0  0  0  0  0  0  0
   11.3704   10.7940  -11.8132 C   0  0  0  0  0  0  0  0  0  0  0  0
   10.7561    9.4169  -11.8609 C   0  0  0  0  0  0  0  0  0  0  0  0
    9.4722    9.5355  -11.5502 C   0  0  0  0  0  0  0  0  0  0  0  0
    9.1950   10.9951  -11.2871 C   0  0  0  0  0  0  0  0  0  0  0  0
   10.1751   11.6400  -12.2800 C   0  0  0  0  0  0  0  0  0  0  0  0
    9.9036   11.3458   -9.9549 C   0  0  0  0  0  0  0  0  0  0  0  0
   10.6206    5.5226   -3.9460 C   0  0  0  0  0  0  0  0  0  0  0  0
    9.2938    5.1940   -4.2307 C   0  0  0  0  0  0  0  0  0  0  0  0
    8.5121    4.6774   -3.2153 C   0  0  0  0  0  0  0  0  0  0  0  0
    7.1886    4.3149   -3.2440 N   0  0  0  0  0  0  0  0  0  0  0  0
    6.3227    4.4067   -4.3905 C   0  0  0  0  0  0  0  0  0  0  0  0
    6.3421    3.1208   -5.2151 C   0  0  0  0  0  0  0  0  0  0  0  0
    6.8444    3.8330   -2.0085 C   0  0  0  0  0  0  0  0  0  0  0  0
    7.9700    3.8963   -1.1446 C   0  0  0  0  0  0  0  0  0  0  0  0
    9.0381    4.4434   -1.9174 C   0  0  0  0  0  0  0  0  0  0  0  0
   10.3741    4.7395   -1.6525 C   0  0  0  0  0  0  0  0  0  0  0  0
   11.1471    5.2624   -2.6591 C   0  0  0  0  0  0  0  0  0  0  0  0
    7.8559    3.4511    0.1694 C   0  0  0  0  0  0  0  0  0  0  0  0
    6.6463    2.9613    0.6016 C   0  0  0  0  0  0  0  0  0  0  0  0
    5.5260    2.9060   -0.2476 C   0  0  0  0  0  0  0  0  0  0  0  0
    5.6287    3.3393   -1.5681 C   0  0  0  0  0  0  0  0  0  0  0  0
    4.2669    2.3858    0.2402 C   0  0  0  0  0  0  0  0  0  0  0  0
    3.0338    2.5132   -0.3209 C   0  0  0  0  0  0  0  0  0  0  0  0
    2.0015    1.8497    0.3890 C   0  0  0  0  0  0  0  0  0  0  0  0
    0.6393    1.7618    0.0529 C   0  0  0  0  0  0  0  0  0  0  0  0
    0.1498    2.3037   -1.1982 C   0  0  0  0  0  0  0  0  0  0  0  0
    0.7420    2.1802   -2.4248 C   0  0  0  0  0  0  0  0  0  0  0  0
    0.0008    2.8213   -3.4350 C   0  0  0  0  0  0  0  0  0  0  0  0
    0.5121    2.8442   -5.0746 Cl  0  0  0  0  0  0  0  0  0  0  0  0
   -1.1475    3.4324   -3.0205 C   0  0  0  0  0  0  0  0  0  0  0  0
   -2.3686    4.4395   -4.0535 Si  0  0  0  0  0  4  0  0  0  0  0  0
   -3.6934    5.0377   -2.8121 C   0  0  0  0  0  0  0  0  0  0  0  0
   -4.7957    5.8811   -3.4424 C   0  0  0  0  0  0  0  0  0  0  0  0
   -1.4125    5.9121   -4.8156 C   0  0  0  0  0  0  0  0  0  0  0  0
   -0.6147    6.7075   -3.7854 C   0  0  0  0  0  0  0  0  0  0  0  0
   -3.1170    3.2990   -5.3963 C   0  0  0  0  0  0  0  0  0  0  0  0
   -3.6422    4.0524   -6.6144 C   0  0  0  0  0  0  0  0  0  0  0  0
   -1.3311    3.2047   -1.3157 S   0  0  0  0  0  0  0  0  0  0  0  0
   -0.1717    1.0510    0.9274 C   0  0  0  0  0  0  0  0  0  0  0  0
    0.3255    0.3470    2.0507 C   0  0  0  0  0  0  0  0  0  0  0  0
    1.6859    0.4465    2.3961 C   0  0  0  0  0  0  0  0  0  0  0  0
    2.2698   -0.2258    3.5406 C   0  0  0  0  0  0  0  0  0  0  0  0
    1.9140   -1.8806    3.9317 S   0  0  0  0  0  0  0  0  0  0  0  0
    3.0169   -1.8992    5.2602 C   0  0  0  0  0  0  0  0  0  0  0  0
    3.2781   -3.4474    6.3175 Si  0  0  0  0  0  4  0  0  0  0  0  0
    2.2919   -4.8685    5.4980 C   0  0  0  0  0  0  0  0  0  0  0  0
    0.7777   -4.7773    5.6572 C   0  0  0  0  0  0  0  0  0  0  0  0
    2.6859   -3.0621    8.0979 C   0  0  0  0  0  0  0  0  0  0  0  0
    1.5114   -2.0889    8.1664 C   0  0  0  0  0  0  0  0  0  0  0  0
    5.1406   -3.8762    6.2849 C   0  0  0  0  0  0  0  0  0  0  0  0
    5.4897   -5.0513    7.1911 C   0  0  0  0  0  0  0  0  0  0  0  0
    3.5972   -0.6680    5.3741 C   0  0  0  0  0  0  0  0  0  0  0  0
    3.1981    0.2781    4.4103 C   0  0  0  0  0  0  0  0  0  0  0  0
    4.7286   -0.2963    6.6108 Cl  0  0  0  0  0  0  0  0  0  0  0  0
    2.4846    1.2198    1.5577 C   0  0  0  0  0  0  0  0  0  0  0  0
    4.2031    1.4543    1.7249 S   0  0  0  0  0  0  0  0  0  0  0  0
   -0.6862   -0.4405    2.6612 C   0  0  0  0  0  0  0  0  0  0  0  0
   -1.8948   -0.3473    2.0477 C   0  0  0  0  0  0  0  0  0  0  0  0
   -1.8778    0.7955    0.7155 S   0  0  0  0  0  0  0  0  0  0  0  0
   -3.0573   -1.1648    2.2564 C   0  0  0  0  0  0  0  0  0  0  0  0
   -3.0934   -2.5484    2.2297 C   0  0  0  0  0  0  0  0  0  0  0  0
   -2.0026   -3.3810    2.0320 N   0  0  0  0  0  0  0  0  0  0  0  0
   -1.9808   -4.6007    2.7196 C   0  0  0  0  0  0  0  0  0  0  0  0
   -2.4546   -4.6661    4.0289 C   0  0  0  0  0  0  0  0  0  0  0  0
   -2.5305   -5.8789    4.6811 C   0  0  0  0  0  0  0  0  0  0  0  0
   -2.1234   -7.0346    4.0346 C   0  0  0  0  0  0  0  0  0  0  0  0
   -2.3224   -8.6061    4.8458 S   0  0  0  0  0  0  0  0  0  0  0  0
   -3.5504   -9.3158    3.7024 C   0  0  0  0  0  0  0  0  0  0  0  0
   -1.5955   -6.9700    2.7531 C   0  0  0  0  0  0  0  0  0  0  0  0
   -1.5277   -5.7605    2.0946 C   0  0  0  0  0  0  0  0  0  0  0  0
   -0.9620   -3.0059    1.1749 C   0  0  0  0  0  0  0  0  0  0  0  0
    0.3582   -3.3092    1.4923 C   0  0  0  0  0  0  0  0  0  0  0  0
    1.3989   -2.8132    0.7308 C   0  0  0  0  0  0  0  0  0  0  0  0
    1.1354   -1.9994   -0.3613 C   0  0  0  0  0  0  0  0  0  0  0  0
    2.3807   -1.1958   -1.3213 S   0  0  0  0  0  0  0  0  0  0  0  0
    3.9129   -1.5311   -0.4093 C   0  0  0  0  0  0  0  0  0  0  0  0
   -0.1859   -1.7735   -0.7400 C   0  0  0  0  0  0  0  0  0  0  0  0
   -1.2225   -2.2796    0.0111 C   0  0  0  0  0  0  0  0  0  0  0  0
   -4.4223   -3.0279    2.3583 C   0  0  0  0  0  0  0  0  0  0  0  0
   -5.1105   -4.6100    2.4292 S   0  0  0  0  0  0  0  0  0  0  0  0
   -6.7288   -3.9071    2.4797 C   0  0  0  0  0  0  0  0  0  0  0  0
   -6.6958   -2.4912    2.5585 C   0  0  0  0  0  0  0  0  0  0  0  0
   -7.7819   -1.6823    2.7534 N   0  0  0  0  0  0  0  0  0  0  0  0
   -7.7342   -0.3487    2.3069 C   0  0  0  0  0  0  0  0  0  0  0  0
   -7.2473   -0.0490    1.0381 C   0  0  0  0  0  0  0  0  0  0  0  0
   -7.1450    1.2623    0.6179 C   0  0  0  0  0  0  0  0  0  0  0  0
   -7.5349    2.2930    1.4628 C   0  0  0  0  0  0  0  0  0  0  0  0
   -7.4002    3.9986    1.0418 S   0  0  0  0  0  0  0  0  0  0  0  0
   -6.1684    3.9947   -0.2932 C   0  0  0  0  0  0  0  0  0  0  0  0
   -8.0743    1.9917    2.7126 C   0  0  0  0  0  0  0  0  0  0  0  0
   -8.1726    0.6853    3.1332 C   0  0  0  0  0  0  0  0  0  0  0  0
   -8.9181   -2.1043    3.4701 C   0  0  0  0  0  0  0  0  0  0  0  0
   -8.7913   -2.9133    4.6013 C   0  0  0  0  0  0  0  0  0  0  0  0
   -9.9143   -3.4084    5.2220 C   0  0  0  0  0  0  0  0  0  0  0  0
  -11.1857   -3.0878    4.7443 C   0  0  0  0  0  0  0  0  0  0  0  0
  -12.5577   -3.8537    5.5450 S   0  0  0  0  0  0  0  0  0  0  0  0
  -13.8936   -3.6863    4.3274 C   0  0  0  0  0  0  0  0  0  0  0  0
  -11.3129   -2.2018    3.6838 C   0  0  0  0  0  0  0  0  0  0  0  0
  -10.1861   -1.7202    3.0456 C   0  0  0  0  0  0  0  0  0  0  0  0
   -5.3731   -2.0196    2.4494 C   0  0  0  0  0  0  0  0  0  0  0  0
   -4.6486   -0.4440    2.3834 S   0  0  0  0  0  0  0  0  0  0  0  0
   -7.9073   -4.6396    2.3472 C   0  0  0  0  0  0  0  0  0  0  0  0
   -8.1392   -5.9942    2.4002 C   0  0  0  0  0  0  0  0  0  0  0  0
   -7.1662   -7.0424    2.7157 C   0  0  0  0  0  0  0  0  0  0  0  0
   -5.9554   -6.9288    2.8270 O   0  0  0  0  0  0  0  0  0  0  0  0
   -7.9433   -8.2851    2.8887 C   0  0  0  0  0  0  0  0  0  0  0  0
   -7.4581   -9.5512    3.2083 C   0  0  0  0  0  0  0  0  0  0  0  0
   -8.4304  -10.5188    3.2992 C   0  0  0  0  0  0  0  0  0  0  0  0
   -9.7876  -10.2524    3.0811 C   0  0  0  0  0  0  0  0  0  0  0  0
  -10.2805   -9.0096    2.7597 C   0  0  0  0  0  0  0  0  0  0  0  0
   -9.3086   -8.0099    2.6705 C   0  0  0  0  0  0  0  0  0  0  0  0
   -9.4483   -6.5969    2.3268 C   0  0  0  0  0  0  0  0  0  0  0  0
  -10.6265   -5.9776    1.9841 C   0  0  0  0  0  0  0  0  0  0  0  0
  -11.9028   -6.5675    2.0670 C   0  0  0  0  0  0  0  0  0  0  0  0
  -12.9853   -6.9466    2.1390 N   0  0  0  0  0  0  0  0  0  0  0  0
  -10.7488   -4.6709    1.4774 C   0  0  0  0  0  0  0  0  0  0  0  0
  -10.9521   -3.6354    1.0190 N   0  0  0  0  0  0  0  0  0  0  0  0
  -10.1931  -11.6828    3.3358 C   0  0  0  0  0  0  0  0  0  0  0  0
  -10.8301  -11.9851    4.7085 C   0  0  0  0  0  0  0  0  0  0  0  0
  -10.6732  -13.4810    4.8584 C   0  0  0  0  0  0  0  0  0  0  0  0
   -9.3875  -13.7328    5.0687 C   0  0  0  0  0  0  0  0  0  0  0  0
   -8.6537  -12.4111    5.0643 C   0  0  0  0  0  0  0  0  0  0  0  0
   -9.7349  -11.5071    5.6705 C   0  0  0  0  0  0  0  0  0  0  0  0
   -8.6790  -11.9799    3.5823 C   0  0  0  0  0  0  0  0  0  0  0  0
   12.5590    5.8974   -4.7083 H   0  0  0  0  0  0  0  0  0  0  0  0
    8.4752    9.5173   -7.7252 H   0  0  0  0  0  0  0  0  0  0  0  0
   13.3652    9.1004   -8.9783 H   0  0  0  0  0  0  0  0  0  0  0  0
   12.0646   12.0593  -10.1438 H   0  0  0  0  0  0  0  0  0  0  0  0
   12.3106   10.9184  -12.3434 H   0  0  0  0  0  0  0  0  0  0  0  0
   11.3139    8.5192  -12.0532 H   0  0  0  0  0  0  0  0  0  0  0  0
    8.7422    8.7563  -11.4310 H   0  0  0  0  0  0  0  0  0  0  0  0
    8.1540   11.3033  -11.3392 H   0  0  0  0  0  0  0  0  0  0  0  0
    9.9065   11.4524  -13.3185 H   0  0  0  0  0  0  0  0  0  0  0  0
   10.3120   12.7090  -12.1226 H   0  0  0  0  0  0  0  0  0  0  0  0
    9.5647   12.2941   -9.5421 H   0  0  0  0  0  0  0  0  0  0  0  0
    8.9023    5.3242   -5.2233 H   0  0  0  0  0  0  0  0  0  0  0  0
    5.3071    4.6132   -4.0420 H   0  0  0  0  0  0  0  0  0  0  0  0
    6.6513    5.2524   -4.9997 H   0  0  0  0  0  0  0  0  0  0  0  0
    6.0150    2.2777   -4.6107 H   0  0  0  0  0  0  0  0  0  0  0  0
    5.6782    3.2155   -6.0700 H   0  0  0  0  0  0  0  0  0  0  0  0
    7.3482    2.9173   -5.5742 H   0  0  0  0  0  0  0  0  0  0  0  0
   10.7907    4.5542   -0.6743 H   0  0  0  0  0  0  0  0  0  0  0  0
   12.1833    5.5003   -2.4694 H   0  0  0  0  0  0  0  0  0  0  0  0
    8.7046    3.4893    0.8349 H   0  0  0  0  0  0  0  0  0  0  0  0
    6.5391    2.6115    1.6178 H   0  0  0  0  0  0  0  0  0  0  0  0
    4.7827    3.2710   -2.2325 H   0  0  0  0  0  0  0  0  0  0  0  0
    2.8418    3.0918   -1.2046 H   0  0  0  0  0  0  0  0  0  0  0  0
    1.6364    1.6116   -2.6031 H   0  0  0  0  0  0  0  0  0  0  0  0
   -4.1425    4.1718   -2.3235 H   0  0  0  0  0  0  0  0  0  0  0  0
   -3.2126    5.6143   -2.0206 H   0  0  0  0  0  0  0  0  0  0  0  0
   -5.5005    6.2305   -2.6897 H   0  0  0  0  0  0  0  0  0  0  0  0
   -4.3767    6.7517   -3.9405 H   0  0  0  0  0  0  0  0  0  0  0  0
   -5.3485    5.3016   -4.1772 H   0  0  0  0  0  0  0  0  0  0  0  0
   -2.1127    6.5810   -5.3172 H   0  0  0  0  0  0  0  0  0  0  0  0
   -0.7297    5.5492   -5.5844 H   0  0  0  0  0  0  0  0  0  0  0  0
    0.1118    6.0679   -3.2893 H   0  0  0  0  0  0  0  0  0  0  0  0
   -0.0792    7.5267   -4.2617 H   0  0  0  0  0  0  0  0  0  0  0  0
   -1.2711    7.1257   -3.0264 H   0  0  0  0  0  0  0  0  0  0  0  0
   -3.9297    2.7139   -4.9630 H   0  0  0  0  0  0  0  0  0  0  0  0
   -2.3675    2.5809   -5.7295 H   0  0  0  0  0  0  0  0  0  0  0  0
   -4.4086    4.7684   -6.3296 H   0  0  0  0  0  0  0  0  0  0  0  0
   -4.0741    3.3614   -7.3362 H   0  0  0  0  0  0  0  0  0  0  0  0
   -2.8379    4.5950   -7.1038 H   0  0  0  0  0  0  0  0  0  0  0  0
    2.6239   -5.8191    5.9166 H   0  0  0  0  0  0  0  0  0  0  0  0
    2.5309   -4.9033    4.4333 H   0  0  0  0  0  0  0  0  0  0  0  0
    0.3980   -3.8526    5.2282 H   0  0  0  0  0  0  0  0  0  0  0  0
    0.4992   -4.8086    6.7070 H   0  0  0  0  0  0  0  0  0  0  0  0
    0.2864   -5.6084    5.1543 H   0  0  0  0  0  0  0  0  0  0  0  0
    3.5151   -2.6460    8.6719 H   0  0  0  0  0  0  0  0  0  0  0  0
    2.4055   -3.9931    8.5928 H   0  0  0  0  0  0  0  0  0  0  0  0
    1.7872   -1.1281    7.7386 H   0  0  0  0  0  0  0  0  0  0  0  0
    0.6560   -2.4710    7.6154 H   0  0  0  0  0  0  0  0  0  0  0  0
    1.2083   -1.9265    9.1991 H   0  0  0  0  0  0  0  0  0  0  0  0
    5.7267   -3.0111    6.5924 H   0  0  0  0  0  0  0  0  0  0  0  0
    5.4490   -4.1104    5.2651 H   0  0  0  0  0  0  0  0  0  0  0  0
    6.5570   -5.2618    7.1563 H   0  0  0  0  0  0  0  0  0  0  0  0
    4.9576   -5.9477    6.8830 H   0  0  0  0  0  0  0  0  0  0  0  0
    5.2198   -4.8335    8.2212 H   0  0  0  0  0  0  0  0  0  0  0  0
    3.5597    1.2895    4.3895 H   0  0  0  0  0  0  0  0  0  0  0  0
   -0.5200   -1.0684    3.5169 H   0  0  0  0  0  0  0  0  0  0  0  0
   -2.7762   -3.7625    4.5255 H   0  0  0  0  0  0  0  0  0  0  0  0
   -2.9132   -5.9383    5.6879 H   0  0  0  0  0  0  0  0  0  0  0  0
   -4.3009   -8.5580    3.4942 H   0  0  0  0  0  0  0  0  0  0  0  0
   -3.0649   -9.6371    2.7852 H   0  0  0  0  0  0  0  0  0  0  0  0
   -3.9860  -10.1699    4.2116 H   0  0  0  0  0  0  0  0  0  0  0  0
   -1.2564   -7.8707    2.2643 H   0  0  0  0  0  0  0  0  0  0  0  0
   -1.1437   -5.7075    1.0868 H   0  0  0  0  0  0  0  0  0  0  0  0
    0.5719   -3.9131    2.3606 H   0  0  0  0  0  0  0  0  0  0  0  0
    2.4095   -3.0499    1.0205 H   0  0  0  0  0  0  0  0  0  0  0  0
    3.7998   -1.2242    0.6261 H   0  0  0  0  0  0  0  0  0  0  0  0
    4.6801   -0.9312   -0.8895 H   0  0  0  0  0  0  0  0  0  0  0  0
    4.1693   -2.5840   -0.4827 H   0  0  0  0  0  0  0  0  0  0  0  0
   -0.3876   -1.1809   -1.6196 H   0  0  0  0  0  0  0  0  0  0  0  0
   -2.2436   -2.0922   -0.2860 H   0  0  0  0  0  0  0  0  0  0  0  0
   -6.9508   -0.8502    0.3774 H   0  0  0  0  0  0  0  0  0  0  0  0
   -6.7635    1.4664   -0.3692 H   0  0  0  0  0  0  0  0  0  0  0  0
   -6.6129    3.6389   -1.2183 H   0  0  0  0  0  0  0  0  0  0  0  0
   -5.3194    3.3848    0.0010 H   0  0  0  0  0  0  0  0  0  0  0  0
   -5.8596    5.0285   -0.4091 H   0  0  0  0  0  0  0  0  0  0  0  0
   -8.3948    2.7977    3.3541 H   0  0  0  0  0  0  0  0  0  0  0  0
   -8.5689    0.4557    4.1108 H   0  0  0  0  0  0  0  0  0  0  0  0
   -7.8098   -3.1753    4.9669 H   0  0  0  0  0  0  0  0  0  0  0  0
   -9.8240   -4.0570    6.0797 H   0  0  0  0  0  0  0  0  0  0  0  0
  -14.2561   -2.6628    4.3006 H   0  0  0  0  0  0  0  0  0  0  0  0
  -14.6843   -4.3481    4.6667 H   0  0  0  0  0  0  0  0  0  0  0  0
  -13.5382   -4.0066    3.3525 H   0  0  0  0  0  0  0  0  0  0  0  0
  -12.2823   -1.9029    3.3216 H   0  0  0  0  0  0  0  0  0  0  0  0
  -10.2910   -1.0672    2.1935 H   0  0  0  0  0  0  0  0  0  0  0  0
   -8.7864   -4.0274    2.1953 H   0  0  0  0  0  0  0  0  0  0  0  0
   -6.4042   -9.7238    3.3576 H   0  0  0  0  0  0  0  0  0  0  0  0
  -11.3268   -8.8187    2.5882 H   0  0  0  0  0  0  0  0  0  0  0  0
  -10.6954  -12.1872    2.5125 H   0  0  0  0  0  0  0  0  0  0  0  0
  -11.8293  -11.5809    4.8452 H   0  0  0  0  0  0  0  0  0  0  0  0
  -11.4781  -14.1832    4.7442 H   0  0  0  0  0  0  0  0  0  0  0  0
   -8.9040  -14.6872    5.1653 H   0  0  0  0  0  0  0  0  0  0  0  0
   -7.6705  -12.3960    5.5270 H   0  0  0  0  0  0  0  0  0  0  0  0
   -9.9546  -11.7655    6.7051 H   0  0  0  0  0  0  0  0  0  0  0  0
   -9.5155  -10.4435    5.5997 H   0  0  0  0  0  0  0  0  0  0  0  0
   -8.1730  -12.6850    2.9251 H   0  0  0  0  0  0  0  0  0  0  0  0
  1  2  2  0  0  0  0
  2  3  1  0  0  0  0
  3  4  2  0  0  0  0
  3  5  1  0  0  0  0
  5  6  2  0  0  0  0
  6  7  1  0  0  0  0
  7  8  2  0  0  0  0
  8  9  1  0  0  0  0
  9 10  2  0  0  0  0
 10 11  1  0  0  0  0
 11 12  2  0  0  0  0
 12 13  1  0  0  0  0
 13 14  3  0  0  0  0
 12 15  1  0  0  0  0
 15 16  3  0  0  0  0
  8 17  1  0  0  0  0
 17 18  1  0  0  0  0
 18 19  1  0  0  0  0
 19 20  2  0  0  0  0
 20 21  1  0  0  0  0
 21 22  1  0  0  0  0
 21 23  1  0  0  0  0
  1 24  1  0  0  0  0
 24 25  2  0  0  0  0
 25 26  1  0  0  0  0
 26 27  1  0  0  0  0
 27 28  1  0  0  0  0
 28 29  1  0  0  0  0
 27 30  1  0  0  0  0
 30 31  2  0  0  0  0
 31 32  1  0  0  0  0
 32 33  1  0  0  0  0
 33 34  2  0  0  0  0
 31 35  1  0  0  0  0
 35 36  2  0  0  0  0
 36 37  1  0  0  0  0
 37 38  2  0  0  0  0
 37 39  1  0  0  0  0
 39 40  2  0  0  0  0
 40 41  1  0  0  0  0
 41 42  2  0  0  0  0
 42 43  1  0  0  0  0
 43 44  2  0  0  0  0
 44 45  1  0  0  0  0
 45 46  1  0  0  0  0
 45 47  2  0  0  0  0
 47 48  1  0  0  0  0
 48 49  1  0  0  0  0
 49 50  1  0  0  0  0
 48 51  1  0  0  0  0
 51 52  1  0  0  0  0
 48 53  1  0  0  0  0
 53 54  1  0  0  0  0
 47 55  1  0  0  0  0
 42 56  1  0  0  0  0
 56 57  2  0  0  0  0
 57 58  1  0  0  0  0
 58 59  1  0  0  0  0
 59 60  1  0  0  0  0
 60 61  1  0  0  0  0
 61 62  1  0  0  0  0
 62 63  1  0  0  0  0
 63 64  1  0  0  0  0
 62 65  1  0  0  0  0
 65 66  1  0  0  0  0
 62 67  1  0  0  0  0
 67 68  1  0  0  0  0
 61 69  2  0  0  0  0
 69 70  1  0  0  0  0
 69 71  1  0  0  0  0
 58 72  2  0  0  0  0
 72 73  1  0  0  0  0
 57 74  1  0  0  0  0
 74 75  2  0  0  0  0
 75 76  1  0  0  0  0
 75 77  1  0  0  0  0
 77 78  2  0  0  0  0
 78 79  1  0  0  0  0
 79 80  1  0  0  0  0
 80 81  2  0  0  0  0
 81 82  1  0  0  0  0
 82 83  2  0  0  0  0
 83 84  1  0  0  0  0
 84 85  1  0  0  0  0
 83 86  1  0  0  0  0
 86 87  2  0  0  0  0
 79 88  1  0  0  0  0
 88 89  2  0  0  0  0
 89 90  1  0  0  0  0
 90 91  2  0  0  0  0
 91 92  1  0  0  0  0
 92 93  1  0  0  0  0
 91 94  1  0  0  0  0
 94 95  2  0  0  0  0
 78 96  1  0  0  0  0
 96 97  1  0  0  0  0
 97 98  1  0  0  0  0
 98 99  2  0  0  0  0
 99100  1  0  0  0  0
100101  1  0  0  0  0
101102  2  0  0  0  0
102103  1  0  0  0  0
103104  2  0  0  0  0
104105  1  0  0  0  0
105106  1  0  0  0  0
104107  1  0  0  0  0
107108  2  0  0  0  0
100109  1  0  0  0  0
109110  2  0  0  0  0
110111  1  0  0  0  0
111112  2  0  0  0  0
112113  1  0  0  0  0
113114  1  0  0  0  0
112115  1  0  0  0  0
115116  2  0  0  0  0
 99117  1  0  0  0  0
117118  1  0  0  0  0
 98119  1  0  0  0  0
119120  2  0  0  0  0
120121  1  0  0  0  0
121122  2  0  0  0  0
121123  1  0  0  0  0
123124  2  0  0  0  0
124125  1  0  0  0  0
125126  2  0  0  0  0
126127  1  0  0  0  0
127128  2  0  0  0  0
128129  1  0  0  0  0
129130  2  0  0  0  0
130131  1  0  0  0  0
131132  3  0  0  0  0
130133  1  0  0  0  0
133134  3  0  0  0  0
126135  1  0  0  0  0
135136  1  0  0  0  0
136137  1  0  0  0  0
137138  2  0  0  0  0
138139  1  0  0  0  0
139140  1  0  0  0  0
139141  1  0  0  0  0
 11  2  1  0  0  0  0
 23 17  1  0  0  0  0
 34 24  1  0  0  0  0
 73 39  1  0  0  0  0
118 77  1  0  0  0  0
129120  1  0  0  0  0
141135  1  0  0  0  0
 10  5  1  0  0  0  0
 22 18  1  0  0  0  0
 32 26  2  0  0  0  0
 72 41  1  0  0  0  0
 87 80  1  0  0  0  0
 95 88  1  0  0  0  0
117 96  2  0  0  0  0
128123  1  0  0  0  0
140136  1  0  0  0  0
 23  7  1  0  0  0  0
 38 30  1  0  0  0  0
 55 43  1  0  0  0  0
 76 56  1  0  0  0  0
108101  1  0  0  0  0
116109  1  0  0  0  0
141125  1  0  0  0  0
 70 59  2  0  0  0  0
  1142  1  0  0  0  0
  6143  1  0  0  0  0
  9144  1  0  0  0  0
 17145  1  0  0  0  0
 18146  1  0  0  0  0
 19147  1  0  0  0  0
 20148  1  0  0  0  0
 21149  1  0  0  0  0
 22150  1  0  0  0  0
 22151  1  0  0  0  0
 23152  1  0  0  0  0
 25153  1  0  0  0  0
 28154  1  0  0  0  0
 28155  1  0  0  0  0
 29156  1  0  0  0  0
 29157  1  0  0  0  0
 29158  1  0  0  0  0
 33159  1  0  0  0  0
 34160  1  0  0  0  0
 35161  1  0  0  0  0
 36162  1  0  0  0  0
 38163  1  0  0  0  0
 40164  1  0  0  0  0
 44165  1  0  0  0  0
 49166  1  0  0  0  0
 49167  1  0  0  0  0
 50168  1  0  0  0  0
 50169  1  0  0  0  0
 50170  1  0  0  0  0
 51171  1  0  0  0  0
 51172  1  0  0  0  0
 52173  1  0  0  0  0
 52174  1  0  0  0  0
 52175  1  0  0  0  0
 53176  1  0  0  0  0
 53177  1  0  0  0  0
 54178  1  0  0  0  0
 54179  1  0  0  0  0
 54180  1  0  0  0  0
 63181  1  0  0  0  0
 63182  1  0  0  0  0
 64183  1  0  0  0  0
 64184  1  0  0  0  0
 64185  1  0  0  0  0
 65186  1  0  0  0  0
 65187  1  0  0  0  0
 66188  1  0  0  0  0
 66189  1  0  0  0  0
 66190  1  0  0  0  0
 67191  1  0  0  0  0
 67192  1  0  0  0  0
 68193  1  0  0  0  0
 68194  1  0  0  0  0
 68195  1  0  0  0  0
 70196  1  0  0  0  0
 74197  1  0  0  0  0
 81198  1  0  0  0  0
 82199  1  0  0  0  0
 85200  1  0  0  0  0
 85201  1  0  0  0  0
 85202  1  0  0  0  0
 86203  1  0  0  0  0
 87204  1  0  0  0  0
 89205  1  0  0  0  0
 90206  1  0  0  0  0
 93207  1  0  0  0  0
 93208  1  0  0  0  0
 93209  1  0  0  0  0
 94210  1  0  0  0  0
 95211  1  0  0  0  0
102212  1  0  0  0  0
103213  1  0  0  0  0
106214  1  0  0  0  0
106215  1  0  0  0  0
106216  1  0  0  0  0
107217  1  0  0  0  0
108218  1  0  0  0  0
110219  1  0  0  0  0
111220  1  0  0  0  0
114221  1  0  0  0  0
114222  1  0  0  0  0
114223  1  0  0  0  0
115224  1  0  0  0  0
116225  1  0  0  0  0
119226  1  0  0  0  0
124227  1  0  0  0  0
127228  1  0  0  0  0
135229  1  0  0  0  0
136230  1  0  0  0  0
137231  1  0  0  0  0
138232  1  0  0  0  0
139233  1  0  0  0  0
140234  1  0  0  0  0
140235  1  0  0  0  0
141236  1  0  0  0  0
M  END
