
  xtb     02152208543D
 energy: -351.964048426834 gnorm: 0.000502460009 xtb: 6.4.1 (unknown)
199220  0     0  0            999 V2000
   -8.0040   -7.4649   -3.7131 C   0  0  0  0  0  0  0  0  0  0  0  0
   -8.0804   -8.4935   -4.5946 C   0  0  0  0  0  0  0  0  0  0  0  0
   -7.0553   -8.8552   -5.6140 C   0  0  0  0  0  0  0  0  0  0  0  0
   -6.1021   -8.2086   -5.9868 O   0  0  0  0  0  0  0  0  0  0  0  0
   -7.3848  -10.2320   -6.0309 C   0  0  0  0  0  0  0  0  0  0  0  0
   -6.6597  -11.0229   -6.9199 C   0  0  0  0  0  0  0  0  0  0  0  0
   -7.1842  -12.2782   -7.1087 C   0  0  0  0  0  0  0  0  0  0  0  0
   -8.3447  -12.7199   -6.4573 C   0  0  0  0  0  0  0  0  0  0  0  0
   -9.0723  -11.9497   -5.5827 C   0  0  0  0  0  0  0  0  0  0  0  0
   -8.5561  -10.6656   -5.3784 C   0  0  0  0  0  0  0  0  0  0  0  0
   -9.0423   -9.5844   -4.5311 C   0  0  0  0  0  0  0  0  0  0  0  0
  -10.2364   -9.5621   -3.8610 C   0  0  0  0  0  0  0  0  0  0  0  0
  -11.1629  -10.6257   -3.8445 C   0  0  0  0  0  0  0  0  0  0  0  0
  -11.9556  -11.4540   -3.7833 N   0  0  0  0  0  0  0  0  0  0  0  0
  -10.7271   -8.4621   -3.1253 C   0  0  0  0  0  0  0  0  0  0  0  0
  -11.2016   -7.6077   -2.5218 N   0  0  0  0  0  0  0  0  0  0  0  0
   -8.2777  -14.0853   -7.0935 C   0  0  0  0  0  0  0  0  0  0  0  0
   -7.7531  -15.2581   -6.2283 C   0  0  0  0  0  0  0  0  0  0  0  0
   -6.8372  -14.6530   -5.1934 C   0  0  0  0  0  0  0  0  0  0  0  0
   -5.7425  -14.2360   -5.8154 C   0  0  0  0  0  0  0  0  0  0  0  0
   -5.8991  -14.5501   -7.2828 C   0  0  0  0  0  0  0  0  0  0  0  0
   -6.7154  -15.8496   -7.1957 C   0  0  0  0  0  0  0  0  0  0  0  0
   -6.9890  -13.5917   -7.8238 C   0  0  0  0  0  0  0  0  0  0  0  0
   -7.1086   -6.3375   -3.7515 C   0  0  0  0  0  0  0  0  0  0  0  0
   -6.6396   -5.8350   -2.5325 C   0  0  0  0  0  0  0  0  0  0  0  0
   -5.7423   -4.7857   -2.5541 C   0  0  0  0  0  0  0  0  0  0  0  0
   -5.1062   -4.1493   -1.5131 N   0  0  0  0  0  0  0  0  0  0  0  0
   -5.2878   -4.4292   -0.1133 C   0  0  0  0  0  0  0  0  0  0  0  0
   -6.4198   -3.5971    0.4883 C   0  0  0  0  0  0  0  0  0  0  0  0
   -4.3280   -3.1428   -2.0303 C   0  0  0  0  0  0  0  0  0  0  0  0
   -4.4341   -3.1430   -3.4440 C   0  0  0  0  0  0  0  0  0  0  0  0
   -5.3453   -4.1898   -3.7814 C   0  0  0  0  0  0  0  0  0  0  0  0
   -5.8770   -4.6496   -4.9814 C   0  0  0  0  0  0  0  0  0  0  0  0
   -6.7424   -5.7177   -4.9605 C   0  0  0  0  0  0  0  0  0  0  0  0
   -3.7051   -2.2280   -4.1958 C   0  0  0  0  0  0  0  0  0  0  0  0
   -2.9324   -1.3001   -3.5402 C   0  0  0  0  0  0  0  0  0  0  0  0
   -2.8839   -1.2535   -2.1358 C   0  0  0  0  0  0  0  0  0  0  0  0
   -3.5542   -2.2022   -1.3724 C   0  0  0  0  0  0  0  0  0  0  0  0
   -2.1573   -0.1817   -1.4786 C   0  0  0  0  0  0  0  0  0  0  0  0
   -2.1777    1.1661   -1.7855 C   0  0  0  0  0  0  0  0  0  0  0  0
   -2.9866    1.7625   -2.7424 N   0  0  0  0  0  0  0  0  0  0  0  0
   -2.5048    2.8749   -3.4446 C   0  0  0  0  0  0  0  0  0  0  0  0
   -3.3629    3.9193   -3.7773 C   0  0  0  0  0  0  0  0  0  0  0  0
   -2.8960    5.0274   -4.4559 C   0  0  0  0  0  0  0  0  0  0  0  0
   -1.5553    5.1139   -4.8082 C   0  0  0  0  0  0  0  0  0  0  0  0
   -0.8380    6.4807   -5.6646 S   0  0  0  0  0  0  0  0  0  0  0  0
   -2.2306    7.6135   -5.9320 C   0  0  0  0  0  0  0  0  0  0  0  0
   -0.6940    4.0685   -4.4830 C   0  0  0  0  0  0  0  0  0  0  0  0
   -1.1619    2.9593   -3.8150 C   0  0  0  0  0  0  0  0  0  0  0  0
   -4.2282    1.2020   -3.0716 C   0  0  0  0  0  0  0  0  0  0  0  0
   -5.0367    0.6328   -2.0911 C   0  0  0  0  0  0  0  0  0  0  0  0
   -6.1808   -0.0600   -2.4328 C   0  0  0  0  0  0  0  0  0  0  0  0
   -6.5462   -0.1847   -3.7660 C   0  0  0  0  0  0  0  0  0  0  0  0
   -7.9258   -1.1325   -4.3272 S   0  0  0  0  0  0  0  0  0  0  0  0
   -8.3523   -2.1543   -2.8897 C   0  0  0  0  0  0  0  0  0  0  0  0
   -5.7938    0.4658   -4.7411 C   0  0  0  0  0  0  0  0  0  0  0  0
   -4.6492    1.1498   -4.4013 C   0  0  0  0  0  0  0  0  0  0  0  0
   -1.3042    1.8921   -0.9305 C   0  0  0  0  0  0  0  0  0  0  0  0
   -0.7926    3.5461   -0.8305 S   0  0  0  0  0  0  0  0  0  0  0  0
    0.2427    3.1562    0.5239 C   0  0  0  0  0  0  0  0  0  0  0  0
    0.2267    1.8142    0.8444 C   0  0  0  0  0  0  0  0  0  0  0  0
    1.0620    1.2379    1.8003 N   0  0  0  0  0  0  0  0  0  0  0  0
    0.4954    0.4370    2.7900 C   0  0  0  0  0  0  0  0  0  0  0  0
   -0.8276    0.6486    3.1855 C   0  0  0  0  0  0  0  0  0  0  0  0
   -1.4002   -0.1391    4.1575 C   0  0  0  0  0  0  0  0  0  0  0  0
   -0.6671   -1.1543    4.7674 C   0  0  0  0  0  0  0  0  0  0  0  0
   -1.5077   -2.0961    6.0040 S   0  0  0  0  0  0  0  0  0  0  0  0
   -0.2068   -3.1422    6.7163 C   0  0  0  0  0  0  0  0  0  0  0  0
    0.6455   -1.3750    4.3737 C   0  0  0  0  0  0  0  0  0  0  0  0
    1.2177   -0.5906    3.3914 C   0  0  0  0  0  0  0  0  0  0  0  0
    2.4335    1.5235    1.7418 C   0  0  0  0  0  0  0  0  0  0  0  0
    3.0659    1.6396    0.5025 C   0  0  0  0  0  0  0  0  0  0  0  0
    4.4023    1.9635    0.4245 C   0  0  0  0  0  0  0  0  0  0  0  0
    5.1448    2.1802    1.5819 C   0  0  0  0  0  0  0  0  0  0  0  0
    6.8510    2.5948    1.3860 S   0  0  0  0  0  0  0  0  0  0  0  0
    7.2733    3.3617    2.9748 C   0  0  0  0  0  0  0  0  0  0  0  0
    4.5285    2.0436    2.8180 C   0  0  0  0  0  0  0  0  0  0  0  0
    3.1886    1.7207    2.8948 C   0  0  0  0  0  0  0  0  0  0  0  0
   -0.6756    1.1042    0.0198 C   0  0  0  0  0  0  0  0  0  0  0  0
   -1.1512   -0.5491   -0.0907 S   0  0  0  0  0  0  0  0  0  0  0  0
    1.0858    4.0904    1.2248 C   0  0  0  0  0  0  0  0  0  0  0  0
    1.0661    4.2990    2.5687 C   0  0  0  0  0  0  0  0  0  0  0  0
    2.2023    4.9909    3.0534 C   0  0  0  0  0  0  0  0  0  0  0  0
    2.5100    5.3426    4.3800 C   0  0  0  0  0  0  0  0  0  0  0  0
    1.5589    5.2254    5.4774 C   0  0  0  0  0  0  0  0  0  0  0  0
    1.2324    6.6530    6.4256 S   0  0  0  0  0  0  0  0  0  0  0  0
    0.0970    5.8301    7.4357 C   0  0  0  0  0  0  0  0  0  0  0  0
   -0.6374    6.5478    8.5131 C   0  0  0  0  0  0  0  0  0  0  0  0
   -1.8003    7.3603    7.9388 C   0  0  0  0  0  0  0  0  0  0  0  0
   -0.0190    4.5300    7.0467 C   0  0  0  0  0  0  0  0  0  0  0  0
   -1.0518    3.3866    7.8060 Cl  0  0  0  0  0  0  0  0  0  0  0  0
    0.8081    4.1823    5.9428 C   0  0  0  0  0  0  0  0  0  0  0  0
    0.8547    2.5666    5.3613 Cl  0  0  0  0  0  0  0  0  0  0  0  0
    3.7702    5.8874    4.5990 C   0  0  0  0  0  0  0  0  0  0  0  0
    4.7003    6.1347    3.5557 C   0  0  0  0  0  0  0  0  0  0  0  0
    4.3269    5.9247    2.2092 C   0  0  0  0  0  0  0  0  0  0  0  0
    5.2108    6.2926    1.1245 C   0  0  0  0  0  0  0  0  0  0  0  0
    5.4938    5.2187   -0.2100 S   0  0  0  0  0  0  0  0  0  0  0  0
    6.6094    6.3017   -0.9498 C   0  0  0  0  0  0  0  0  0  0  0  0
    7.3151    5.9626   -2.2175 C   0  0  0  0  0  0  0  0  0  0  0  0
    7.0329    4.5384   -2.6742 C   0  0  0  0  0  0  0  0  0  0  0  0
    6.7264    7.4455   -0.2103 C   0  0  0  0  0  0  0  0  0  0  0  0
    5.9380    7.4468    0.9653 C   0  0  0  0  0  0  0  0  0  0  0  0
    5.8418    8.8142    1.9991 Cl  0  0  0  0  0  0  0  0  0  0  0  0
    7.7390    8.7574   -0.6558 Cl  0  0  0  0  0  0  0  0  0  0  0  0
    3.0993    5.3136    2.0017 C   0  0  0  0  0  0  0  0  0  0  0  0
    2.4646    4.8410    0.4516 S   0  0  0  0  0  0  0  0  0  0  0  0
    5.9640    6.5174    4.0445 C   0  0  0  0  0  0  0  0  0  0  0  0
    6.0229    6.6084    5.4140 C   0  0  0  0  0  0  0  0  0  0  0  0
    4.4626    6.2405    6.1515 S   0  0  0  0  0  0  0  0  0  0  0  0
    7.0714    6.9812    6.2835 C   0  0  0  0  0  0  0  0  0  0  0  0
    8.4184    7.0709    6.0592 C   0  0  0  0  0  0  0  0  0  0  0  0
    9.1824    6.5575    4.8982 C   0  0  0  0  0  0  0  0  0  0  0  0
    8.7676    6.0905    3.8568 O   0  0  0  0  0  0  0  0  0  0  0  0
   10.6045    6.6641    5.2766 C   0  0  0  0  0  0  0  0  0  0  0  0
   11.6994    6.2759    4.5596 C   0  0  0  0  0  0  0  0  0  0  0  0
   12.9839    6.4573    5.1180 C   0  0  0  0  0  0  0  0  0  0  0  0
   14.1473    6.0735    4.4234 C   0  0  0  0  0  0  0  0  0  0  0  0
   15.3776    6.2543    4.9904 C   0  0  0  0  0  0  0  0  0  0  0  0
   16.4839    5.8864    4.3294 F   0  0  0  0  0  0  0  0  0  0  0  0
   15.4979    6.8266    6.2726 C   0  0  0  0  0  0  0  0  0  0  0  0
   16.7168    6.9909    6.8036 F   0  0  0  0  0  0  0  0  0  0  0  0
   14.3872    7.2102    6.9704 C   0  0  0  0  0  0  0  0  0  0  0  0
   13.1037    7.0371    6.4143 C   0  0  0  0  0  0  0  0  0  0  0  0
   11.9499    7.4315    7.1298 C   0  0  0  0  0  0  0  0  0  0  0  0
   10.7137    7.2499    6.5668 C   0  0  0  0  0  0  0  0  0  0  0  0
    9.3699    7.5535    7.0481 C   0  0  0  0  0  0  0  0  0  0  0  0
    9.0838    8.2405    8.1991 C   0  0  0  0  0  0  0  0  0  0  0  0
    7.7989    8.6284    8.6361 C   0  0  0  0  0  0  0  0  0  0  0  0
    6.7991    9.0033    9.0592 N   0  0  0  0  0  0  0  0  0  0  0  0
   10.0632    8.6931    9.1086 C   0  0  0  0  0  0  0  0  0  0  0  0
   10.8084    9.0821    9.8904 N   0  0  0  0  0  0  0  0  0  0  0  0
   -8.6447   -7.5054   -2.8390 H   0  0  0  0  0  0  0  0  0  0  0  0
   -5.7693  -10.6439   -7.3969 H   0  0  0  0  0  0  0  0  0  0  0  0
   -9.9598  -12.3041   -5.0856 H   0  0  0  0  0  0  0  0  0  0  0  0
   -9.1328  -14.3706   -7.7030 H   0  0  0  0  0  0  0  0  0  0  0  0
   -8.5265  -15.9235   -5.8541 H   0  0  0  0  0  0  0  0  0  0  0  0
   -7.0952  -14.5431   -4.1563 H   0  0  0  0  0  0  0  0  0  0  0  0
   -4.9033  -13.7075   -5.4022 H   0  0  0  0  0  0  0  0  0  0  0  0
   -4.9846  -14.5717   -7.8696 H   0  0  0  0  0  0  0  0  0  0  0  0
   -7.1390  -16.1611   -8.1494 H   0  0  0  0  0  0  0  0  0  0  0  0
   -6.1520  -16.6719   -6.7572 H   0  0  0  0  0  0  0  0  0  0  0  0
   -7.0037  -13.5506   -8.9111 H   0  0  0  0  0  0  0  0  0  0  0  0
   -6.9524   -6.2959   -1.6069 H   0  0  0  0  0  0  0  0  0  0  0  0
   -4.3495   -4.2150    0.4055 H   0  0  0  0  0  0  0  0  0  0  0  0
   -5.5030   -5.4945    0.0019 H   0  0  0  0  0  0  0  0  0  0  0  0
   -6.5235   -3.8180    1.5470 H   0  0  0  0  0  0  0  0  0  0  0  0
   -7.3613   -3.8205   -0.0090 H   0  0  0  0  0  0  0  0  0  0  0  0
   -6.2078   -2.5364    0.3730 H   0  0  0  0  0  0  0  0  0  0  0  0
   -5.6112   -4.1734   -5.9118 H   0  0  0  0  0  0  0  0  0  0  0  0
   -7.1766   -6.0715   -5.8802 H   0  0  0  0  0  0  0  0  0  0  0  0
   -3.7522   -2.2461   -5.2732 H   0  0  0  0  0  0  0  0  0  0  0  0
   -2.3482   -0.5895   -4.1042 H   0  0  0  0  0  0  0  0  0  0  0  0
   -3.4893   -2.1667   -0.2952 H   0  0  0  0  0  0  0  0  0  0  0  0
   -4.4044    3.8600   -3.4979 H   0  0  0  0  0  0  0  0  0  0  0  0
   -3.5880    5.8187   -4.6941 H   0  0  0  0  0  0  0  0  0  0  0  0
   -2.6310    7.9428   -4.9776 H   0  0  0  0  0  0  0  0  0  0  0  0
   -2.9927    7.1305   -6.5366 H   0  0  0  0  0  0  0  0  0  0  0  0
   -1.8172    8.4611   -6.4698 H   0  0  0  0  0  0  0  0  0  0  0  0
    0.3447    4.1361   -4.7676 H   0  0  0  0  0  0  0  0  0  0  0  0
   -0.4899    2.1456   -3.5848 H   0  0  0  0  0  0  0  0  0  0  0  0
   -4.7537    0.7149   -1.0522 H   0  0  0  0  0  0  0  0  0  0  0  0
   -6.7767   -0.5029   -1.6509 H   0  0  0  0  0  0  0  0  0  0  0  0
   -8.8146   -1.5470   -2.1165 H   0  0  0  0  0  0  0  0  0  0  0  0
   -9.0626   -2.8912   -3.2518 H   0  0  0  0  0  0  0  0  0  0  0  0
   -7.4590   -2.6512   -2.5257 H   0  0  0  0  0  0  0  0  0  0  0  0
   -6.1027    0.3982   -5.7728 H   0  0  0  0  0  0  0  0  0  0  0  0
   -4.0510    1.6166   -5.1695 H   0  0  0  0  0  0  0  0  0  0  0  0
   -1.3995    1.4464    2.7347 H   0  0  0  0  0  0  0  0  0  0  0  0
   -2.4198    0.0315    4.4677 H   0  0  0  0  0  0  0  0  0  0  0  0
    0.1429   -3.8603    5.9801 H   0  0  0  0  0  0  0  0  0  0  0  0
    0.6061   -2.5210    7.0805 H   0  0  0  0  0  0  0  0  0  0  0  0
   -0.6732   -3.6642    7.5460 H   0  0  0  0  0  0  0  0  0  0  0  0
    1.2354   -2.1616    4.8163 H   0  0  0  0  0  0  0  0  0  0  0  0
    2.2345   -0.7806    3.0822 H   0  0  0  0  0  0  0  0  0  0  0  0
    2.4990    1.4805   -0.4027 H   0  0  0  0  0  0  0  0  0  0  0  0
    4.8847    2.0580   -0.5355 H   0  0  0  0  0  0  0  0  0  0  0  0
    7.4649    2.5984    3.7240 H   0  0  0  0  0  0  0  0  0  0  0  0
    8.1699    3.9497    2.8075 H   0  0  0  0  0  0  0  0  0  0  0  0
    6.4660    4.0184    3.2816 H   0  0  0  0  0  0  0  0  0  0  0  0
    5.0804    2.1891    3.7331 H   0  0  0  0  0  0  0  0  0  0  0  0
    2.7240    1.6281    3.8625 H   0  0  0  0  0  0  0  0  0  0  0  0
    0.2759    3.9353    3.1975 H   0  0  0  0  0  0  0  0  0  0  0  0
   -1.0178    5.8134    9.2250 H   0  0  0  0  0  0  0  0  0  0  0  0
    0.0490    7.2179    9.0339 H   0  0  0  0  0  0  0  0  0  0  0  0
   -2.5025    6.7061    7.4280 H   0  0  0  0  0  0  0  0  0  0  0  0
   -1.4307    8.0967    7.2291 H   0  0  0  0  0  0  0  0  0  0  0  0
   -2.3239    7.8774    8.7380 H   0  0  0  0  0  0  0  0  0  0  0  0
    7.0091    6.6726   -2.9925 H   0  0  0  0  0  0  0  0  0  0  0  0
    8.3891    6.1020   -2.0628 H   0  0  0  0  0  0  0  0  0  0  0  0
    7.3365    3.8282   -1.9083 H   0  0  0  0  0  0  0  0  0  0  0  0
    7.5792    4.3212   -3.5882 H   0  0  0  0  0  0  0  0  0  0  0  0
    5.9703    4.4057   -2.8650 H   0  0  0  0  0  0  0  0  0  0  0  0
    6.8159    6.6928    3.4164 H   0  0  0  0  0  0  0  0  0  0  0  0
    6.7333    7.2020    7.2893 H   0  0  0  0  0  0  0  0  0  0  0  0
   11.5863    5.8364    3.5802 H   0  0  0  0  0  0  0  0  0  0  0  0
   14.0717    5.6341    3.4411 H   0  0  0  0  0  0  0  0  0  0  0  0
   14.4976    7.6481    7.9501 H   0  0  0  0  0  0  0  0  0  0  0  0
   12.0756    7.8626    8.1095 H   0  0  0  0  0  0  0  0  0  0  0  0
  1  2  2  0  0  0  0
  2  3  1  0  0  0  0
  3  4  2  0  0  0  0
  3  5  1  0  0  0  0
  5  6  2  0  0  0  0
  6  7  1  0  0  0  0
  7  8  2  0  0  0  0
  8  9  1  0  0  0  0
  9 10  2  0  0  0  0
 10 11  1  0  0  0  0
 11 12  2  0  0  0  0
 12 13  1  0  0  0  0
 13 14  3  0  0  0  0
 12 15  1  0  0  0  0
 15 16  3  0  0  0  0
  8 17  1  0  0  0  0
 17 18  1  0  0  0  0
 18 19  1  0  0  0  0
 19 20  2  0  0  0  0
 20 21  1  0  0  0  0
 21 22  1  0  0  0  0
 21 23  1  0  0  0  0
  1 24  1  0  0  0  0
 24 25  2  0  0  0  0
 25 26  1  0  0  0  0
 26 27  1  0  0  0  0
 27 28  1  0  0  0  0
 28 29  1  0  0  0  0
 27 30  1  0  0  0  0
 30 31  2  0  0  0  0
 31 32  1  0  0  0  0
 32 33  1  0  0  0  0
 33 34  2  0  0  0  0
 31 35  1  0  0  0  0
 35 36  2  0  0  0  0
 36 37  1  0  0  0  0
 37 38  2  0  0  0  0
 37 39  1  0  0  0  0
 39 40  2  0  0  0  0
 40 41  1  0  0  0  0
 41 42  1  0  0  0  0
 42 43  2  0  0  0  0
 43 44  1  0  0  0  0
 44 45  2  0  0  0  0
 45 46  1  0  0  0  0
 46 47  1  0  0  0  0
 45 48  1  0  0  0  0
 48 49  2  0  0  0  0
 41 50  1  0  0  0  0
 50 51  2  0  0  0  0
 51 52  1  0  0  0  0
 52 53  2  0  0  0  0
 53 54  1  0  0  0  0
 54 55  1  0  0  0  0
 53 56  1  0  0  0  0
 56 57  2  0  0  0  0
 40 58  1  0  0  0  0
 58 59  1  0  0  0  0
 59 60  1  0  0  0  0
 60 61  2  0  0  0  0
 61 62  1  0  0  0  0
 62 63  1  0  0  0  0
 63 64  2  0  0  0  0
 64 65  1  0  0  0  0
 65 66  2  0  0  0  0
 66 67  1  0  0  0  0
 67 68  1  0  0  0  0
 66 69  1  0  0  0  0
 69 70  2  0  0  0  0
 62 71  1  0  0  0  0
 71 72  2  0  0  0  0
 72 73  1  0  0  0  0
 73 74  2  0  0  0  0
 74 75  1  0  0  0  0
 75 76  1  0  0  0  0
 74 77  1  0  0  0  0
 77 78  2  0  0  0  0
 61 79  1  0  0  0  0
 79 80  1  0  0  0  0
 60 81  1  0  0  0  0
 81 82  2  0  0  0  0
 82 83  1  0  0  0  0
 83 84  2  0  0  0  0
 84 85  1  0  0  0  0
 85 86  1  0  0  0  0
 86 87  1  0  0  0  0
 87 88  1  0  0  0  0
 88 89  1  0  0  0  0
 87 90  2  0  0  0  0
 90 91  1  0  0  0  0
 90 92  1  0  0  0  0
 92 93  1  0  0  0  0
 84 94  1  0  0  0  0
 94 95  2  0  0  0  0
 95 96  1  0  0  0  0
 96 97  1  0  0  0  0
 97 98  1  0  0  0  0
 98 99  1  0  0  0  0
 99100  1  0  0  0  0
100101  1  0  0  0  0
 99102  2  0  0  0  0
102103  1  0  0  0  0
103104  1  0  0  0  0
102105  1  0  0  0  0
 96106  2  0  0  0  0
106107  1  0  0  0  0
 95108  1  0  0  0  0
108109  2  0  0  0  0
109110  1  0  0  0  0
109111  1  0  0  0  0
111112  2  0  0  0  0
112113  1  0  0  0  0
113114  2  0  0  0  0
113115  1  0  0  0  0
115116  2  0  0  0  0
116117  1  0  0  0  0
117118  2  0  0  0  0
118119  1  0  0  0  0
119120  1  0  0  0  0
119121  2  0  0  0  0
121122  1  0  0  0  0
121123  1  0  0  0  0
123124  2  0  0  0  0
124125  1  0  0  0  0
125126  2  0  0  0  0
126127  1  0  0  0  0
127128  2  0  0  0  0
128129  1  0  0  0  0
129130  3  0  0  0  0
128131  1  0  0  0  0
131132  3  0  0  0  0
 11  2  1  0  0  0  0
 23 17  1  0  0  0  0
 34 24  1  0  0  0  0
 80 39  1  0  0  0  0
107 81  1  0  0  0  0
127112  1  0  0  0  0
 10  5  1  0  0  0  0
 22 18  1  0  0  0  0
 32 26  2  0  0  0  0
 49 42  1  0  0  0  0
 57 50  1  0  0  0  0
 79 58  2  0  0  0  0
106 83  1  0  0  0  0
126115  1  0  0  0  0
 23  7  1  0  0  0  0
 38 30  1  0  0  0  0
 70 63  1  0  0  0  0
 78 71  1  0  0  0  0
 92 85  2  0  0  0  0
110 94  1  0  0  0  0
124117  1  0  0  0  0
103 97  2  0  0  0  0
  1133  1  0  0  0  0
  6134  1  0  0  0  0
  9135  1  0  0  0  0
 17136  1  0  0  0  0
 18137  1  0  0  0  0
 19138  1  0  0  0  0
 20139  1  0  0  0  0
 21140  1  0  0  0  0
 22141  1  0  0  0  0
 22142  1  0  0  0  0
 23143  1  0  0  0  0
 25144  1  0  0  0  0
 28145  1  0  0  0  0
 28146  1  0  0  0  0
 29147  1  0  0  0  0
 29148  1  0  0  0  0
 29149  1  0  0  0  0
 33150  1  0  0  0  0
 34151  1  0  0  0  0
 35152  1  0  0  0  0
 36153  1  0  0  0  0
 38154  1  0  0  0  0
 43155  1  0  0  0  0
 44156  1  0  0  0  0
 47157  1  0  0  0  0
 47158  1  0  0  0  0
 47159  1  0  0  0  0
 48160  1  0  0  0  0
 49161  1  0  0  0  0
 51162  1  0  0  0  0
 52163  1  0  0  0  0
 55164  1  0  0  0  0
 55165  1  0  0  0  0
 55166  1  0  0  0  0
 56167  1  0  0  0  0
 57168  1  0  0  0  0
 64169  1  0  0  0  0
 65170  1  0  0  0  0
 68171  1  0  0  0  0
 68172  1  0  0  0  0
 68173  1  0  0  0  0
 69174  1  0  0  0  0
 70175  1  0  0  0  0
 72176  1  0  0  0  0
 73177  1  0  0  0  0
 76178  1  0  0  0  0
 76179  1  0  0  0  0
 76180  1  0  0  0  0
 77181  1  0  0  0  0
 78182  1  0  0  0  0
 82183  1  0  0  0  0
 88184  1  0  0  0  0
 88185  1  0  0  0  0
 89186  1  0  0  0  0
 89187  1  0  0  0  0
 89188  1  0  0  0  0
100189  1  0  0  0  0
100190  1  0  0  0  0
101191  1  0  0  0  0
101192  1  0  0  0  0
101193  1  0  0  0  0
108194  1  0  0  0  0
111195  1  0  0  0  0
116196  1  0  0  0  0
118197  1  0  0  0  0
123198  1  0  0  0  0
125199  1  0  0  0  0
M  END
