121

C         -6.97500        1.29840        3.44520
C         -6.86340        1.46570        4.79440
C         -5.70640        1.27940        5.70610
O         -4.52640        1.15820        5.44180
C         -6.26200        1.26910        7.07110
C         -5.55420        1.03970        8.24950
C         -6.32950        1.07330        9.38250
C         -7.70990        1.31600        9.34680
C         -8.41740        1.55250        8.19310
C         -7.64480        1.52700        7.02740
C         -8.02620        1.74280        5.63670
C         -9.24710        2.20510        5.22310
C         -9.61580        2.53320        3.89960
N        -10.01210        2.85340        2.86980
C        -10.33030        2.47620        6.08690
N        -11.25770        2.71280        6.72090
C         -7.85180        1.18620       10.84230
C         -8.44340       -0.13210       11.39970
C         -8.13400       -1.20470       10.38490
C         -6.82770       -1.43140       10.42060
C         -6.22990       -0.51550       11.45980
C         -7.38810       -0.45800       12.46870
C         -6.31400        0.91940       10.88270
C         -6.04800        0.99570        2.39610
C         -4.65870        0.97000        2.55370
C         -3.87650        0.63830        1.46510
N         -2.51060        0.52100        1.38900
C         -1.58760        0.77420        2.46450
C         -1.14000        2.23470        2.48560
C         -2.17680        0.17410        0.10630
C         -3.35610        0.04680       -0.67350
C         -4.44630        0.34520        0.19740
C         -5.83030        0.39760        0.03930
C         -6.60790        0.72010        1.12260
C         -3.26330       -0.31900       -2.01350
C         -2.02090       -0.55200       -2.55500
C         -0.85380       -0.42590       -1.78290
C         -0.92630       -0.05610       -0.44590
C          0.45240       -0.70210       -2.39130
C          1.41010       -1.45830       -1.74900
F          1.16400       -1.97980       -0.53170
C          2.64910       -1.76610       -2.33390
F          3.47810       -2.56920       -1.65180
C          2.98620       -1.31610       -3.59040
C          2.04580       -0.49810       -4.26760
N          2.37250        0.02500       -5.46200
C          1.49870        0.75710       -6.10400
C          1.91520        1.23300       -7.46130
C          1.52060        0.18880       -8.51000
C          0.22190        1.02730       -5.53070
N         -0.09010        0.56510       -4.34700
C          0.78640       -0.20890       -3.68240
C         -0.80610        1.90050       -6.18420
C         -0.57350        3.36450       -5.80180
C          4.26520       -1.65370       -4.21240
C          5.48360       -1.47420       -3.53210
N          5.73980       -0.95720       -2.32150
N          7.03540       -1.00300       -2.22550
C          7.71440       -0.64710       -1.01430
C          7.88270       -1.89550       -0.15220
N          7.69070       -1.48250       -3.24190
C          6.73800       -1.82270       -4.11740
C          6.82370       -2.38450       -5.40860
C          5.61140       -2.49640       -6.07230
C          4.37420       -2.16080       -5.49270
F          3.27260       -2.41830       -6.21660
F          5.59150       -3.01190       -7.31310
C          8.06090       -2.80710       -6.01350
C          9.11270       -3.36920       -5.38420
C         10.38990       -3.63490       -6.10010
O         10.62150       -3.42020       -7.26710
C         11.31210       -4.18910       -5.08370
C         12.63800       -4.56280       -5.21060
C         13.28640       -5.06810       -4.09190
C         12.62320       -5.19620       -2.87830
C         11.29190       -4.82510       -2.74870
C         10.64330       -4.31720       -3.85990
C          9.23370       -3.87410       -3.99480
O          8.36670       -3.99750       -3.15970
H         -7.99140        1.36830        3.07300
H         -4.49150        0.85500        8.22970
H         -9.47880        1.73440        8.18440
H         -8.23160        2.06330       11.36240
H         -9.47850       -0.06090       11.72240
H         -8.86560       -1.63490        9.72630
H         -6.24980       -2.08860        9.79740
H         -5.24970       -0.79350       11.83820
H         -7.56680       -1.41350       12.95930
H         -7.27300        0.32440       13.21760
H         -5.68910        1.62370       11.42860
H         -4.21850        1.20040        3.50700
H         -2.07860        0.52230        3.40740
H         -0.72400        0.11550        2.34060
H         -0.43790        2.39760        3.29850
H         -0.65800        2.49820        1.54670
H         -1.99750        2.88770        2.63000
H         -6.27830        0.18780       -0.91990
H         -7.68140        0.76430        1.01090
H         -4.15480       -0.42370       -2.61280
H         -1.92800       -0.85080       -3.58590
H         -0.02790        0.06270        0.13890
H          3.00030        1.34250       -7.46360
H          1.46000        2.19430       -7.69780
H          1.99450       -0.76180       -8.27950
H          1.84140        0.51070       -9.49740
H          0.44270        0.04030       -8.52550
H         -1.78780        1.59420       -5.82090
H         -0.77660        1.78740       -7.26760
H         -0.64010        3.47870       -4.72270
H         -1.32620        3.99640       -6.26650
H          0.40970        3.70160       -6.12360
H          8.68760       -0.23560       -1.28860
H          7.11140        0.10410       -0.50170
H          6.90920       -2.27610        0.14600
H          8.46060       -1.66090        0.73700
H          8.39580       -2.66610       -0.72260
H          8.14720       -2.66990       -7.08760
H         13.14370       -4.46360       -6.15880
H         14.32080       -5.36940       -4.16540
H         13.15190       -5.59350       -2.02430
H         10.76800       -4.92620       -1.81040
