170

C          3.82420       -4.72330        4.59870
C          3.78260       -5.98300        4.05860
C          2.89970       -6.40680        2.96930
O          1.98960       -5.76960        2.46400
C          3.30910       -7.77360        2.61270
C          2.79900       -8.55860        1.58360
C          3.41500       -9.77900        1.45070
C          4.44490      -10.19990        2.30200
C          4.94600       -9.44120        3.33360
C          4.34880       -8.18520        3.47000
C          4.63140       -7.10220        4.41250
C          5.53880       -7.16270        5.43960
C          5.80860       -6.12930        6.36020
N          6.09150       -5.34410        7.15020
C          6.33310       -8.28870        5.73960
N          7.01220       -9.16250        6.04660
C          4.59970      -11.52200        1.59150
C          5.81080      -11.68940        0.64120
C          6.17600      -10.30290        0.17250
C          5.21560       -9.88330       -0.64030
C          4.18500      -10.98170       -0.73910
C          5.09120      -12.21640       -0.61030
C          3.46470      -11.04380        0.63170
C          3.14650       -3.55910        4.21070
C          3.42250       -2.31730        4.78190
C          2.76200       -1.24930        4.19840
C          2.92420        0.11800        4.71600
C          1.84230        0.81310        5.25060
C          2.01820        2.07850        5.77740
C          3.27670        2.65530        5.79690
C          4.36190        1.95810        5.29500
C          4.18790        0.69780        4.75420
C          1.95580       -1.65510        3.12290
S          1.98570       -3.38330        2.92110
C          1.24770       -0.81390        2.22780
C          0.36510       -1.14080        1.19650
N         -0.07140       -2.40310        0.79880
C          0.78850       -3.36800        0.28230
C          2.09820       -3.04850       -0.08160
C          2.94050       -4.01940       -0.57900
C          2.49100       -5.32370       -0.74400
S          3.63350       -6.51290       -1.38310
C          2.53790       -7.70670       -2.21510
C          1.19090       -5.64870       -0.38180
C          0.35450       -4.68540        0.13580
C         -1.46470       -2.51740        0.63510
C         -2.29890       -2.09630        1.66640
C         -3.67220       -2.18760        1.54940
C         -4.23490       -2.70480        0.39030
S         -5.97220       -2.87320        0.11830
C         -6.70930       -2.46700        1.72700
C         -3.40350       -3.10680       -0.65460
C         -2.03560       -3.01130       -0.53800
C         -0.12540        0.02030        0.55260
S         -1.21510        0.27830       -0.76430
C         -0.90660        2.00740       -0.69350
C         -0.05270        2.36580        0.34280
N          0.27140        3.64330        0.75640
C         -0.50810        4.75730        0.42150
C          0.09380        5.94940        0.01390
C         -0.67320        6.98610       -0.46660
C         -2.05890        6.86570       -0.54640
S         -2.93710        8.19390       -1.30290
C         -4.51180        7.42960       -1.78770
C         -2.66880        5.73060       -0.02850
C         -1.89850        4.69400        0.45950
C          1.53260        3.85360        1.34460
C          1.64880        4.68000        2.46110
C          2.87740        4.87580        3.04920
C          4.01330        4.25040        2.53750
S          5.53500        4.58380        3.36310
C          6.68220        3.36620        2.65640
C          3.90310        3.44130        1.41560
C          2.67050        3.24780        0.82270
C          0.39570        1.21010        1.03050
S          1.49690        0.93350        2.33100
C         -1.45690        2.87130       -1.70610
C         -2.76260        2.75020       -2.16980
O         -3.57290        1.75260       -1.66760
C         -4.00800        1.88350       -0.31870
C         -5.02990        0.79250       -0.05480
C         -3.26120        3.61650       -3.17990
O         -4.46550        3.55580       -3.77460
C         -5.55420        2.71760       -3.40210
C         -6.49580        3.45010       -2.45330
C         -2.47120        4.69730       -3.62330
C         -1.13330        4.81650       -3.15870
C         -0.59480        3.84720       -2.28450
N          0.72450        3.80240       -2.04090
C          1.46750        4.74320       -2.56530
C          0.90600        5.79910       -3.30280
N         -0.36300        5.81870       -3.61560
C         -2.95270        5.74780       -4.46380
C         -3.90310        5.78080       -5.43820
C         -4.50220        7.09090       -5.81050
O         -4.17270        8.18490       -5.41450
C         -5.63910        6.76290       -6.70080
C         -6.56720        7.61710       -7.26100
C         -7.55200        7.04100       -8.04940
F         -8.47820        7.83250       -8.61710
C         -7.62110        5.67390       -8.27220
C         -6.67830        4.82740       -7.70830
C         -5.67720        5.37390       -6.91860
C         -4.54260        4.75760       -6.23170
C         -4.06570        3.49380       -6.46480
C         -4.72780        2.53320       -7.25480
N         -5.24620        1.70430       -7.85720
C         -2.83150        3.01660       -5.98110
N         -1.82450        2.58860       -5.63450
H          4.52260       -4.55580        5.40980
H          1.99100       -8.19510        0.96980
H          5.73940       -9.78160        3.97760
H          4.41530      -12.40970        2.19320
H          6.62110      -12.29100        1.04390
H          7.03800       -9.76180        0.51560
H          5.11690       -8.91910       -1.10310
H          3.51840      -10.94060       -1.59730
H          4.54250      -13.14170       -0.43870
H          5.76040      -12.33780       -1.46070
H          2.54810      -11.63000        0.59170
H          4.10510       -2.20620        5.60690
H          0.86480        0.35230        5.25210
H          1.17180        2.61280        6.18320
H          3.41630        3.64210        6.21120
H          5.34640        2.39920        5.33260
H          5.03140        0.15100        4.35650
H          2.45160       -2.03320        0.02050
H          3.95520       -3.77180       -0.85190
H          2.11170       -8.40020       -1.49590
H          1.76180       -7.16690       -2.74850
H          3.16260       -8.24900       -2.91800
H          0.82250       -6.65710       -0.48420
H         -0.63890       -4.96140        0.45250
H         -1.86240       -1.70120        2.57220
H         -4.28910       -1.85640        2.36910
H         -6.54720       -1.41890        1.96100
H         -7.77220       -2.65770        1.61640
H         -6.29670       -3.11360        2.49550
H         -3.84890       -3.48600       -1.56140
H         -1.40070       -3.31010       -1.35770
H          1.16960        6.03770        0.03560
H         -0.20580        7.89190       -0.82020
H         -4.93490        8.08960       -2.53890
H         -5.18140        7.36040       -0.93460
H         -4.32050        6.45330       -2.22320
H         -3.74440        5.64940        0.00150
H         -2.37540        3.81810        0.87000
H          0.76900        5.16200        2.86030
H          2.97410        5.51220        3.91490
H          6.90970        3.61690        1.62430
H          7.58610        3.43110        3.25440
H          6.25120        2.37280        2.73740
H          4.76870        2.96540        0.98430
H          2.58430        2.63920       -0.06490
H         -4.44750        2.87860       -0.16350
H         -3.16400        1.77010        0.37230
H         -5.32580        0.82080        0.99040
H         -4.58590       -0.17270       -0.27950
H         -5.90950        0.92590       -0.67810
H         -5.20710        1.77390       -2.98370
H         -6.07170        2.51790       -4.34670
H         -7.35820        2.82530       -2.23970
H         -5.99570        3.69020       -1.51840
H         -6.83640        4.37750       -2.90920
H          2.53270        4.67050       -2.39330
H          1.50460        6.62550       -3.65970
H         -2.50250        6.71320       -4.24410
H         -6.52600        8.68210       -7.09710
H         -8.41380        5.28200       -8.88990
H         -6.74150        3.76630       -7.88580
