
  xtb     02162200113D
 energy: -281.690419005138 gnorm: 0.000344015189 xtb: 6.4.1 (unknown)
170189  0     0  0            999 V2000
    1.4509   -0.4609   12.3670 C   0  0  0  0  0  0  0  0  0  0  0  0
    0.1735   -0.6375   12.7775 C   0  0  0  0  0  0  0  0  0  0  0  0
   -0.2520   -0.1345   14.1147 C   0  0  0  0  0  0  0  0  0  0  0  0
    0.4712    0.2001   15.0249 O   0  0  0  0  0  0  0  0  0  0  0  0
   -1.7252   -0.0762   14.0589 C   0  0  0  0  0  0  0  0  0  0  0  0
   -2.5841    0.4569   15.0179 C   0  0  0  0  0  0  0  0  0  0  0  0
   -3.9127    0.4040   14.6721 C   0  0  0  0  0  0  0  0  0  0  0  0
   -4.3611   -0.1370   13.4589 C   0  0  0  0  0  0  0  0  0  0  0  0
   -3.5284   -0.6779   12.5091 C   0  0  0  0  0  0  0  0  0  0  0  0
   -2.1718   -0.6367   12.8431 C   0  0  0  0  0  0  0  0  0  0  0  0
   -1.0140   -1.1412   12.1104 C   0  0  0  0  0  0  0  0  0  0  0  0
   -1.0472   -2.1008   11.1347 C   0  0  0  0  0  0  0  0  0  0  0  0
    0.0986   -2.7639   10.6436 C   0  0  0  0  0  0  0  0  0  0  0  0
    0.9757   -3.3877   10.2460 N   0  0  0  0  0  0  0  0  0  0  0  0
   -2.2298   -2.5920   10.5466 C   0  0  0  0  0  0  0  0  0  0  0  0
   -3.1576   -2.9974   10.0048 N   0  0  0  0  0  0  0  0  0  0  0  0
   -5.8063    0.1621   13.7678 C   0  0  0  0  0  0  0  0  0  0  0  0
   -6.4550    1.3848   13.0724 C   0  0  0  0  0  0  0  0  0  0  0  0
   -5.3367    2.3505   12.7682 C   0  0  0  0  0  0  0  0  0  0  0  0
   -4.9147    2.8574   13.9189 C   0  0  0  0  0  0  0  0  0  0  0  0
   -5.7401    2.2433   15.0223 C   0  0  0  0  0  0  0  0  0  0  0  0
   -7.0831    2.0747   14.2939 C   0  0  0  0  0  0  0  0  0  0  0  0
   -5.3080    0.7593   15.1215 C   0  0  0  0  0  0  0  0  0  0  0  0
    1.9914   -0.5445   11.0348 C   0  0  0  0  0  0  0  0  0  0  0  0
    1.2072   -0.2497    9.9174 C   0  0  0  0  0  0  0  0  0  0  0  0
    1.7750   -0.3664    8.6636 C   0  0  0  0  0  0  0  0  0  0  0  0
    1.2086   -0.1728    7.4300 N   0  0  0  0  0  0  0  0  0  0  0  0
   -0.1364    0.2692    7.1780 C   0  0  0  0  0  0  0  0  0  0  0  0
   -0.2200    1.7936    7.1152 C   0  0  0  0  0  0  0  0  0  0  0  0
    2.1650   -0.4048    6.4713 C   0  0  0  0  0  0  0  0  0  0  0  0
    3.3822   -0.7727    7.0976 C   0  0  0  0  0  0  0  0  0  0  0  0
    3.1324   -0.7552    8.5051 C   0  0  0  0  0  0  0  0  0  0  0  0
    3.9129   -1.0149    9.6264 C   0  0  0  0  0  0  0  0  0  0  0  0
    3.3452   -0.8954   10.8733 C   0  0  0  0  0  0  0  0  0  0  0  0
    4.4977   -1.0602    6.3180 C   0  0  0  0  0  0  0  0  0  0  0  0
    4.3897   -0.9881    4.9473 C   0  0  0  0  0  0  0  0  0  0  0  0
    3.1809   -0.6312    4.3282 C   0  0  0  0  0  0  0  0  0  0  0  0
    2.0586   -0.3339    5.0937 C   0  0  0  0  0  0  0  0  0  0  0  0
    3.0778   -0.5769    2.8672 C   0  0  0  0  0  0  0  0  0  0  0  0
    3.6184   -1.5466    2.0467 C   0  0  0  0  0  0  0  0  0  0  0  0
    4.2881   -2.5866    2.5743 F   0  0  0  0  0  0  0  0  0  0  0  0
    3.4586   -1.5522    0.6530 C   0  0  0  0  0  0  0  0  0  0  0  0
    4.0123   -2.5849   -0.0051 F   0  0  0  0  0  0  0  0  0  0  0  0
    2.7540   -0.5664   -0.0179 C   0  0  0  0  0  0  0  0  0  0  0  0
    2.2442    0.4832    0.8009 C   0  0  0  0  0  0  0  0  0  0  0  0
    1.6139    1.5010    0.2032 N   0  0  0  0  0  0  0  0  0  0  0  0
    1.0918    2.4722    0.9079 C   0  0  0  0  0  0  0  0  0  0  0  0
    0.4652    3.5889    0.1323 C   0  0  0  0  0  0  0  0  0  0  0  0
    1.4765    4.7180   -0.0813 C   0  0  0  0  0  0  0  0  0  0  0  0
    1.1982    2.4438    2.3264 C   0  0  0  0  0  0  0  0  0  0  0  0
    1.8376    1.4742    2.9308 N   0  0  0  0  0  0  0  0  0  0  0  0
    2.3771    0.4728    2.2124 C   0  0  0  0  0  0  0  0  0  0  0  0
    0.5580    3.4651    3.2181 C   0  0  0  0  0  0  0  0  0  0  0  0
   -0.8922    3.0711    3.5106 C   0  0  0  0  0  0  0  0  0  0  0  0
    2.4642   -0.5748   -1.4284 C   0  0  0  0  0  0  0  0  0  0  0  0
    2.7402   -1.5570   -2.3405 C   0  0  0  0  0  0  0  0  0  0  0  0
    2.2208   -1.3008   -3.6316 C   0  0  0  0  0  0  0  0  0  0  0  0
    2.2797   -2.1283   -4.7668 C   0  0  0  0  0  0  0  0  0  0  0  0
    2.9441   -3.4397   -4.7423 C   0  0  0  0  0  0  0  0  0  0  0  0
    3.9152   -3.7487   -5.6937 C   0  0  0  0  0  0  0  0  0  0  0  0
    4.5338   -4.9815   -5.6634 C   0  0  0  0  0  0  0  0  0  0  0  0
    4.2020   -5.9247   -4.7045 C   0  0  0  0  0  0  0  0  0  0  0  0
    3.2284   -5.6289   -3.7555 C   0  0  0  0  0  0  0  0  0  0  0  0
    2.8117   -6.4696   -2.7744 O   0  0  0  0  0  0  0  0  0  0  0  0
    3.4119   -7.7450   -2.6624 C   0  0  0  0  0  0  0  0  0  0  0  0
    2.7736   -8.4538   -1.4783 C   0  0  0  0  0  0  0  0  0  0  0  0
    2.6058   -4.3812   -3.7831 C   0  0  0  0  0  0  0  0  0  0  0  0
    1.6652   -1.6480   -5.9117 C   0  0  0  0  0  0  0  0  0  0  0  0
    0.9879   -0.3982   -5.9663 C   0  0  0  0  0  0  0  0  0  0  0  0
    0.9461    0.4317   -4.8305 C   0  0  0  0  0  0  0  0  0  0  0  0
    0.2532    1.7276   -4.8381 C   0  0  0  0  0  0  0  0  0  0  0  0
   -1.0771    1.8261   -5.2261 C   0  0  0  0  0  0  0  0  0  0  0  0
   -1.7117    3.0560   -5.1848 C   0  0  0  0  0  0  0  0  0  0  0  0
   -1.0322    4.1844   -4.7760 C   0  0  0  0  0  0  0  0  0  0  0  0
    0.3101    4.0984   -4.4003 C   0  0  0  0  0  0  0  0  0  0  0  0
    0.9006    5.2666   -4.0292 O   0  0  0  0  0  0  0  0  0  0  0  0
    2.2932    5.2767   -3.7835 C   0  0  0  0  0  0  0  0  0  0  0  0
    2.6976    6.7084   -3.4683 C   0  0  0  0  0  0  0  0  0  0  0  0
    0.9446    2.8644   -4.4250 C   0  0  0  0  0  0  0  0  0  0  0  0
    1.5698   -0.0430   -3.6905 C   0  0  0  0  0  0  0  0  0  0  0  0
    1.5800    0.7600   -2.1374 S   0  0  0  0  0  0  0  0  0  0  0  0
    0.4139   -0.1529   -7.2295 C   0  0  0  0  0  0  0  0  0  0  0  0
    0.5953   -1.1766   -8.1263 C   0  0  0  0  0  0  0  0  0  0  0  0
    1.5549   -2.4861   -7.4318 S   0  0  0  0  0  0  0  0  0  0  0  0
    0.1928   -1.3345   -9.4729 C   0  0  0  0  0  0  0  0  0  0  0  0
   -0.7373   -0.6548  -10.2056 C   0  0  0  0  0  0  0  0  0  0  0  0
   -1.7493    0.3202   -9.7294 C   0  0  0  0  0  0  0  0  0  0  0  0
   -1.8301    0.8696   -8.6503 O   0  0  0  0  0  0  0  0  0  0  0  0
   -2.7058    0.4785  -10.8407 C   0  0  0  0  0  0  0  0  0  0  0  0
   -3.8703    1.2431  -10.8272 C   0  0  0  0  0  0  0  0  0  0  0  0
   -4.5819    1.1986  -12.0012 C   0  0  0  0  0  0  0  0  0  0  0  0
   -4.1715    0.4398  -13.1061 C   0  0  0  0  0  0  0  0  0  0  0  0
   -3.0259   -0.3188  -13.1321 C   0  0  0  0  0  0  0  0  0  0  0  0
   -2.2801   -0.2774  -11.9499 C   0  0  0  0  0  0  0  0  0  0  0  0
   -1.0208   -0.9297  -11.6065 C   0  0  0  0  0  0  0  0  0  0  0  0
   -0.2139   -1.6056  -12.4833 C   0  0  0  0  0  0  0  0  0  0  0  0
    1.0582   -2.1417  -12.1865 C   0  0  0  0  0  0  0  0  0  0  0  0
    2.1079   -2.5858  -12.0456 N   0  0  0  0  0  0  0  0  0  0  0  0
   -0.5208   -1.8200  -13.8437 C   0  0  0  0  0  0  0  0  0  0  0  0
   -0.7044   -2.0330  -14.9569 N   0  0  0  0  0  0  0  0  0  0  0  0
   -5.3605    0.8577  -13.9347 C   0  0  0  0  0  0  0  0  0  0  0  0
   -5.1349    1.9299  -15.0290 C   0  0  0  0  0  0  0  0  0  0  0  0
   -3.9545    2.7563  -14.5821 C   0  0  0  0  0  0  0  0  0  0  0  0
   -4.3381    3.4781  -13.5377 C   0  0  0  0  0  0  0  0  0  0  0  0
   -5.7850    3.1530  -13.2597 C   0  0  0  0  0  0  0  0  0  0  0  0
   -6.2837    2.8932  -14.6901 C   0  0  0  0  0  0  0  0  0  0  0  0
   -5.8144    1.7069  -12.7056 C   0  0  0  0  0  0  0  0  0  0  0  0
    2.1456   -0.1672   13.1482 H   0  0  0  0  0  0  0  0  0  0  0  0
   -2.2001    0.8651   15.9396 H   0  0  0  0  0  0  0  0  0  0  0  0
   -3.8829   -1.0901   11.5784 H   0  0  0  0  0  0  0  0  0  0  0  0
   -6.4736   -0.6966   13.8028 H   0  0  0  0  0  0  0  0  0  0  0  0
   -7.1130    1.1360   12.2440 H   0  0  0  0  0  0  0  0  0  0  0  0
   -4.9414    2.5183   11.7833 H   0  0  0  0  0  0  0  0  0  0  0  0
   -4.0962    3.5326   14.0878 H   0  0  0  0  0  0  0  0  0  0  0  0
   -5.7476    2.7761   15.9695 H   0  0  0  0  0  0  0  0  0  0  0  0
   -7.7919    1.4458   14.8305 H   0  0  0  0  0  0  0  0  0  0  0  0
   -7.5502    3.0267   14.0461 H   0  0  0  0  0  0  0  0  0  0  0  0
   -5.6479    0.2881   16.0414 H   0  0  0  0  0  0  0  0  0  0  0  0
    0.1903    0.0911   10.0441 H   0  0  0  0  0  0  0  0  0  0  0  0
   -0.4705   -0.1643    6.2318 H   0  0  0  0  0  0  0  0  0  0  0  0
   -0.7854   -0.1156    7.9696 H   0  0  0  0  0  0  0  0  0  0  0  0
    0.4313    2.1677    6.3292 H   0  0  0  0  0  0  0  0  0  0  0  0
   -1.2398    2.1069    6.9082 H   0  0  0  0  0  0  0  0  0  0  0  0
    0.0953    2.2286    8.0610 H   0  0  0  0  0  0  0  0  0  0  0  0
    4.9467   -1.3037    9.5164 H   0  0  0  0  0  0  0  0  0  0  0  0
    3.9303   -1.1057   11.7556 H   0  0  0  0  0  0  0  0  0  0  0  0
    5.4320   -1.3367    6.7815 H   0  0  0  0  0  0  0  0  0  0  0  0
    5.2536   -1.1954    4.3359 H   0  0  0  0  0  0  0  0  0  0  0  0
    1.1332   -0.0706    4.6099 H   0  0  0  0  0  0  0  0  0  0  0  0
   -0.4155    3.9729    0.6468 H   0  0  0  0  0  0  0  0  0  0  0  0
    0.1673    3.1932   -0.8395 H   0  0  0  0  0  0  0  0  0  0  0  0
    1.7722    5.1696    0.8635 H   0  0  0  0  0  0  0  0  0  0  0  0
    2.3683    4.3278   -0.5656 H   0  0  0  0  0  0  0  0  0  0  0  0
    1.0412    5.4862   -0.7147 H   0  0  0  0  0  0  0  0  0  0  0  0
    0.5866    4.4526    2.7591 H   0  0  0  0  0  0  0  0  0  0  0  0
    1.1187    3.4941    4.1534 H   0  0  0  0  0  0  0  0  0  0  0  0
   -1.4777    3.0342    2.5946 H   0  0  0  0  0  0  0  0  0  0  0  0
   -0.9269    2.0899    3.9773 H   0  0  0  0  0  0  0  0  0  0  0  0
   -1.3472    3.7930    4.1843 H   0  0  0  0  0  0  0  0  0  0  0  0
    3.2879   -2.4520   -2.1140 H   0  0  0  0  0  0  0  0  0  0  0  0
    4.1941   -3.0176   -6.4366 H   0  0  0  0  0  0  0  0  0  0  0  0
    5.2899   -5.2192   -6.3968 H   0  0  0  0  0  0  0  0  0  0  0  0
    4.7031   -6.8796   -4.7093 H   0  0  0  0  0  0  0  0  0  0  0  0
    3.2475   -8.3216   -3.5837 H   0  0  0  0  0  0  0  0  0  0  0  0
    4.4939   -7.6392   -2.5015 H   0  0  0  0  0  0  0  0  0  0  0  0
    2.9324   -7.8760   -0.5720 H   0  0  0  0  0  0  0  0  0  0  0  0
    3.2138   -9.4393   -1.3562 H   0  0  0  0  0  0  0  0  0  0  0  0
    1.7041   -8.5572   -1.6401 H   0  0  0  0  0  0  0  0  0  0  0  0
    1.8378   -4.1773   -3.0532 H   0  0  0  0  0  0  0  0  0  0  0  0
   -1.6154    0.9462   -5.5411 H   0  0  0  0  0  0  0  0  0  0  0  0
   -2.7468    3.1328   -5.4812 H   0  0  0  0  0  0  0  0  0  0  0  0
   -1.5126    5.1496   -4.7450 H   0  0  0  0  0  0  0  0  0  0  0  0
    2.8326    4.9175   -4.6710 H   0  0  0  0  0  0  0  0  0  0  0  0
    2.5341    4.6187   -2.9380 H   0  0  0  0  0  0  0  0  0  0  0  0
    3.7651    6.7571   -3.2740 H   0  0  0  0  0  0  0  0  0  0  0  0
    2.1598    7.0643   -2.5938 H   0  0  0  0  0  0  0  0  0  0  0  0
    2.4574    7.3549   -4.3077 H   0  0  0  0  0  0  0  0  0  0  0  0
    1.9814    2.7643   -4.1461 H   0  0  0  0  0  0  0  0  0  0  0  0
   -0.1128    0.7510   -7.4696 H   0  0  0  0  0  0  0  0  0  0  0  0
    0.6865   -2.1626   -9.9690 H   0  0  0  0  0  0  0  0  0  0  0  0
   -4.1517    1.8063   -9.9511 H   0  0  0  0  0  0  0  0  0  0  0  0
   -2.7292   -0.9034  -13.9866 H   0  0  0  0  0  0  0  0  0  0  0  0
   -6.0144    0.0546  -14.2687 H   0  0  0  0  0  0  0  0  0  0  0  0
   -5.0908    1.5387  -16.0418 H   0  0  0  0  0  0  0  0  0  0  0  0
   -2.9766    2.6893  -15.0215 H   0  0  0  0  0  0  0  0  0  0  0  0
   -3.7443    4.1350  -12.9294 H   0  0  0  0  0  0  0  0  0  0  0  0
   -6.3333    3.8765  -12.6619 H   0  0  0  0  0  0  0  0  0  0  0  0
   -7.2671    2.4265  -14.7287 H   0  0  0  0  0  0  0  0  0  0  0  0
   -6.2776    3.7900  -15.3078 H   0  0  0  0  0  0  0  0  0  0  0  0
   -6.7666    1.4609  -12.2393 H   0  0  0  0  0  0  0  0  0  0  0  0
  1  2  2  0  0  0  0
  2  3  1  0  0  0  0
  3  4  2  0  0  0  0
  3  5  1  0  0  0  0
  5  6  2  0  0  0  0
  6  7  1  0  0  0  0
  7  8  2  0  0  0  0
  8  9  1  0  0  0  0
  9 10  2  0  0  0  0
 10 11  1  0  0  0  0
 11 12  2  0  0  0  0
 12 13  1  0  0  0  0
 13 14  3  0  0  0  0
 12 15  1  0  0  0  0
 15 16  3  0  0  0  0
  8 17  1  0  0  0  0
 17 18  1  0  0  0  0
 18 19  1  0  0  0  0
 19 20  2  0  0  0  0
 20 21  1  0  0  0  0
 21 22  1  0  0  0  0
 21 23  1  0  0  0  0
  1 24  1  0  0  0  0
 24 25  2  0  0  0  0
 25 26  1  0  0  0  0
 26 27  1  0  0  0  0
 27 28  1  0  0  0  0
 28 29  1  0  0  0  0
 27 30  1  0  0  0  0
 30 31  2  0  0  0  0
 31 32  1  0  0  0  0
 32 33  1  0  0  0  0
 33 34  2  0  0  0  0
 31 35  1  0  0  0  0
 35 36  2  0  0  0  0
 36 37  1  0  0  0  0
 37 38  2  0  0  0  0
 37 39  1  0  0  0  0
 39 40  2  0  0  0  0
 40 41  1  0  0  0  0
 40 42  1  0  0  0  0
 42 43  1  0  0  0  0
 42 44  2  0  0  0  0
 44 45  1  0  0  0  0
 45 46  2  0  0  0  0
 46 47  1  0  0  0  0
 47 48  1  0  0  0  0
 48 49  1  0  0  0  0
 47 50  2  0  0  0  0
 50 51  1  0  0  0  0
 51 52  2  0  0  0  0
 50 53  1  0  0  0  0
 53 54  1  0  0  0  0
 44 55  1  0  0  0  0
 55 56  2  0  0  0  0
 56 57  1  0  0  0  0
 57 58  2  0  0  0  0
 58 59  1  0  0  0  0
 59 60  2  0  0  0  0
 60 61  1  0  0  0  0
 61 62  2  0  0  0  0
 62 63  1  0  0  0  0
 63 64  1  0  0  0  0
 64 65  1  0  0  0  0
 65 66  1  0  0  0  0
 63 67  2  0  0  0  0
 58 68  1  0  0  0  0
 68 69  2  0  0  0  0
 69 70  1  0  0  0  0
 70 71  1  0  0  0  0
 71 72  2  0  0  0  0
 72 73  1  0  0  0  0
 73 74  2  0  0  0  0
 74 75  1  0  0  0  0
 75 76  1  0  0  0  0
 76 77  1  0  0  0  0
 77 78  1  0  0  0  0
 75 79  2  0  0  0  0
 70 80  2  0  0  0  0
 80 81  1  0  0  0  0
 69 82  1  0  0  0  0
 82 83  2  0  0  0  0
 83 84  1  0  0  0  0
 83 85  1  0  0  0  0
 85 86  2  0  0  0  0
 86 87  1  0  0  0  0
 87 88  2  0  0  0  0
 87 89  1  0  0  0  0
 89 90  2  0  0  0  0
 90 91  1  0  0  0  0
 91 92  2  0  0  0  0
 92 93  1  0  0  0  0
 93 94  2  0  0  0  0
 94 95  1  0  0  0  0
 95 96  2  0  0  0  0
 96 97  1  0  0  0  0
 97 98  3  0  0  0  0
 96 99  1  0  0  0  0
 99100  3  0  0  0  0
 92101  1  0  0  0  0
101102  1  0  0  0  0
102103  1  0  0  0  0
103104  2  0  0  0  0
104105  1  0  0  0  0
105106  1  0  0  0  0
105107  1  0  0  0  0
 11  2  1  0  0  0  0
 23 17  1  0  0  0  0
 34 24  1  0  0  0  0
 52 39  1  0  0  0  0
 81 55  1  0  0  0  0
 95 86  1  0  0  0  0
107101  1  0  0  0  0
 10  5  1  0  0  0  0
 22 18  1  0  0  0  0
 32 26  2  0  0  0  0
 52 45  1  0  0  0  0
 80 57  1  0  0  0  0
 94 89  1  0  0  0  0
106102  1  0  0  0  0
 23  7  1  0  0  0  0
 38 30  1  0  0  0  0
 67 59  1  0  0  0  0
 84 68  1  0  0  0  0
107 91  1  0  0  0  0
 79 71  1  0  0  0  0
  1108  1  0  0  0  0
  6109  1  0  0  0  0
  9110  1  0  0  0  0
 17111  1  0  0  0  0
 18112  1  0  0  0  0
 19113  1  0  0  0  0
 20114  1  0  0  0  0
 21115  1  0  0  0  0
 22116  1  0  0  0  0
 22117  1  0  0  0  0
 23118  1  0  0  0  0
 25119  1  0  0  0  0
 28120  1  0  0  0  0
 28121  1  0  0  0  0
 29122  1  0  0  0  0
 29123  1  0  0  0  0
 29124  1  0  0  0  0
 33125  1  0  0  0  0
 34126  1  0  0  0  0
 35127  1  0  0  0  0
 36128  1  0  0  0  0
 38129  1  0  0  0  0
 48130  1  0  0  0  0
 48131  1  0  0  0  0
 49132  1  0  0  0  0
 49133  1  0  0  0  0
 49134  1  0  0  0  0
 53135  1  0  0  0  0
 53136  1  0  0  0  0
 54137  1  0  0  0  0
 54138  1  0  0  0  0
 54139  1  0  0  0  0
 56140  1  0  0  0  0
 60141  1  0  0  0  0
 61142  1  0  0  0  0
 62143  1  0  0  0  0
 65144  1  0  0  0  0
 65145  1  0  0  0  0
 66146  1  0  0  0  0
 66147  1  0  0  0  0
 66148  1  0  0  0  0
 67149  1  0  0  0  0
 72150  1  0  0  0  0
 73151  1  0  0  0  0
 74152  1  0  0  0  0
 77153  1  0  0  0  0
 77154  1  0  0  0  0
 78155  1  0  0  0  0
 78156  1  0  0  0  0
 78157  1  0  0  0  0
 79158  1  0  0  0  0
 82159  1  0  0  0  0
 85160  1  0  0  0  0
 90161  1  0  0  0  0
 93162  1  0  0  0  0
101163  1  0  0  0  0
102164  1  0  0  0  0
103165  1  0  0  0  0
104166  1  0  0  0  0
105167  1  0  0  0  0
106168  1  0  0  0  0
106169  1  0  0  0  0
107170  1  0  0  0  0
M  END
