
  xtb     02082200183D
 energy: -298.799545146596 gnorm: 0.000406739143 xtb: 6.4.1 (unknown)
168189  0     0  0            999 V2000
   -1.5364   10.7805    2.2192 C   0  0  0  0  0  0  0  0  0  0  0  0
   -0.9677   11.5310    1.2306 C   0  0  0  0  0  0  0  0  0  0  0  0
   -0.1055   11.0238    0.1516 C   0  0  0  0  0  0  0  0  0  0  0  0
    0.1496    9.8605   -0.1048 O   0  0  0  0  0  0  0  0  0  0  0  0
    0.4040   12.2051   -0.5603 C   0  0  0  0  0  0  0  0  0  0  0  0
    1.3052   12.2183   -1.6238 C   0  0  0  0  0  0  0  0  0  0  0  0
    1.6248   13.4779   -2.0695 C   0  0  0  0  0  0  0  0  0  0  0  0
    1.0913   14.6408   -1.4966 C   0  0  0  0  0  0  0  0  0  0  0  0
    0.2005   14.6420   -0.4498 C   0  0  0  0  0  0  0  0  0  0  0  0
   -0.1445   13.3692    0.0165 C   0  0  0  0  0  0  0  0  0  0  0  0
   -1.0419   12.9771    1.1008 C   0  0  0  0  0  0  0  0  0  0  0  0
   -1.8282   13.8310    1.8277 C   0  0  0  0  0  0  0  0  0  0  0  0
   -1.8710   15.2298    1.6435 C   0  0  0  0  0  0  0  0  0  0  0  0
   -1.9601   16.3706    1.5518 N   0  0  0  0  0  0  0  0  0  0  0  0
   -2.7300   13.4562    2.8469 C   0  0  0  0  0  0  0  0  0  0  0  0
   -3.4906   13.2428    3.6806 N   0  0  0  0  0  0  0  0  0  0  0  0
    1.8518   15.5470   -2.4319 C   0  0  0  0  0  0  0  0  0  0  0  0
    1.0494   16.1682   -3.5947 C   0  0  0  0  0  0  0  0  0  0  0  0
    2.1130   16.5889   -4.5831 C   0  0  0  0  0  0  0  0  0  0  0  0
    2.6159   15.4882   -5.1275 C   0  0  0  0  0  0  0  0  0  0  0  0
    1.9006   14.3049   -4.5163 C   0  0  0  0  0  0  0  0  0  0  0  0
    0.5107   14.9184   -4.3028 C   0  0  0  0  0  0  0  0  0  0  0  0
    2.4444   14.2508   -3.0725 C   0  0  0  0  0  0  0  0  0  0  0  0
   -1.4845    9.3909    2.4515 C   0  0  0  0  0  0  0  0  0  0  0  0
   -0.7143    8.1808    1.4379 S   0  0  0  0  0  0  0  0  0  0  0  0
   -1.1917    6.9416    2.5294 C   0  0  0  0  0  0  0  0  0  0  0  0
   -1.0153    5.5561    2.4262 C   0  0  0  0  0  0  0  0  0  0  0  0
   -1.5565    4.7325    3.4123 C   0  0  0  0  0  0  0  0  0  0  0  0
   -2.1963    5.2073    4.4976 O   0  0  0  0  0  0  0  0  0  0  0  0
   -2.4255    6.5550    4.6715 C   0  0  0  0  0  0  0  0  0  0  0  0
   -3.0437    6.9015    5.6446 O   0  0  0  0  0  0  0  0  0  0  0  0
   -1.9071    7.4321    3.6334 C   0  0  0  0  0  0  0  0  0  0  0  0
   -2.0704    8.8153    3.5691 C   0  0  0  0  0  0  0  0  0  0  0  0
   -1.4541    3.3676    3.1118 C   0  0  0  0  0  0  0  0  0  0  0  0
   -0.8804    3.1463    1.8822 C   0  0  0  0  0  0  0  0  0  0  0  0
   -0.3161    4.6269    1.1491 S   0  0  0  0  0  0  0  0  0  0  0  0
   -0.7956    1.8956    1.1956 C   0  0  0  0  0  0  0  0  0  0  0  0
   -1.1550    1.6079   -0.1160 C   0  0  0  0  0  0  0  0  0  0  0  0
   -1.7163    2.4852   -1.0198 N   0  0  0  0  0  0  0  0  0  0  0  0
   -1.5114    2.2777   -2.3948 C   0  0  0  0  0  0  0  0  0  0  0  0
   -2.5618    2.4605   -3.2940 C   0  0  0  0  0  0  0  0  0  0  0  0
   -2.3746    2.2126   -4.6343 C   0  0  0  0  0  0  0  0  0  0  0  0
   -1.1395    1.7704   -5.1084 C   0  0  0  0  0  0  0  0  0  0  0  0
   -1.0244    1.4502   -6.8381 S   0  0  0  0  0  0  0  0  0  0  0  0
    0.5072    0.4882   -6.9972 C   0  0  0  0  0  0  0  0  0  0  0  0
   -0.0820    1.6235   -4.2210 C   0  0  0  0  0  0  0  0  0  0  0  0
   -0.2672    1.8815   -2.8762 C   0  0  0  0  0  0  0  0  0  0  0  0
   -2.4879    3.5800   -0.5989 C   0  0  0  0  0  0  0  0  0  0  0  0
   -3.3715    3.4666    0.4709 C   0  0  0  0  0  0  0  0  0  0  0  0
   -4.0102    4.5817    0.9797 C   0  0  0  0  0  0  0  0  0  0  0  0
   -3.7856    5.8304    0.4148 C   0  0  0  0  0  0  0  0  0  0  0  0
   -4.4420    7.3418    1.0480 S   0  0  0  0  0  0  0  0  0  0  0  0
   -5.4081    6.8421    2.4992 C   0  0  0  0  0  0  0  0  0  0  0  0
   -2.9720    5.9325   -0.7134 C   0  0  0  0  0  0  0  0  0  0  0  0
   -2.3319    4.8229   -1.2165 C   0  0  0  0  0  0  0  0  0  0  0  0
   -0.9439    0.2298   -0.3914 C   0  0  0  0  0  0  0  0  0  0  0  0
   -1.1261   -0.7551   -1.7988 S   0  0  0  0  0  0  0  0  0  0  0  0
   -0.5556   -2.1682   -0.9157 C   0  0  0  0  0  0  0  0  0  0  0  0
   -0.2156   -1.8714    0.3999 C   0  0  0  0  0  0  0  0  0  0  0  0
    0.3729   -2.7208    1.3181 N   0  0  0  0  0  0  0  0  0  0  0  0
    0.0415   -2.5749    2.6742 C   0  0  0  0  0  0  0  0  0  0  0  0
    1.0197   -2.6884    3.6569 C   0  0  0  0  0  0  0  0  0  0  0  0
    0.6980   -2.5367    4.9912 C   0  0  0  0  0  0  0  0  0  0  0  0
   -0.6113   -2.2609    5.3649 C   0  0  0  0  0  0  0  0  0  0  0  0
   -1.1446   -2.0365    7.0301 S   0  0  0  0  0  0  0  0  0  0  0  0
    0.3740   -2.2111    8.0085 C   0  0  0  0  0  0  0  0  0  0  0  0
   -1.5946   -2.1527    4.3825 C   0  0  0  0  0  0  0  0  0  0  0  0
   -1.2754   -2.3120    3.0534 C   0  0  0  0  0  0  0  0  0  0  0  0
    1.2851   -3.7043    0.9196 C   0  0  0  0  0  0  0  0  0  0  0  0
    1.2880   -4.9527    1.5407 C   0  0  0  0  0  0  0  0  0  0  0  0
    2.0766   -5.9794    1.0614 C   0  0  0  0  0  0  0  0  0  0  0  0
    2.8798   -5.7754   -0.0530 C   0  0  0  0  0  0  0  0  0  0  0  0
    3.8223   -7.0440   -0.8338 S   0  0  0  0  0  0  0  0  0  0  0  0
    3.6870   -8.4487    0.3057 C   0  0  0  0  0  0  0  0  0  0  0  0
    2.9362   -4.5075   -0.6324 C   0  0  0  0  0  0  0  0  0  0  0  0
    2.1583   -3.4810   -0.1474 C   0  0  0  0  0  0  0  0  0  0  0  0
   -0.4715   -0.5040    0.6828 C   0  0  0  0  0  0  0  0  0  0  0  0
   -0.2840    0.4735    2.0950 S   0  0  0  0  0  0  0  0  0  0  0  0
   -0.4092   -3.3784   -1.6537 C   0  0  0  0  0  0  0  0  0  0  0  0
   -0.5710   -4.9601   -0.9208 S   0  0  0  0  0  0  0  0  0  0  0  0
   -0.0290   -5.7166   -2.3719 C   0  0  0  0  0  0  0  0  0  0  0  0
    0.3196   -7.0545   -2.5840 C   0  0  0  0  0  0  0  0  0  0  0  0
    0.7822   -7.4096   -3.8598 C   0  0  0  0  0  0  0  0  0  0  0  0
    0.8667   -6.5392   -4.8870 O   0  0  0  0  0  0  0  0  0  0  0  0
    0.5902   -5.2050   -4.7293 C   0  0  0  0  0  0  0  0  0  0  0  0
    0.7303   -4.4723   -5.6739 O   0  0  0  0  0  0  0  0  0  0  0  0
    0.1444   -4.7920   -3.4046 C   0  0  0  0  0  0  0  0  0  0  0  0
   -0.0865   -3.4738   -2.9875 C   0  0  0  0  0  0  0  0  0  0  0  0
    1.1557   -8.7437   -3.9346 C   0  0  0  0  0  0  0  0  0  0  0  0
    1.0222   -9.4192   -2.7221 C   0  0  0  0  0  0  0  0  0  0  0  0
    0.4117   -8.3616   -1.4674 S   0  0  0  0  0  0  0  0  0  0  0  0
    1.3280  -10.7854   -2.5940 C   0  0  0  0  0  0  0  0  0  0  0  0
    1.3185  -11.5937   -1.4882 C   0  0  0  0  0  0  0  0  0  0  0  0
    1.0895  -11.1545   -0.1085 C   0  0  0  0  0  0  0  0  0  0  0  0
    0.8169  -10.0254    0.2731 O   0  0  0  0  0  0  0  0  0  0  0  0
    1.2979  -12.3297    0.7467 C   0  0  0  0  0  0  0  0  0  0  0  0
    1.2118  -12.3822    2.1364 C   0  0  0  0  0  0  0  0  0  0  0  0
    1.4633  -13.6249    2.6655 C   0  0  0  0  0  0  0  0  0  0  0  0
    1.7739  -14.7358    1.8696 C   0  0  0  0  0  0  0  0  0  0  0  0
    1.8597  -14.6978    0.4976 C   0  0  0  0  0  0  0  0  0  0  0  0
    1.6123  -13.4416   -0.0622 C   0  0  0  0  0  0  0  0  0  0  0  0
    1.6155  -13.0153   -1.4609 C   0  0  0  0  0  0  0  0  0  0  0  0
    1.8300  -13.8340   -2.5383 C   0  0  0  0  0  0  0  0  0  0  0  0
    1.7982  -13.4404   -3.8933 C   0  0  0  0  0  0  0  0  0  0  0  0
    1.7831  -13.2121   -5.0189 N   0  0  0  0  0  0  0  0  0  0  0  0
    2.1061  -15.2154   -2.4500 C   0  0  0  0  0  0  0  0  0  0  0  0
    2.3361  -16.3400   -2.4585 N   0  0  0  0  0  0  0  0  0  0  0  0
    1.9121  -15.6504    3.0603 C   0  0  0  0  0  0  0  0  0  0  0  0
    3.3429  -16.0198    3.5240 C   0  0  0  0  0  0  0  0  0  0  0  0
    4.2393  -14.8853    3.0937 C   0  0  0  0  0  0  0  0  0  0  0  0
    3.9487  -13.8323    3.8460 C   0  0  0  0  0  0  0  0  0  0  0  0
    2.8506  -14.2357    4.7989 C   0  0  0  0  0  0  0  0  0  0  0  0
    3.2169  -15.7113    5.0246 C   0  0  0  0  0  0  0  0  0  0  0  0
    1.5687  -14.4121    3.9472 C   0  0  0  0  0  0  0  0  0  0  0  0
   -2.1040   11.3082    2.9762 H   0  0  0  0  0  0  0  0  0  0  0  0
    1.6984   11.2983   -2.0271 H   0  0  0  0  0  0  0  0  0  0  0  0
   -0.1920   15.5465   -0.0167 H   0  0  0  0  0  0  0  0  0  0  0  0
    2.5317   16.2528   -1.9588 H   0  0  0  0  0  0  0  0  0  0  0  0
    0.3299   16.9258   -3.2969 H   0  0  0  0  0  0  0  0  0  0  0  0
    2.4183   17.6069   -4.7387 H   0  0  0  0  0  0  0  0  0  0  0  0
    3.4252   15.4031   -5.8287 H   0  0  0  0  0  0  0  0  0  0  0  0
    1.9562   13.3654   -5.0595 H   0  0  0  0  0  0  0  0  0  0  0  0
   -0.1532   14.3119   -3.6895 H   0  0  0  0  0  0  0  0  0  0  0  0
    0.0186   15.1588   -5.2436 H   0  0  0  0  0  0  0  0  0  0  0  0
    3.5203   14.0926   -3.0288 H   0  0  0  0  0  0  0  0  0  0  0  0
   -2.6012    9.3788    4.3155 H   0  0  0  0  0  0  0  0  0  0  0  0
   -1.8494    2.5869    3.7346 H   0  0  0  0  0  0  0  0  0  0  0  0
   -3.5250    2.7838   -2.9290 H   0  0  0  0  0  0  0  0  0  0  0  0
   -3.1876    2.3406   -5.3319 H   0  0  0  0  0  0  0  0  0  0  0  0
    1.3722    1.1202   -6.8178 H   0  0  0  0  0  0  0  0  0  0  0  0
    0.5221    0.1310   -8.0222 H   0  0  0  0  0  0  0  0  0  0  0  0
    0.4822   -0.3561   -6.3152 H   0  0  0  0  0  0  0  0  0  0  0  0
    0.8922    1.3147   -4.5638 H   0  0  0  0  0  0  0  0  0  0  0  0
    0.5627    1.7801   -2.1921 H   0  0  0  0  0  0  0  0  0  0  0  0
   -3.5431    2.5017    0.9244 H   0  0  0  0  0  0  0  0  0  0  0  0
   -4.6703    4.4621    1.8236 H   0  0  0  0  0  0  0  0  0  0  0  0
   -4.7707    6.3562    3.2321 H   0  0  0  0  0  0  0  0  0  0  0  0
   -6.2274    6.1969    2.1961 H   0  0  0  0  0  0  0  0  0  0  0  0
   -5.8001    7.7643    2.9169 H   0  0  0  0  0  0  0  0  0  0  0  0
   -2.8216    6.9000   -1.1659 H   0  0  0  0  0  0  0  0  0  0  0  0
   -1.6731    4.9158   -2.0660 H   0  0  0  0  0  0  0  0  0  0  0  0
    2.0408   -2.8919    3.3704 H   0  0  0  0  0  0  0  0  0  0  0  0
    1.4804   -2.6272    5.7269 H   0  0  0  0  0  0  0  0  0  0  0  0
    0.7850   -3.2088    7.8848 H   0  0  0  0  0  0  0  0  0  0  0  0
    1.0907   -1.4475    7.7212 H   0  0  0  0  0  0  0  0  0  0  0  0
    0.0728   -2.0632    9.0410 H   0  0  0  0  0  0  0  0  0  0  0  0
   -2.6118   -1.9497    4.6795 H   0  0  0  0  0  0  0  0  0  0  0  0
   -2.0447   -2.2419    2.2988 H   0  0  0  0  0  0  0  0  0  0  0  0
    0.6304   -5.1310    2.3778 H   0  0  0  0  0  0  0  0  0  0  0  0
    2.0214   -6.9431    1.5390 H   0  0  0  0  0  0  0  0  0  0  0  0
    4.0842   -8.1693    1.2771 H   0  0  0  0  0  0  0  0  0  0  0  0
    4.2963   -9.2353   -0.1297 H   0  0  0  0  0  0  0  0  0  0  0  0
    2.6540   -8.7772    0.3776 H   0  0  0  0  0  0  0  0  0  0  0  0
    3.5900   -4.3437   -1.4753 H   0  0  0  0  0  0  0  0  0  0  0  0
    2.2027   -2.5064   -0.6096 H   0  0  0  0  0  0  0  0  0  0  0  0
    0.0399   -2.6212   -3.6292 H   0  0  0  0  0  0  0  0  0  0  0  0
    1.5212   -9.2117   -4.8300 H   0  0  0  0  0  0  0  0  0  0  0  0
    1.6185  -11.2399   -3.5330 H   0  0  0  0  0  0  0  0  0  0  0  0
    0.9637  -11.5029    2.7102 H   0  0  0  0  0  0  0  0  0  0  0  0
    2.1004  -15.5632   -0.0964 H   0  0  0  0  0  0  0  0  0  0  0  0
    1.2344  -16.5010    3.0876 H   0  0  0  0  0  0  0  0  0  0  0  0
    3.6644  -17.0187    3.2426 H   0  0  0  0  0  0  0  0  0  0  0  0
    4.9316  -14.9470    2.2746 H   0  0  0  0  0  0  0  0  0  0  0  0
    4.3499  -12.8377    3.7806 H   0  0  0  0  0  0  0  0  0  0  0  0
    2.7253  -13.6107    5.6793 H   0  0  0  0  0  0  0  0  0  0  0  0
    4.1569  -15.8346    5.5600 H   0  0  0  0  0  0  0  0  0  0  0  0
    2.4332  -16.2820    5.5206 H   0  0  0  0  0  0  0  0  0  0  0  0
    0.6684  -14.4550    4.5569 H   0  0  0  0  0  0  0  0  0  0  0  0
  1  2  2  0  0  0  0
  2  3  1  0  0  0  0
  3  4  2  0  0  0  0
  3  5  1  0  0  0  0
  5  6  2  0  0  0  0
  6  7  1  0  0  0  0
  7  8  2  0  0  0  0
  8  9  1  0  0  0  0
  9 10  2  0  0  0  0
 10 11  1  0  0  0  0
 11 12  2  0  0  0  0
 12 13  1  0  0  0  0
 13 14  3  0  0  0  0
 12 15  1  0  0  0  0
 15 16  3  0  0  0  0
  8 17  1  0  0  0  0
 17 18  1  0  0  0  0
 18 19  1  0  0  0  0
 19 20  2  0  0  0  0
 20 21  1  0  0  0  0
 21 22  1  0  0  0  0
 21 23  1  0  0  0  0
  1 24  1  0  0  0  0
 24 25  1  0  0  0  0
 25 26  1  0  0  0  0
 26 27  1  0  0  0  0
 27 28  2  0  0  0  0
 28 29  1  0  0  0  0
 29 30  1  0  0  0  0
 30 31  2  0  0  0  0
 30 32  1  0  0  0  0
 32 33  1  0  0  0  0
 28 34  1  0  0  0  0
 34 35  2  0  0  0  0
 35 36  1  0  0  0  0
 35 37  1  0  0  0  0
 37 38  2  0  0  0  0
 38 39  1  0  0  0  0
 39 40  1  0  0  0  0
 40 41  2  0  0  0  0
 41 42  1  0  0  0  0
 42 43  2  0  0  0  0
 43 44  1  0  0  0  0
 44 45  1  0  0  0  0
 43 46  1  0  0  0  0
 46 47  2  0  0  0  0
 39 48  1  0  0  0  0
 48 49  2  0  0  0  0
 49 50  1  0  0  0  0
 50 51  2  0  0  0  0
 51 52  1  0  0  0  0
 52 53  1  0  0  0  0
 51 54  1  0  0  0  0
 54 55  2  0  0  0  0
 38 56  1  0  0  0  0
 56 57  1  0  0  0  0
 57 58  1  0  0  0  0
 58 59  2  0  0  0  0
 59 60  1  0  0  0  0
 60 61  1  0  0  0  0
 61 62  2  0  0  0  0
 62 63  1  0  0  0  0
 63 64  2  0  0  0  0
 64 65  1  0  0  0  0
 65 66  1  0  0  0  0
 64 67  1  0  0  0  0
 67 68  2  0  0  0  0
 60 69  1  0  0  0  0
 69 70  2  0  0  0  0
 70 71  1  0  0  0  0
 71 72  2  0  0  0  0
 72 73  1  0  0  0  0
 73 74  1  0  0  0  0
 72 75  1  0  0  0  0
 75 76  2  0  0  0  0
 59 77  1  0  0  0  0
 77 78  1  0  0  0  0
 58 79  1  0  0  0  0
 79 80  1  0  0  0  0
 80 81  1  0  0  0  0
 81 82  1  0  0  0  0
 82 83  2  0  0  0  0
 83 84  1  0  0  0  0
 84 85  1  0  0  0  0
 85 86  2  0  0  0  0
 85 87  1  0  0  0  0
 87 88  1  0  0  0  0
 83 89  1  0  0  0  0
 89 90  2  0  0  0  0
 90 91  1  0  0  0  0
 90 92  1  0  0  0  0
 92 93  2  0  0  0  0
 93 94  1  0  0  0  0
 94 95  2  0  0  0  0
 94 96  1  0  0  0  0
 96 97  2  0  0  0  0
 97 98  1  0  0  0  0
 98 99  2  0  0  0  0
 99100  1  0  0  0  0
100101  2  0  0  0  0
101102  1  0  0  0  0
102103  2  0  0  0  0
103104  1  0  0  0  0
104105  3  0  0  0  0
103106  1  0  0  0  0
106107  3  0  0  0  0
 99108  1  0  0  0  0
108109  1  0  0  0  0
109110  1  0  0  0  0
110111  2  0  0  0  0
111112  1  0  0  0  0
112113  1  0  0  0  0
112114  1  0  0  0  0
 11  2  1  0  0  0  0
 23 17  1  0  0  0  0
 33 24  2  0  0  0  0
 78 37  1  0  0  0  0
 88 79  2  0  0  0  0
102 93  1  0  0  0  0
114108  1  0  0  0  0
 10  5  1  0  0  0  0
 22 18  1  0  0  0  0
 32 26  2  0  0  0  0
 47 40  1  0  0  0  0
 55 48  1  0  0  0  0
 77 56  2  0  0  0  0
 87 81  2  0  0  0  0
101 96  1  0  0  0  0
113109  1  0  0  0  0
 23  7  1  0  0  0  0
 36 27  1  0  0  0  0
 68 61  1  0  0  0  0
 76 69  1  0  0  0  0
 91 82  1  0  0  0  0
114 98  1  0  0  0  0
  1115  1  0  0  0  0
  6116  1  0  0  0  0
  9117  1  0  0  0  0
 17118  1  0  0  0  0
 18119  1  0  0  0  0
 19120  1  0  0  0  0
 20121  1  0  0  0  0
 21122  1  0  0  0  0
 22123  1  0  0  0  0
 22124  1  0  0  0  0
 23125  1  0  0  0  0
 33126  1  0  0  0  0
 34127  1  0  0  0  0
 41128  1  0  0  0  0
 42129  1  0  0  0  0
 45130  1  0  0  0  0
 45131  1  0  0  0  0
 45132  1  0  0  0  0
 46133  1  0  0  0  0
 47134  1  0  0  0  0
 49135  1  0  0  0  0
 50136  1  0  0  0  0
 53137  1  0  0  0  0
 53138  1  0  0  0  0
 53139  1  0  0  0  0
 54140  1  0  0  0  0
 55141  1  0  0  0  0
 62142  1  0  0  0  0
 63143  1  0  0  0  0
 66144  1  0  0  0  0
 66145  1  0  0  0  0
 66146  1  0  0  0  0
 67147  1  0  0  0  0
 68148  1  0  0  0  0
 70149  1  0  0  0  0
 71150  1  0  0  0  0
 74151  1  0  0  0  0
 74152  1  0  0  0  0
 74153  1  0  0  0  0
 75154  1  0  0  0  0
 76155  1  0  0  0  0
 88156  1  0  0  0  0
 89157  1  0  0  0  0
 92158  1  0  0  0  0
 97159  1  0  0  0  0
100160  1  0  0  0  0
108161  1  0  0  0  0
109162  1  0  0  0  0
110163  1  0  0  0  0
111164  1  0  0  0  0
112165  1  0  0  0  0
113166  1  0  0  0  0
113167  1  0  0  0  0
114168  1  0  0  0  0
M  END
