181

C         -5.29740       -8.19210        3.78770
C         -4.75240       -9.14260        2.97910
C         -3.65870       -8.96690        1.98580
O         -3.18920       -7.94310        1.53290
C         -3.17870      -10.32520        1.67610
C         -2.12240      -10.65010        0.82740
C         -1.88210      -11.99800        0.72580
C         -2.63030      -12.95450        1.42650
C         -3.67890      -12.64740        2.26030
C         -3.94750      -11.27900        2.37000
C         -4.97030      -10.57520        3.13580
C         -6.00060      -11.16530        3.81770
C         -7.04720      -10.47970        4.47240
N         -7.94580      -10.00940        5.01120
C         -6.18440      -12.55930        3.93400
N         -6.38890      -13.68010        4.07590
C         -1.82380      -14.10320        0.87470
C         -0.75710      -14.74510        1.79650
C         -0.32570      -13.67490        2.76820
C          0.37640      -12.77390        2.09410
C          0.43080      -13.21810        0.65320
C          0.44660      -14.74340        0.84040
C         -0.99870      -13.03870        0.08520
C         -5.12540       -6.76870        3.72870
C         -4.89200       -6.09410        2.52890
C         -4.56920       -4.75290        2.58450
N         -4.18630       -3.91830        1.56450
C         -3.96680       -4.35040        0.20810
C         -5.25010       -4.32100       -0.61780
C         -3.89000       -2.69210        2.09770
C         -4.09830       -2.72520        3.50290
C         -4.53860       -4.04710        3.81470
C         -4.87990       -4.70540        4.99510
C         -5.17040       -6.04660        4.94340
C         -3.79490       -1.60860        4.27640
C         -3.30390       -0.48520        3.65460
C         -3.13520       -0.43710        2.26110
C         -3.42050       -1.54810        1.47450
C         -2.63650        0.77860        1.63930
C         -3.09870        1.41750        0.50640
N         -4.24470        1.07030       -0.19970
C         -4.26820        1.24980       -1.58840
C         -5.42830        1.68700       -2.22180
C         -5.45650        1.88300       -3.58820
C         -4.31710        1.65290       -4.34770
S         -4.22410        1.88200       -6.09670
C         -5.87910        2.46750       -6.55240
C         -3.15590        1.20850       -3.72020
C         -3.13120        1.00310       -2.35900
C         -5.31850        0.45940        0.45750
C         -5.64970        0.81320        1.76400
C         -6.58710        0.09200        2.47390
C         -7.22490       -0.98980        1.88220
S         -8.33630       -2.05150        2.75560
C         -7.72970       -1.91600        4.46400
C         -6.98790       -1.27060        0.54100
C         -6.04040       -0.56050       -0.16360
C         -2.27830        2.53250        0.18180
S         -2.22030        3.67300       -1.12640
C         -0.79210        4.40730       -0.44610
C         -0.37770        3.79680        0.71070
N          0.80970        4.15100        1.36670
C          0.77120        4.52770        2.70220
C          1.89870        4.43050        3.51530
C          1.84300        4.78380        4.84930
C          0.65250        5.22840        5.40570
S          0.45660        5.69910        7.10010
C          2.08300        5.36850        7.83530
C         -0.48000        5.32190        4.60130
C         -0.42240        4.98250        3.26880
C          1.99090        4.06850        0.61640
C          2.96710        5.06550        0.65160
C          4.09650        4.96310       -0.13210
C          4.28300        3.85990       -0.96290
S          5.77200        3.82050       -1.91550
C          5.71890        2.18870       -2.72760
C          3.31390        2.86850       -1.00880
C          2.18100        2.97660       -0.22680
C         -1.23880        2.73360        1.07430
S         -1.25690        1.58720        2.36090
C         -0.02400        5.50390       -1.04120
C          0.84930        5.23390       -2.08420
C          1.80080        6.19140       -2.39610
N          2.88070        6.10080       -3.23510
C          3.19490        4.99180       -4.09420
C          2.62270        5.18830       -5.49680
C          3.63500        7.23870       -3.09420
C          2.99290        8.12480       -2.19130
C          1.82570        7.44130       -1.72610
C          0.87740        7.72870       -0.75220
C         -0.02480        6.74950       -0.40040
C          3.56600        9.35880       -1.90340
C          4.78660        9.67120       -2.45880
C          5.47340        8.74430       -3.25990
C          4.87610        7.53810       -3.61920
C          6.83260        9.01530       -3.68410
C          7.82240        8.10250       -3.54260
C          7.71180        6.88770       -2.68130
O          6.81780        6.59070       -1.92080
C          8.99700        6.18210       -2.83580
C          9.35160        4.96730       -2.28710
C         10.62710        4.47400       -2.56270
O         11.10840        3.29540       -2.11380
C         10.28590        2.49990       -1.28900
C         11.50070        5.22550       -3.36460
C         11.13820        6.44380       -3.90060
C          9.86320        6.93940       -3.64050
C          9.18420        8.15450       -4.06340
C          9.72240        9.14280       -4.84320
C         11.04820        9.13380       -5.32570
N         12.11500        9.18680       -5.74650
C          9.04330       10.30280       -5.27050
N          8.55860       11.26620       -5.66530
H         -5.86470       -8.54190        4.64320
H         -1.56930       -9.87950        0.31320
H         -4.24390      -13.39480        2.79190
H         -2.37860      -14.84580        0.30480
H         -1.05090      -15.69680        2.23080
H         -0.61450      -13.65380        3.80270
H          0.79100      -11.84990        2.45240
H          1.21750      -12.78000        0.04440
H          0.26950      -15.29560       -0.08150
H          1.36050      -15.09990        1.31310
H         -1.02290      -13.08050       -1.00210
H         -4.96820       -6.61200        1.58990
H         -3.21600       -3.69830       -0.24420
H         -3.56250       -5.36670        0.23980
H         -6.01480       -4.93730       -0.15190
H         -5.05780       -4.69930       -1.61830
H         -5.62450       -3.30440       -0.69110
H         -4.89690       -4.17230        5.93400
H         -5.40340       -6.58100        5.85250
H         -3.93130       -1.63170        5.34750
H         -3.05180        0.38980        4.23520
H         -3.25840       -1.51270        0.40820
H         -6.31390        1.87770       -1.63390
H         -6.37160        2.22530       -4.04360
H         -6.62040        1.70910       -6.31850
H         -6.09500        3.40290       -6.04490
H         -5.84580        2.63010       -7.62530
H         -2.27660        1.02120       -4.31720
H         -2.23010        0.64430       -1.88340
H         -5.15180        1.64720        2.23480
H         -6.81010        0.37540        3.49020
H         -8.12330       -1.02180        4.93780
H         -6.64430       -1.91040        4.45070
H         -8.09220       -2.79820        4.98120
H         -7.53590       -2.07340        0.07150
H         -5.82890       -0.81200       -1.19310
H          2.82660        4.06520        3.10180
H          2.73850        4.69570        5.44340
H          1.98470        5.61880        8.88720
H          2.83640        6.00160        7.37470
H          2.33020        4.31630        7.72740
H         -1.40480        5.67050        5.03510
H         -1.30730        5.07020        2.65630
H          2.82470        5.92780        1.28480
H          4.84420        5.74160       -0.12680
H          6.64320        2.11240       -3.29200
H          5.67630        1.40110       -1.98150
H          4.87480        2.13010       -3.40830
H          3.42650        2.00190       -1.64100
H          1.43160        2.19930       -0.26640
H          0.82430        4.27030       -2.57000
H          2.78530        4.08340       -3.64500
H          4.28230        4.89030       -4.13980
H          2.87340        4.33970       -6.12820
H          3.02980        6.09070       -5.94650
H          1.54020        5.28280       -5.45220
H          0.88170        8.68220       -0.24690
H         -0.72910        6.92190        0.39960
H          3.06800       10.05200       -1.24280
H          5.26440       10.61140       -2.22720
H          5.39310        6.85940       -4.28020
H          7.03660        9.98990       -4.10800
H          8.63190        4.44270       -1.67950
H          9.37050        2.19970       -1.80740
H         10.02370        3.02150       -0.36410
H         10.87550        1.61610       -1.05270
H         12.48090        4.81660       -3.55270
H         11.84200        6.98890       -4.50790
