
  xtb     02092218263D
 energy: -429.841295371243 gnorm: 0.000578934891 xtb: 6.4.1 (unknown)
270298  0     0  0            999 V2000
    7.1027   -0.1553   -7.9500 C   0  0  0  0  0  0  0  0  0  0  0  0
    6.9682   -0.6067   -9.2431 C   0  0  0  0  0  0  0  0  0  0  0  0
    6.0485   -1.6798   -9.6548 C   0  0  0  0  0  0  0  0  0  0  0  0
    5.2444   -2.2727   -8.9592 O   0  0  0  0  0  0  0  0  0  0  0  0
    6.3917   -1.9845  -11.0595 C   0  0  0  0  0  0  0  0  0  0  0  0
    5.8080   -2.9485  -11.8753 C   0  0  0  0  0  0  0  0  0  0  0  0
    6.3409   -3.0083  -13.1414 C   0  0  0  0  0  0  0  0  0  0  0  0
    7.3846   -2.1761  -13.5632 C   0  0  0  0  0  0  0  0  0  0  0  0
    7.9706   -1.2203  -12.7666 C   0  0  0  0  0  0  0  0  0  0  0  0
    7.4383   -1.1406  -11.4786 C   0  0  0  0  0  0  0  0  0  0  0  0
    7.7831   -0.2500  -10.3728 C   0  0  0  0  0  0  0  0  0  0  0  0
    8.6117    0.8427  -10.4446 C   0  0  0  0  0  0  0  0  0  0  0  0
    9.3318    1.2236  -11.5920 C   0  0  0  0  0  0  0  0  0  0  0  0
    9.9431    1.5886  -12.4938 N   0  0  0  0  0  0  0  0  0  0  0  0
    8.7877    1.7656   -9.3945 C   0  0  0  0  0  0  0  0  0  0  0  0
    8.9507    2.5745   -8.5952 N   0  0  0  0  0  0  0  0  0  0  0  0
    7.4360   -2.8007  -14.9353 C   0  0  0  0  0  0  0  0  0  0  0  0
    8.5765   -3.8068  -15.2273 C   0  0  0  0  0  0  0  0  0  0  0  0
    8.9700   -4.4063  -13.9002 C   0  0  0  0  0  0  0  0  0  0  0  0
    7.9793   -5.1929  -13.5016 C   0  0  0  0  0  0  0  0  0  0  0  0
    6.8981   -5.1396  -14.5526 C   0  0  0  0  0  0  0  0  0  0  0  0
    7.7566   -4.9661  -15.8156 C   0  0  0  0  0  0  0  0  0  0  0  0
    6.2698   -3.7267  -14.4662 C   0  0  0  0  0  0  0  0  0  0  0  0
    6.1281   -0.2152   -6.9475 C   0  0  0  0  0  0  0  0  0  0  0  0
    4.7226   -0.2628   -7.0253 C   0  0  0  0  0  0  0  0  0  0  0  0
    3.9609   -0.1244   -8.1575 N   0  0  0  0  0  0  0  0  0  0  0  0
    4.4038    0.6417   -9.2449 C   0  0  0  0  0  0  0  0  0  0  0  0
    4.1488    0.2165  -10.5478 C   0  0  0  0  0  0  0  0  0  0  0  0
    4.6157    0.9541  -11.6207 C   0  0  0  0  0  0  0  0  0  0  0  0
    5.3293    2.1217  -11.4102 C   0  0  0  0  0  0  0  0  0  0  0  0
    5.5548    2.5650  -10.1156 C   0  0  0  0  0  0  0  0  0  0  0  0
    5.0972    1.8336   -9.0379 C   0  0  0  0  0  0  0  0  0  0  0  0
    2.6741   -0.6882   -8.1906 C   0  0  0  0  0  0  0  0  0  0  0  0
    2.4454   -1.9493   -7.6455 C   0  0  0  0  0  0  0  0  0  0  0  0
    1.1707   -2.4816   -7.6507 C   0  0  0  0  0  0  0  0  0  0  0  0
    0.1155   -1.7714   -8.1993 C   0  0  0  0  0  0  0  0  0  0  0  0
    0.3463   -0.5288   -8.7656 C   0  0  0  0  0  0  0  0  0  0  0  0
    1.6173    0.0121   -8.7652 C   0  0  0  0  0  0  0  0  0  0  0  0
    4.1559   -0.3065   -5.7349 C   0  0  0  0  0  0  0  0  0  0  0  0
    2.5265   -0.2720   -5.1543 S   0  0  0  0  0  0  0  0  0  0  0  0
    3.0923   -0.0406   -3.5100 C   0  0  0  0  0  0  0  0  0  0  0  0
    4.4768   -0.0461   -3.4265 C   0  0  0  0  0  0  0  0  0  0  0  0
    5.1793    0.1858   -2.2373 N   0  0  0  0  0  0  0  0  0  0  0  0
    6.0873   -0.7782   -1.8002 C   0  0  0  0  0  0  0  0  0  0  0  0
    7.2664   -0.4257   -1.1461 C   0  0  0  0  0  0  0  0  0  0  0  0
    8.1539   -1.4037   -0.7447 C   0  0  0  0  0  0  0  0  0  0  0  0
    7.8862   -2.7421   -0.9865 C   0  0  0  0  0  0  0  0  0  0  0  0
    6.7162   -3.0961   -1.6378 C   0  0  0  0  0  0  0  0  0  0  0  0
    5.8215   -2.1256   -2.0424 C   0  0  0  0  0  0  0  0  0  0  0  0
    5.1240    1.4752   -1.6899 C   0  0  0  0  0  0  0  0  0  0  0  0
    5.0019    2.5876   -2.5188 C   0  0  0  0  0  0  0  0  0  0  0  0
    4.9240    3.8548   -1.9720 C   0  0  0  0  0  0  0  0  0  0  0  0
    4.9691    4.0297   -0.5995 C   0  0  0  0  0  0  0  0  0  0  0  0
    5.0950    2.9244    0.2262 C   0  0  0  0  0  0  0  0  0  0  0  0
    5.1693    1.6542   -0.3099 C   0  0  0  0  0  0  0  0  0  0  0  0
    5.0704   -0.2018   -4.6936 C   0  0  0  0  0  0  0  0  0  0  0  0
    6.6906   -0.1052   -5.2708 S   0  0  0  0  0  0  0  0  0  0  0  0
    2.1838    0.0336   -2.4183 C   0  0  0  0  0  0  0  0  0  0  0  0
    0.8777    0.5091   -2.3822 C   0  0  0  0  0  0  0  0  0  0  0  0
    0.2009    1.1515   -3.4010 N   0  0  0  0  0  0  0  0  0  0  0  0
   -1.1963    1.0079   -3.4656 C   0  0  0  0  0  0  0  0  0  0  0  0
   -2.0056    2.1202   -3.6726 C   0  0  0  0  0  0  0  0  0  0  0  0
   -3.3799    1.9944   -3.6993 C   0  0  0  0  0  0  0  0  0  0  0  0
   -3.9673    0.7480   -3.5239 C   0  0  0  0  0  0  0  0  0  0  0  0
   -5.7106    0.4831   -3.5171 S   0  0  0  0  0  0  0  0  0  0  0  0
   -6.3659    2.0084   -4.2551 C   0  0  0  0  0  0  0  0  0  0  0  0
   -3.1600   -0.3703   -3.3299 C   0  0  0  0  0  0  0  0  0  0  0  0
   -1.7889   -0.2443   -3.3045 C   0  0  0  0  0  0  0  0  0  0  0  0
    0.8444    1.9772   -4.3291 C   0  0  0  0  0  0  0  0  0  0  0  0
    0.4100    2.0012   -5.6535 C   0  0  0  0  0  0  0  0  0  0  0  0
    1.0778    2.7468   -6.6047 C   0  0  0  0  0  0  0  0  0  0  0  0
    2.1985    3.4829   -6.2467 C   0  0  0  0  0  0  0  0  0  0  0  0
    3.1901    4.4156   -7.3719 S   0  0  0  0  0  0  0  0  0  0  0  0
    2.3540    4.2316   -8.9698 C   0  0  0  0  0  0  0  0  0  0  0  0
    2.6052    3.5002   -4.9134 C   0  0  0  0  0  0  0  0  0  0  0  0
    1.9375    2.7627   -3.9627 C   0  0  0  0  0  0  0  0  0  0  0  0
    0.2945    0.2608   -1.1147 C   0  0  0  0  0  0  0  0  0  0  0  0
   -1.2575    0.5788   -0.4296 S   0  0  0  0  0  0  0  0  0  0  0  0
   -0.7910   -0.2122    1.0777 C   0  0  0  0  0  0  0  0  0  0  0  0
    0.5011   -0.7275    1.0187 C   0  0  0  0  0  0  0  0  0  0  0  0
    1.1566   -1.4815    1.9761 N   0  0  0  0  0  0  0  0  0  0  0  0
    0.5908   -2.5805    2.6229 C   0  0  0  0  0  0  0  0  0  0  0  0
    1.1411   -3.0160    3.8319 C   0  0  0  0  0  0  0  0  0  0  0  0
    0.6082   -4.0978    4.4919 C   0  0  0  0  0  0  0  0  0  0  0  0
   -0.4962   -4.7675    3.9714 C   0  0  0  0  0  0  0  0  0  0  0  0
   -1.1163   -6.1386    4.8969 S   0  0  0  0  0  0  0  0  0  0  0  0
   -2.8488   -6.2360    4.3638 C   0  0  0  0  0  0  0  0  0  0  0  0
   -1.0422   -4.3478    2.7670 C   0  0  0  0  0  0  0  0  0  0  0  0
   -0.5023   -3.2667    2.0980 C   0  0  0  0  0  0  0  0  0  0  0  0
    2.5512   -1.2868    2.0957 C   0  0  0  0  0  0  0  0  0  0  0  0
    3.4337   -2.3436    1.8964 C   0  0  0  0  0  0  0  0  0  0  0  0
    4.7950   -2.1573    2.0280 C   0  0  0  0  0  0  0  0  0  0  0  0
    5.2903   -0.9105    2.3876 C   0  0  0  0  0  0  0  0  0  0  0  0
    7.0053   -0.5557    2.5896 S   0  0  0  0  0  0  0  0  0  0  0  0
    7.7750   -2.1969    2.6507 C   0  0  0  0  0  0  0  0  0  0  0  0
    4.4062    0.1496    2.5866 C   0  0  0  0  0  0  0  0  0  0  0  0
    3.0501   -0.0298    2.4266 C   0  0  0  0  0  0  0  0  0  0  0  0
    1.1159   -0.3994   -0.2179 C   0  0  0  0  0  0  0  0  0  0  0  0
    2.6900   -0.6657   -0.8800 S   0  0  0  0  0  0  0  0  0  0  0  0
   -1.7467   -0.1576    2.1264 C   0  0  0  0  0  0  0  0  0  0  0  0
   -2.9586    0.4845    2.0511 C   0  0  0  0  0  0  0  0  0  0  0  0
   -3.6955    0.4698    3.2512 C   0  0  0  0  0  0  0  0  0  0  0  0
   -4.9364    1.0870    3.5267 C   0  0  0  0  0  0  0  0  0  0  0  0
   -5.7392    1.7179    2.5019 C   0  0  0  0  0  0  0  0  0  0  0  0
   -6.5396    2.8211    2.6355 C   0  0  0  0  0  0  0  0  0  0  0  0
   -7.2905    3.0686    1.4769 C   0  0  0  0  0  0  0  0  0  0  0  0
   -8.4792    4.2304    1.0218 S   0  0  0  0  0  0  0  0  0  0  0  0
   -8.6933    3.4630   -0.5371 C   0  0  0  0  0  0  0  0  0  0  0  0
  -10.0637    4.1081   -1.6635 Si  0  0  0  0  0  4  0  0  0  0  0  0
  -11.7259    3.3651   -1.0685 C   0  0  0  0  0  0  0  0  0  0  0  0
  -11.9930    3.5819    0.4184 C   0  0  0  0  0  0  0  0  0  0  0  0
   -9.6806    3.5119   -3.4392 C   0  0  0  0  0  0  0  0  0  0  0  0
  -10.7330    3.9195   -4.4624 C   0  0  0  0  0  0  0  0  0  0  0  0
  -10.0504    6.0180   -1.5160 C   0  0  0  0  0  0  0  0  0  0  0  0
  -11.3650    6.6927   -1.8976 C   0  0  0  0  0  0  0  0  0  0  0  0
   -7.8744    2.3800   -0.6831 C   0  0  0  0  0  0  0  0  0  0  0  0
   -7.0765    2.1533    0.4510 C   0  0  0  0  0  0  0  0  0  0  0  0
   -5.8974    0.9771    0.9121 S   0  0  0  0  0  0  0  0  0  0  0  0
   -5.3787    1.0176    4.8450 C   0  0  0  0  0  0  0  0  0  0  0  0
   -4.7019    0.2866    5.8584 C   0  0  0  0  0  0  0  0  0  0  0  0
   -3.4963   -0.3876    5.5622 C   0  0  0  0  0  0  0  0  0  0  0  0
   -2.8299   -1.2336    6.5269 C   0  0  0  0  0  0  0  0  0  0  0  0
   -2.2290   -2.7905    5.9697 S   0  0  0  0  0  0  0  0  0  0  0  0
   -1.6724   -3.1701    7.5562 C   0  0  0  0  0  0  0  0  0  0  0  0
   -1.0156   -4.2628    8.1413 C   0  0  0  0  0  0  0  0  0  0  0  0
   -0.7697   -4.0717    9.4707 C   0  0  0  0  0  0  0  0  0  0  0  0
    0.0869   -5.2710   10.6515 Si  0  0  0  0  0  4  0  0  0  0  0  0
    1.0749   -6.5102    9.5822 C   0  0  0  0  0  0  0  0  0  0  0  0
    2.1834   -5.8590    8.7619 C   0  0  0  0  0  0  0  0  0  0  0  0
    1.2734   -4.3057   11.8040 C   0  0  0  0  0  0  0  0  0  0  0  0
    0.5656   -3.5086   12.8957 C   0  0  0  0  0  0  0  0  0  0  0  0
   -1.2764   -6.1727   11.6478 C   0  0  0  0  0  0  0  0  0  0  0  0
   -0.7300   -7.2137   12.6195 C   0  0  0  0  0  0  0  0  0  0  0  0
   -1.3672   -2.5208   10.0213 S   0  0  0  0  0  0  0  0  0  0  0  0
   -1.9441   -2.1315    8.4425 C   0  0  0  0  0  0  0  0  0  0  0  0
   -2.6078   -1.0372    7.8630 C   0  0  0  0  0  0  0  0  0  0  0  0
   -3.0096   -0.2328    4.2729 C   0  0  0  0  0  0  0  0  0  0  0  0
   -1.4697   -0.8291    3.7149 S   0  0  0  0  0  0  0  0  0  0  0  0
   -5.3849    0.3091    7.0877 C   0  0  0  0  0  0  0  0  0  0  0  0
   -6.5273    1.0689    7.0754 C   0  0  0  0  0  0  0  0  0  0  0  0
   -6.8412    1.7229    5.4685 S   0  0  0  0  0  0  0  0  0  0  0  0
   -7.4468    1.3879    8.0992 C   0  0  0  0  0  0  0  0  0  0  0  0
   -7.2756    1.3518    9.4544 C   0  0  0  0  0  0  0  0  0  0  0  0
   -6.0057    1.1948   10.2042 C   0  0  0  0  0  0  0  0  0  0  0  0
   -4.9215    0.8264    9.7999 O   0  0  0  0  0  0  0  0  0  0  0  0
   -6.2991    1.6342   11.5809 C   0  0  0  0  0  0  0  0  0  0  0  0
   -5.3859    1.7430   12.6282 C   0  0  0  0  0  0  0  0  0  0  0  0
   -5.9338    2.2032   13.8009 C   0  0  0  0  0  0  0  0  0  0  0  0
   -7.2908    2.5315   13.9250 C   0  0  0  0  0  0  0  0  0  0  0  0
   -8.2036    2.4198   12.9034 C   0  0  0  0  0  0  0  0  0  0  0  0
   -7.6659    1.9526   11.6997 C   0  0  0  0  0  0  0  0  0  0  0  0
   -8.3083    1.7101   10.4124 C   0  0  0  0  0  0  0  0  0  0  0  0
   -9.6579    1.7371   10.1766 C   0  0  0  0  0  0  0  0  0  0  0  0
  -10.2784    1.3867    8.9582 C   0  0  0  0  0  0  0  0  0  0  0  0
  -10.8656    1.0939    8.0157 N   0  0  0  0  0  0  0  0  0  0  0  0
  -10.6280    2.0730   11.1436 C   0  0  0  0  0  0  0  0  0  0  0  0
  -11.4691    2.3420   11.8775 N   0  0  0  0  0  0  0  0  0  0  0  0
   -7.1410    2.9465   15.3674 C   0  0  0  0  0  0  0  0  0  0  0  0
   -7.0986    4.4641   15.6459 C   0  0  0  0  0  0  0  0  0  0  0  0
   -6.4762    4.5624   17.0199 C   0  0  0  0  0  0  0  0  0  0  0  0
   -5.1921    4.2487   16.9046 C   0  0  0  0  0  0  0  0  0  0  0  0
   -4.9248    3.9335   15.4506 C   0  0  0  0  0  0  0  0  0  0  0  0
   -5.9077    4.9056   14.7853 C   0  0  0  0  0  0  0  0  0  0  0  0
   -5.6289    2.5776   15.2302 C   0  0  0  0  0  0  0  0  0  0  0  0
    8.0549    0.2646   -7.6481 H   0  0  0  0  0  0  0  0  0  0  0  0
    5.0072   -3.5737  -11.5112 H   0  0  0  0  0  0  0  0  0  0  0  0
    8.7792   -0.5909  -13.0997 H   0  0  0  0  0  0  0  0  0  0  0  0
    7.2503   -2.1309  -15.7729 H   0  0  0  0  0  0  0  0  0  0  0  0
    9.3861   -3.4078  -15.8326 H   0  0  0  0  0  0  0  0  0  0  0  0
    9.8743   -4.1587  -13.3758 H   0  0  0  0  0  0  0  0  0  0  0  0
    7.8905   -5.7334  -12.5774 H   0  0  0  0  0  0  0  0  0  0  0  0
    6.1795   -5.9552  -14.5439 H   0  0  0  0  0  0  0  0  0  0  0  0
    8.3640   -5.8427  -16.0358 H   0  0  0  0  0  0  0  0  0  0  0  0
    7.1806   -4.6868  -16.6969 H   0  0  0  0  0  0  0  0  0  0  0  0
    5.3221   -3.6610  -14.9980 H   0  0  0  0  0  0  0  0  0  0  0  0
    3.5933   -0.6953  -10.7090 H   0  0  0  0  0  0  0  0  0  0  0  0
    4.4303    0.6052  -12.6258 H   0  0  0  0  0  0  0  0  0  0  0  0
    5.7048    2.6868  -12.2495 H   0  0  0  0  0  0  0  0  0  0  0  0
    6.0926    3.4842   -9.9402 H   0  0  0  0  0  0  0  0  0  0  0  0
    5.2729    2.1877   -8.0336 H   0  0  0  0  0  0  0  0  0  0  0  0
    3.2787   -2.5100   -7.2529 H   0  0  0  0  0  0  0  0  0  0  0  0
    1.0016   -3.4613   -7.2298 H   0  0  0  0  0  0  0  0  0  0  0  0
   -0.8802   -2.1884   -8.1965 H   0  0  0  0  0  0  0  0  0  0  0  0
   -0.4692    0.0251   -9.2075 H   0  0  0  0  0  0  0  0  0  0  0  0
    1.7990    0.9789   -9.2111 H   0  0  0  0  0  0  0  0  0  0  0  0
    7.4911    0.6144   -0.9669 H   0  0  0  0  0  0  0  0  0  0  0  0
    9.0678   -1.1151   -0.2464 H   0  0  0  0  0  0  0  0  0  0  0  0
    8.5891   -3.5034   -0.6799 H   0  0  0  0  0  0  0  0  0  0  0  0
    6.4973   -4.1362   -1.8310 H   0  0  0  0  0  0  0  0  0  0  0  0
    4.9068   -2.4039   -2.5455 H   0  0  0  0  0  0  0  0  0  0  0  0
    4.9838    2.4549   -3.5904 H   0  0  0  0  0  0  0  0  0  0  0  0
    4.8404    4.7133   -2.6222 H   0  0  0  0  0  0  0  0  0  0  0  0
    4.9117    5.0212   -0.1766 H   0  0  0  0  0  0  0  0  0  0  0  0
    5.1333    3.0530    1.2975 H   0  0  0  0  0  0  0  0  0  0  0  0
    5.2593    0.7912    0.3293 H   0  0  0  0  0  0  0  0  0  0  0  0
   -1.5510    3.0918   -3.7983 H   0  0  0  0  0  0  0  0  0  0  0  0
   -3.9810    2.8783   -3.8380 H   0  0  0  0  0  0  0  0  0  0  0  0
   -7.4085    1.8047   -4.4770 H   0  0  0  0  0  0  0  0  0  0  0  0
   -5.8300    2.2269   -5.1738 H   0  0  0  0  0  0  0  0  0  0  0  0
   -6.2950    2.8307   -3.5483 H   0  0  0  0  0  0  0  0  0  0  0  0
   -3.6233   -1.3364   -3.2020 H   0  0  0  0  0  0  0  0  0  0  0  0
   -1.1650   -1.1145   -3.1637 H   0  0  0  0  0  0  0  0  0  0  0  0
   -0.4407    1.4036   -5.9448 H   0  0  0  0  0  0  0  0  0  0  0  0
    0.7218    2.7287   -7.6214 H   0  0  0  0  0  0  0  0  0  0  0  0
    2.3859    3.1945   -9.2912 H   0  0  0  0  0  0  0  0  0  0  0  0
    1.3338    4.5977   -8.9010 H   0  0  0  0  0  0  0  0  0  0  0  0
    2.9203    4.8419   -9.6664 H   0  0  0  0  0  0  0  0  0  0  0  0
    3.4539    4.1054   -4.6365 H   0  0  0  0  0  0  0  0  0  0  0  0
    2.2681    2.7831   -2.9348 H   0  0  0  0  0  0  0  0  0  0  0  0
    1.9806   -2.4869    4.2561 H   0  0  0  0  0  0  0  0  0  0  0  0
    1.0314   -4.4267    5.4285 H   0  0  0  0  0  0  0  0  0  0  0  0
   -3.3471   -6.8785    5.0829 H   0  0  0  0  0  0  0  0  0  0  0  0
   -3.2817   -5.2406    4.3883 H   0  0  0  0  0  0  0  0  0  0  0  0
   -2.9173   -6.6742    3.3723 H   0  0  0  0  0  0  0  0  0  0  0  0
   -1.8868   -4.8595    2.3337 H   0  0  0  0  0  0  0  0  0  0  0  0
   -0.9330   -2.9540    1.1582 H   0  0  0  0  0  0  0  0  0  0  0  0
    3.0464   -3.3158    1.6303 H   0  0  0  0  0  0  0  0  0  0  0  0
    5.4575   -2.9860    1.8397 H   0  0  0  0  0  0  0  0  0  0  0  0
    7.7175   -2.6704    1.6747 H   0  0  0  0  0  0  0  0  0  0  0  0
    7.2918   -2.7967    3.4163 H   0  0  0  0  0  0  0  0  0  0  0  0
    8.8133   -2.0238    2.9160 H   0  0  0  0  0  0  0  0  0  0  0  0
    4.8003    1.1117    2.8748 H   0  0  0  0  0  0  0  0  0  0  0  0
    2.3668    0.7929    2.5753 H   0  0  0  0  0  0  0  0  0  0  0  0
   -3.2882    0.9736    1.1524 H   0  0  0  0  0  0  0  0  0  0  0  0
   -6.5686    3.4414    3.5116 H   0  0  0  0  0  0  0  0  0  0  0  0
  -11.7411    2.2932   -1.2750 H   0  0  0  0  0  0  0  0  0  0  0  0
  -12.5451    3.8011   -1.6421 H   0  0  0  0  0  0  0  0  0  0  0  0
  -11.9934    4.6411    0.6627 H   0  0  0  0  0  0  0  0  0  0  0  0
  -12.9578    3.1655    0.7019 H   0  0  0  0  0  0  0  0  0  0  0  0
  -11.2264    3.1000    1.0196 H   0  0  0  0  0  0  0  0  0  0  0  0
   -8.7134    3.9026   -3.7567 H   0  0  0  0  0  0  0  0  0  0  0  0
   -9.5963    2.4246   -3.4403 H   0  0  0  0  0  0  0  0  0  0  0  0
  -11.7116    3.5418   -4.1786 H   0  0  0  0  0  0  0  0  0  0  0  0
  -10.7927    5.0017   -4.5394 H   0  0  0  0  0  0  0  0  0  0  0  0
  -10.4895    3.5253   -5.4481 H   0  0  0  0  0  0  0  0  0  0  0  0
   -9.8069    6.2886   -0.4870 H   0  0  0  0  0  0  0  0  0  0  0  0
   -9.2509    6.4285   -2.1360 H   0  0  0  0  0  0  0  0  0  0  0  0
  -11.6374    6.4648   -2.9248 H   0  0  0  0  0  0  0  0  0  0  0  0
  -12.1718    6.3569   -1.2519 H   0  0  0  0  0  0  0  0  0  0  0  0
  -11.2825    7.7740   -1.8010 H   0  0  0  0  0  0  0  0  0  0  0  0
   -7.8548    1.7642   -1.5629 H   0  0  0  0  0  0  0  0  0  0  0  0
   -0.7395   -5.1517    7.6056 H   0  0  0  0  0  0  0  0  0  0  0  0
    1.5165   -7.2731   10.2235 H   0  0  0  0  0  0  0  0  0  0  0  0
    0.3957   -7.0330    8.9083 H   0  0  0  0  0  0  0  0  0  0  0  0
    2.9226   -5.3999    9.4133 H   0  0  0  0  0  0  0  0  0  0  0  0
    2.6877   -6.5962    8.1395 H   0  0  0  0  0  0  0  0  0  0  0  0
    1.7769   -5.0863    8.1143 H   0  0  0  0  0  0  0  0  0  0  0  0
    1.9698   -5.0034   12.2727 H   0  0  0  0  0  0  0  0  0  0  0  0
    1.8787   -3.6200   11.2087 H   0  0  0  0  0  0  0  0  0  0  0  0
   -0.0002   -4.1669   13.5497 H   0  0  0  0  0  0  0  0  0  0  0  0
   -0.1234   -2.7900   12.4592 H   0  0  0  0  0  0  0  0  0  0  0  0
    1.2866   -2.9639   13.5029 H   0  0  0  0  0  0  0  0  0  0  0  0
   -1.8625   -5.4392   12.2030 H   0  0  0  0  0  0  0  0  0  0  0  0
   -1.9693   -6.6606   10.9604 H   0  0  0  0  0  0  0  0  0  0  0  0
   -0.0509   -6.7560   13.3344 H   0  0  0  0  0  0  0  0  0  0  0  0
   -0.1869   -7.9883   12.0842 H   0  0  0  0  0  0  0  0  0  0  0  0
   -1.5384   -7.6873   13.1740 H   0  0  0  0  0  0  0  0  0  0  0  0
   -2.8764   -0.1439    8.3964 H   0  0  0  0  0  0  0  0  0  0  0  0
   -5.0602   -0.2337    7.9526 H   0  0  0  0  0  0  0  0  0  0  0  0
   -8.3909    1.7757    7.7336 H   0  0  0  0  0  0  0  0  0  0  0  0
   -4.3495    1.4782   12.4886 H   0  0  0  0  0  0  0  0  0  0  0  0
   -9.2437    2.6770   13.0141 H   0  0  0  0  0  0  0  0  0  0  0  0
   -7.7488    2.3990   16.0851 H   0  0  0  0  0  0  0  0  0  0  0  0
   -8.0432    4.9804   15.4980 H   0  0  0  0  0  0  0  0  0  0  0  0
   -7.0279    4.7883   17.9135 H   0  0  0  0  0  0  0  0  0  0  0  0
   -4.4567    4.1601   17.6827 H   0  0  0  0  0  0  0  0  0  0  0  0
   -3.8886    3.9670   15.1249 H   0  0  0  0  0  0  0  0  0  0  0  0
   -5.6382    5.9462   14.9588 H   0  0  0  0  0  0  0  0  0  0  0  0
   -6.0441    4.7382   13.7185 H   0  0  0  0  0  0  0  0  0  0  0  0
   -5.2278    1.7824   15.8557 H   0  0  0  0  0  0  0  0  0  0  0  0
  1  2  2  0  0  0  0
  2  3  1  0  0  0  0
  3  4  2  0  0  0  0
  3  5  1  0  0  0  0
  5  6  2  0  0  0  0
  6  7  1  0  0  0  0
  7  8  2  0  0  0  0
  8  9  1  0  0  0  0
  9 10  2  0  0  0  0
 10 11  1  0  0  0  0
 11 12  2  0  0  0  0
 12 13  1  0  0  0  0
 13 14  3  0  0  0  0
 12 15  1  0  0  0  0
 15 16  3  0  0  0  0
  8 17  1  0  0  0  0
 17 18  1  0  0  0  0
 18 19  1  0  0  0  0
 19 20  2  0  0  0  0
 20 21  1  0  0  0  0
 21 22  1  0  0  0  0
 21 23  1  0  0  0  0
  1 24  1  0  0  0  0
 24 25  2  0  0  0  0
 25 26  1  0  0  0  0
 26 27  1  0  0  0  0
 27 28  2  0  0  0  0
 28 29  1  0  0  0  0
 29 30  2  0  0  0  0
 30 31  1  0  0  0  0
 31 32  2  0  0  0  0
 26 33  1  0  0  0  0
 33 34  2  0  0  0  0
 34 35  1  0  0  0  0
 35 36  2  0  0  0  0
 36 37  1  0  0  0  0
 37 38  2  0  0  0  0
 25 39  1  0  0  0  0
 39 40  1  0  0  0  0
 40 41  1  0  0  0  0
 41 42  2  0  0  0  0
 42 43  1  0  0  0  0
 43 44  1  0  0  0  0
 44 45  2  0  0  0  0
 45 46  1  0  0  0  0
 46 47  2  0  0  0  0
 47 48  1  0  0  0  0
 48 49  2  0  0  0  0
 43 50  1  0  0  0  0
 50 51  2  0  0  0  0
 51 52  1  0  0  0  0
 52 53  2  0  0  0  0
 53 54  1  0  0  0  0
 54 55  2  0  0  0  0
 42 56  1  0  0  0  0
 56 57  1  0  0  0  0
 41 58  1  0  0  0  0
 58 59  2  0  0  0  0
 59 60  1  0  0  0  0
 60 61  1  0  0  0  0
 61 62  2  0  0  0  0
 62 63  1  0  0  0  0
 63 64  2  0  0  0  0
 64 65  1  0  0  0  0
 65 66  1  0  0  0  0
 64 67  1  0  0  0  0
 67 68  2  0  0  0  0
 60 69  1  0  0  0  0
 69 70  2  0  0  0  0
 70 71  1  0  0  0  0
 71 72  2  0  0  0  0
 72 73  1  0  0  0  0
 73 74  1  0  0  0  0
 72 75  1  0  0  0  0
 75 76  2  0  0  0  0
 59 77  1  0  0  0  0
 77 78  1  0  0  0  0
 78 79  1  0  0  0  0
 79 80  2  0  0  0  0
 80 81  1  0  0  0  0
 81 82  1  0  0  0  0
 82 83  2  0  0  0  0
 83 84  1  0  0  0  0
 84 85  2  0  0  0  0
 85 86  1  0  0  0  0
 86 87  1  0  0  0  0
 85 88  1  0  0  0  0
 88 89  2  0  0  0  0
 81 90  1  0  0  0  0
 90 91  2  0  0  0  0
 91 92  1  0  0  0  0
 92 93  2  0  0  0  0
 93 94  1  0  0  0  0
 94 95  1  0  0  0  0
 93 96  1  0  0  0  0
 96 97  2  0  0  0  0
 80 98  1  0  0  0  0
 98 99  1  0  0  0  0
 79100  1  0  0  0  0
100101  2  0  0  0  0
101102  1  0  0  0  0
102103  2  0  0  0  0
103104  1  0  0  0  0
104105  2  0  0  0  0
105106  1  0  0  0  0
106107  1  0  0  0  0
107108  1  0  0  0  0
108109  1  0  0  0  0
109110  1  0  0  0  0
110111  1  0  0  0  0
109112  1  0  0  0  0
112113  1  0  0  0  0
109114  1  0  0  0  0
114115  1  0  0  0  0
108116  2  0  0  0  0
116117  1  0  0  0  0
117118  1  0  0  0  0
103119  1  0  0  0  0
119120  2  0  0  0  0
120121  1  0  0  0  0
121122  1  0  0  0  0
122123  1  0  0  0  0
123124  1  0  0  0  0
124125  1  0  0  0  0
125126  2  0  0  0  0
126127  1  0  0  0  0
127128  1  0  0  0  0
128129  1  0  0  0  0
127130  1  0  0  0  0
130131  1  0  0  0  0
127132  1  0  0  0  0
132133  1  0  0  0  0
126134  1  0  0  0  0
134135  1  0  0  0  0
135136  1  0  0  0  0
121137  2  0  0  0  0
137138  1  0  0  0  0
120139  1  0  0  0  0
139140  2  0  0  0  0
140141  1  0  0  0  0
140142  1  0  0  0  0
142143  2  0  0  0  0
143144  1  0  0  0  0
144145  2  0  0  0  0
144146  1  0  0  0  0
146147  2  0  0  0  0
147148  1  0  0  0  0
148149  2  0  0  0  0
149150  1  0  0  0  0
150151  2  0  0  0  0
151152  1  0  0  0  0
152153  2  0  0  0  0
153154  1  0  0  0  0
154155  3  0  0  0  0
153156  1  0  0  0  0
156157  3  0  0  0  0
149158  1  0  0  0  0
158159  1  0  0  0  0
159160  1  0  0  0  0
160161  2  0  0  0  0
161162  1  0  0  0  0
162163  1  0  0  0  0
162164  1  0  0  0  0
 11  2  1  0  0  0  0
 23 17  1  0  0  0  0
 57 24  1  0  0  0  0
 99 58  1  0  0  0  0
138100  1  0  0  0  0
152143  1  0  0  0  0
164158  1  0  0  0  0
 10  5  1  0  0  0  0
 22 18  1  0  0  0  0
 32 27  1  0  0  0  0
 38 33  1  0  0  0  0
 56 39  2  0  0  0  0
 68 61  1  0  0  0  0
 76 69  1  0  0  0  0
 98 77  2  0  0  0  0
137102  1  0  0  0  0
151146  1  0  0  0  0
163159  1  0  0  0  0
 23  7  1  0  0  0  0
 49 44  1  0  0  0  0
 55 50  1  0  0  0  0
 89 82  1  0  0  0  0
 97 90  1  0  0  0  0
118104  1  0  0  0  0
141119  1  0  0  0  0
164148  1  0  0  0  0
117106  2  0  0  0  0
136122  2  0  0  0  0
135124  2  0  0  0  0
  1165  1  0  0  0  0
  6166  1  0  0  0  0
  9167  1  0  0  0  0
 17168  1  0  0  0  0
 18169  1  0  0  0  0
 19170  1  0  0  0  0
 20171  1  0  0  0  0
 21172  1  0  0  0  0
 22173  1  0  0  0  0
 22174  1  0  0  0  0
 23175  1  0  0  0  0
 28176  1  0  0  0  0
 29177  1  0  0  0  0
 30178  1  0  0  0  0
 31179  1  0  0  0  0
 32180  1  0  0  0  0
 34181  1  0  0  0  0
 35182  1  0  0  0  0
 36183  1  0  0  0  0
 37184  1  0  0  0  0
 38185  1  0  0  0  0
 45186  1  0  0  0  0
 46187  1  0  0  0  0
 47188  1  0  0  0  0
 48189  1  0  0  0  0
 49190  1  0  0  0  0
 51191  1  0  0  0  0
 52192  1  0  0  0  0
 53193  1  0  0  0  0
 54194  1  0  0  0  0
 55195  1  0  0  0  0
 62196  1  0  0  0  0
 63197  1  0  0  0  0
 66198  1  0  0  0  0
 66199  1  0  0  0  0
 66200  1  0  0  0  0
 67201  1  0  0  0  0
 68202  1  0  0  0  0
 70203  1  0  0  0  0
 71204  1  0  0  0  0
 74205  1  0  0  0  0
 74206  1  0  0  0  0
 74207  1  0  0  0  0
 75208  1  0  0  0  0
 76209  1  0  0  0  0
 83210  1  0  0  0  0
 84211  1  0  0  0  0
 87212  1  0  0  0  0
 87213  1  0  0  0  0
 87214  1  0  0  0  0
 88215  1  0  0  0  0
 89216  1  0  0  0  0
 91217  1  0  0  0  0
 92218  1  0  0  0  0
 95219  1  0  0  0  0
 95220  1  0  0  0  0
 95221  1  0  0  0  0
 96222  1  0  0  0  0
 97223  1  0  0  0  0
101224  1  0  0  0  0
105225  1  0  0  0  0
110226  1  0  0  0  0
110227  1  0  0  0  0
111228  1  0  0  0  0
111229  1  0  0  0  0
111230  1  0  0  0  0
112231  1  0  0  0  0
112232  1  0  0  0  0
113233  1  0  0  0  0
113234  1  0  0  0  0
113235  1  0  0  0  0
114236  1  0  0  0  0
114237  1  0  0  0  0
115238  1  0  0  0  0
115239  1  0  0  0  0
115240  1  0  0  0  0
116241  1  0  0  0  0
125242  1  0  0  0  0
128243  1  0  0  0  0
128244  1  0  0  0  0
129245  1  0  0  0  0
129246  1  0  0  0  0
129247  1  0  0  0  0
130248  1  0  0  0  0
130249  1  0  0  0  0
131250  1  0  0  0  0
131251  1  0  0  0  0
131252  1  0  0  0  0
132253  1  0  0  0  0
132254  1  0  0  0  0
133255  1  0  0  0  0
133256  1  0  0  0  0
133257  1  0  0  0  0
136258  1  0  0  0  0
139259  1  0  0  0  0
142260  1  0  0  0  0
147261  1  0  0  0  0
150262  1  0  0  0  0
158263  1  0  0  0  0
159264  1  0  0  0  0
160265  1  0  0  0  0
161266  1  0  0  0  0
162267  1  0  0  0  0
163268  1  0  0  0  0
163269  1  0  0  0  0
164270  1  0  0  0  0
M  END
