
  xtb     02052201003D
 energy: -211.635711011752 gnorm: 0.000735013310 xtb: 6.4.1 (unknown)
126141  0     0  0            999 V2000
   -0.0998    5.2080    7.3736 C   0  0  0  0  0  0  0  0  0  0  0  0
   -1.4310    5.4280    7.5392 C   0  0  0  0  0  0  0  0  0  0  0  0
   -2.5484    4.7388    6.8384 C   0  0  0  0  0  0  0  0  0  0  0  0
   -2.5041    4.0090    5.8701 O   0  0  0  0  0  0  0  0  0  0  0  0
   -3.7619    5.0609    7.6105 C   0  0  0  0  0  0  0  0  0  0  0  0
   -5.0520    4.5989    7.3531 C   0  0  0  0  0  0  0  0  0  0  0  0
   -5.9976    5.0604    8.2356 C   0  0  0  0  0  0  0  0  0  0  0  0
   -5.6841    5.9135    9.3034 C   0  0  0  0  0  0  0  0  0  0  0  0
   -4.4184    6.3785    9.5670 C   0  0  0  0  0  0  0  0  0  0  0  0
   -3.4398    5.9255    8.6749 C   0  0  0  0  0  0  0  0  0  0  0  0
   -2.0111    6.2106    8.6233 C   0  0  0  0  0  0  0  0  0  0  0  0
   -1.3497    7.1181    9.4064 C   0  0  0  0  0  0  0  0  0  0  0  0
    0.0129    7.4666    9.2803 C   0  0  0  0  0  0  0  0  0  0  0  0
    1.1024    7.8270    9.2369 N   0  0  0  0  0  0  0  0  0  0  0  0
   -1.9495    7.8683   10.4402 C   0  0  0  0  0  0  0  0  0  0  0  0
   -2.3687    8.5054   11.2981 N   0  0  0  0  0  0  0  0  0  0  0  0
   -7.1119    5.9636    9.7869 C   0  0  0  0  0  0  0  0  0  0  0  0
   -7.4547    5.1001   11.0195 C   0  0  0  0  0  0  0  0  0  0  0  0
   -8.9600    4.9727   10.9630 C   0  0  0  0  0  0  0  0  0  0  0  0
   -9.2595    4.1704    9.9495 C   0  0  0  0  0  0  0  0  0  0  0  0
   -7.9615    3.7412    9.3042 C   0  0  0  0  0  0  0  0  0  0  0  0
   -7.0537    3.6989   10.5401 C   0  0  0  0  0  0  0  0  0  0  0  0
   -7.4622    5.0173    8.5939 C   0  0  0  0  0  0  0  0  0  0  0  0
    0.5635    4.4855    6.3227 C   0  0  0  0  0  0  0  0  0  0  0  0
    0.0711    4.4523    5.0182 C   0  0  0  0  0  0  0  0  0  0  0  0
    0.7379    3.6802    4.0847 C   0  0  0  0  0  0  0  0  0  0  0  0
    0.4256    3.4537    2.7696 N   0  0  0  0  0  0  0  0  0  0  0  0
   -0.7327    3.9718    2.0868 C   0  0  0  0  0  0  0  0  0  0  0  0
   -1.9866    3.1678    2.4246 C   0  0  0  0  0  0  0  0  0  0  0  0
    1.3361    2.5701    2.2559 C   0  0  0  0  0  0  0  0  0  0  0  0
    2.3055    2.2574    3.2474 C   0  0  0  0  0  0  0  0  0  0  0  0
    1.9151    2.9606    4.4249 C   0  0  0  0  0  0  0  0  0  0  0  0
    2.4323    3.0508    5.7164 C   0  0  0  0  0  0  0  0  0  0  0  0
    1.7646    3.8123    6.6428 C   0  0  0  0  0  0  0  0  0  0  0  0
    3.3640    1.4112    2.9282 C   0  0  0  0  0  0  0  0  0  0  0  0
    3.4249    0.8576    1.6708 C   0  0  0  0  0  0  0  0  0  0  0  0
    2.4343    1.1213    0.7024 C   0  0  0  0  0  0  0  0  0  0  0  0
    1.3911    2.0014    0.9971 C   0  0  0  0  0  0  0  0  0  0  0  0
    2.4487    0.5413   -0.6218 C   0  0  0  0  0  0  0  0  0  0  0  0
    1.8701    1.0775   -1.7673 C   0  0  0  0  0  0  0  0  0  0  0  0
    2.1148    0.1888   -2.8529 C   0  0  0  0  0  0  0  0  0  0  0  0
    2.8527   -0.9394   -2.3500 C   0  0  0  0  0  0  0  0  0  0  0  0
    3.2709   -1.9504   -2.8726 O   0  0  0  0  0  0  0  0  0  0  0  0
    3.0296   -0.6510   -0.9753 N   0  0  0  0  0  0  0  0  0  0  0  0
    3.6150   -1.6522   -0.1245 C   0  0  0  0  0  0  0  0  0  0  0  0
    1.6075    0.7438   -4.0164 C   0  0  0  0  0  0  0  0  0  0  0  0
    1.0510    1.9572   -3.6777 N   0  0  0  0  0  0  0  0  0  0  0  0
    0.3350    2.8648   -4.5303 C   0  0  0  0  0  0  0  0  0  0  0  0
    1.1531    2.2129   -2.2938 C   0  0  0  0  0  0  0  0  0  0  0  0
    0.6666    3.2001   -1.7739 O   0  0  0  0  0  0  0  0  0  0  0  0
    1.6416    0.1491   -5.3090 C   0  0  0  0  0  0  0  0  0  0  0  0
    1.4574    0.7170   -6.5600 C   0  0  0  0  0  0  0  0  0  0  0  0
    1.5706   -0.2126   -7.5848 C   0  0  0  0  0  0  0  0  0  0  0  0
    1.3510    0.1609   -9.2917 S   0  0  0  0  0  0  0  0  0  0  0  0
    2.6714    1.4079   -9.5243 C   0  0  0  0  0  0  0  0  0  0  0  0
    4.0427    0.7893   -9.3441 C   0  0  0  0  0  0  0  0  0  0  0  0
    1.8241   -1.5182   -7.1353 C   0  0  0  0  0  0  0  0  0  0  0  0
    1.9078   -1.5682   -5.4013 S   0  0  0  0  0  0  0  0  0  0  0  0
    2.1196   -2.5700   -8.0182 C   0  0  0  0  0  0  0  0  0  0  0  0
    2.3462   -3.8892   -7.7434 C   0  0  0  0  0  0  0  0  0  0  0  0
    2.0363   -4.5611   -6.4707 C   0  0  0  0  0  0  0  0  0  0  0  0
    1.6784   -4.0440   -5.4304 O   0  0  0  0  0  0  0  0  0  0  0  0
    2.1898   -6.0041   -6.7286 C   0  0  0  0  0  0  0  0  0  0  0  0
    1.9680   -7.0429   -5.8272 C   0  0  0  0  0  0  0  0  0  0  0  0
    2.1955   -8.2934   -6.3494 C   0  0  0  0  0  0  0  0  0  0  0  0
    2.6095   -8.4984   -7.6726 C   0  0  0  0  0  0  0  0  0  0  0  0
    2.8367   -7.4828   -8.5709 C   0  0  0  0  0  0  0  0  0  0  0  0
    2.6142   -6.2006   -8.0592 C   0  0  0  0  0  0  0  0  0  0  0  0
    2.7749   -4.8944   -8.6930 C   0  0  0  0  0  0  0  0  0  0  0  0
    3.3308   -4.6563   -9.9239 C   0  0  0  0  0  0  0  0  0  0  0  0
    3.6287   -3.3755  -10.4346 C   0  0  0  0  0  0  0  0  0  0  0  0
    3.9407   -2.3740  -10.9034 N   0  0  0  0  0  0  0  0  0  0  0  0
    3.7405   -5.6631  -10.8217 C   0  0  0  0  0  0  0  0  0  0  0  0
    4.0856   -6.4329  -11.6007 N   0  0  0  0  0  0  0  0  0  0  0  0
    2.6365   -9.9987   -7.5161 C   0  0  0  0  0  0  0  0  0  0  0  0
    1.4525  -10.7797   -8.1245 C   0  0  0  0  0  0  0  0  0  0  0  0
    1.4990  -12.1148   -7.4168 C   0  0  0  0  0  0  0  0  0  0  0  0
    1.1097  -11.9209   -6.1632 C   0  0  0  0  0  0  0  0  0  0  0  0
    0.7935  -10.4514   -6.0024 C   0  0  0  0  0  0  0  0  0  0  0  0
    0.2566  -10.1418   -7.4058 C   0  0  0  0  0  0  0  0  0  0  0  0
    2.1778   -9.7697   -6.0401 C   0  0  0  0  0  0  0  0  0  0  0  0
    0.5610    5.5653    8.1552 H   0  0  0  0  0  0  0  0  0  0  0  0
   -5.2483    3.9429    6.5194 H   0  0  0  0  0  0  0  0  0  0  0  0
   -4.1938    7.0343   10.3913 H   0  0  0  0  0  0  0  0  0  0  0  0
   -7.5664    6.9518    9.8205 H   0  0  0  0  0  0  0  0  0  0  0  0
   -7.0277    5.4518   11.9546 H   0  0  0  0  0  0  0  0  0  0  0  0
   -9.6317    5.5060   11.6098 H   0  0  0  0  0  0  0  0  0  0  0  0
  -10.2312    3.8996    9.5804 H   0  0  0  0  0  0  0  0  0  0  0  0
   -7.9965    2.8545    8.6769 H   0  0  0  0  0  0  0  0  0  0  0  0
   -5.9950    3.5940   10.3099 H   0  0  0  0  0  0  0  0  0  0  0  0
   -7.3518    2.9228   11.2431 H   0  0  0  0  0  0  0  0  0  0  0  0
   -8.1488    5.3760    7.8294 H   0  0  0  0  0  0  0  0  0  0  0  0
   -0.7967    5.0276    4.7479 H   0  0  0  0  0  0  0  0  0  0  0  0
   -0.5357    3.9435    1.0129 H   0  0  0  0  0  0  0  0  0  0  0  0
   -0.8685    5.0165    2.3812 H   0  0  0  0  0  0  0  0  0  0  0  0
   -2.1925    3.2149    3.4914 H   0  0  0  0  0  0  0  0  0  0  0  0
   -2.8396    3.5695    1.8847 H   0  0  0  0  0  0  0  0  0  0  0  0
   -1.8533    2.1264    2.1401 H   0  0  0  0  0  0  0  0  0  0  0  0
    3.3388    2.5275    5.9797 H   0  0  0  0  0  0  0  0  0  0  0  0
    2.1401    3.8817    7.6530 H   0  0  0  0  0  0  0  0  0  0  0  0
    4.1294    1.1964    3.6584 H   0  0  0  0  0  0  0  0  0  0  0  0
    4.2707    0.2431    1.4153 H   0  0  0  0  0  0  0  0  0  0  0  0
    0.6495    2.2248    0.2504 H   0  0  0  0  0  0  0  0  0  0  0  0
    3.0698   -1.7286    0.8156 H   0  0  0  0  0  0  0  0  0  0  0  0
    4.6696   -1.4455    0.0731 H   0  0  0  0  0  0  0  0  0  0  0  0
    3.5542   -2.5978   -0.6668 H   0  0  0  0  0  0  0  0  0  0  0  0
   -0.4078    2.3347   -5.1274 H   0  0  0  0  0  0  0  0  0  0  0  0
   -0.1650    3.5793   -3.8742 H   0  0  0  0  0  0  0  0  0  0  0  0
    1.0154    3.4143   -5.1849 H   0  0  0  0  0  0  0  0  0  0  0  0
    1.2706    1.7593   -6.7373 H   0  0  0  0  0  0  0  0  0  0  0  0
    2.5267    1.7618  -10.5440 H   0  0  0  0  0  0  0  0  0  0  0  0
    2.4948    2.2277   -8.8290 H   0  0  0  0  0  0  0  0  0  0  0  0
    4.1644   -0.0626  -10.0098 H   0  0  0  0  0  0  0  0  0  0  0  0
    4.8116    1.5247   -9.5717 H   0  0  0  0  0  0  0  0  0  0  0  0
    4.1799    0.4499   -8.3185 H   0  0  0  0  0  0  0  0  0  0  0  0
    2.1686   -2.2559   -9.0555 H   0  0  0  0  0  0  0  0  0  0  0  0
    1.6546   -6.8394   -4.8153 H   0  0  0  0  0  0  0  0  0  0  0  0
    3.1579   -7.6551   -9.5847 H   0  0  0  0  0  0  0  0  0  0  0  0
    3.5979  -10.4761   -7.6951 H   0  0  0  0  0  0  0  0  0  0  0  0
    1.4317  -10.8018   -9.2106 H   0  0  0  0  0  0  0  0  0  0  0  0
    1.8522  -13.0222   -7.8704 H   0  0  0  0  0  0  0  0  0  0  0  0
    1.0729  -12.6339   -5.3605 H   0  0  0  0  0  0  0  0  0  0  0  0
    0.1718  -10.1743   -5.1552 H   0  0  0  0  0  0  0  0  0  0  0  0
   -0.6754  -10.6646   -7.6144 H   0  0  0  0  0  0  0  0  0  0  0  0
    0.1317   -9.0797   -7.6086 H   0  0  0  0  0  0  0  0  0  0  0  0
    2.8342  -10.0939   -5.2347 H   0  0  0  0  0  0  0  0  0  0  0  0
  1  2  2  0  0  0  0
  2  3  1  0  0  0  0
  3  4  2  0  0  0  0
  3  5  1  0  0  0  0
  5  6  2  0  0  0  0
  6  7  1  0  0  0  0
  7  8  2  0  0  0  0
  8  9  1  0  0  0  0
  9 10  2  0  0  0  0
 10 11  1  0  0  0  0
 11 12  2  0  0  0  0
 12 13  1  0  0  0  0
 13 14  3  0  0  0  0
 12 15  1  0  0  0  0
 15 16  3  0  0  0  0
  8 17  1  0  0  0  0
 17 18  1  0  0  0  0
 18 19  1  0  0  0  0
 19 20  2  0  0  0  0
 20 21  1  0  0  0  0
 21 22  1  0  0  0  0
 21 23  1  0  0  0  0
  1 24  1  0  0  0  0
 24 25  2  0  0  0  0
 25 26  1  0  0  0  0
 26 27  1  0  0  0  0
 27 28  1  0  0  0  0
 28 29  1  0  0  0  0
 27 30  1  0  0  0  0
 30 31  2  0  0  0  0
 31 32  1  0  0  0  0
 32 33  1  0  0  0  0
 33 34  2  0  0  0  0
 31 35  1  0  0  0  0
 35 36  2  0  0  0  0
 36 37  1  0  0  0  0
 37 38  2  0  0  0  0
 37 39  1  0  0  0  0
 39 40  2  0  0  0  0
 40 41  1  0  0  0  0
 41 42  1  0  0  0  0
 42 43  2  0  0  0  0
 42 44  1  0  0  0  0
 44 45  1  0  0  0  0
 41 46  2  0  0  0  0
 46 47  1  0  0  0  0
 47 48  1  0  0  0  0
 47 49  1  0  0  0  0
 49 50  2  0  0  0  0
 46 51  1  0  0  0  0
 51 52  2  0  0  0  0
 52 53  1  0  0  0  0
 53 54  1  0  0  0  0
 54 55  1  0  0  0  0
 55 56  1  0  0  0  0
 53 57  2  0  0  0  0
 57 58  1  0  0  0  0
 57 59  1  0  0  0  0
 59 60  2  0  0  0  0
 60 61  1  0  0  0  0
 61 62  2  0  0  0  0
 61 63  1  0  0  0  0
 63 64  2  0  0  0  0
 64 65  1  0  0  0  0
 65 66  2  0  0  0  0
 66 67  1  0  0  0  0
 67 68  2  0  0  0  0
 68 69  1  0  0  0  0
 69 70  2  0  0  0  0
 70 71  1  0  0  0  0
 71 72  3  0  0  0  0
 70 73  1  0  0  0  0
 73 74  3  0  0  0  0
 66 75  1  0  0  0  0
 75 76  1  0  0  0  0
 76 77  1  0  0  0  0
 77 78  2  0  0  0  0
 78 79  1  0  0  0  0
 79 80  1  0  0  0  0
 79 81  1  0  0  0  0
 11  2  1  0  0  0  0
 23 17  1  0  0  0  0
 34 24  1  0  0  0  0
 44 39  1  0  0  0  0
 58 51  1  0  0  0  0
 69 60  1  0  0  0  0
 81 75  1  0  0  0  0
 10  5  1  0  0  0  0
 22 18  1  0  0  0  0
 32 26  2  0  0  0  0
 49 40  1  0  0  0  0
 68 63  1  0  0  0  0
 80 76  1  0  0  0  0
 23  7  1  0  0  0  0
 38 30  1  0  0  0  0
 81 65  1  0  0  0  0
  1 82  1  0  0  0  0
  6 83  1  0  0  0  0
  9 84  1  0  0  0  0
 17 85  1  0  0  0  0
 18 86  1  0  0  0  0
 19 87  1  0  0  0  0
 20 88  1  0  0  0  0
 21 89  1  0  0  0  0
 22 90  1  0  0  0  0
 22 91  1  0  0  0  0
 23 92  1  0  0  0  0
 25 93  1  0  0  0  0
 28 94  1  0  0  0  0
 28 95  1  0  0  0  0
 29 96  1  0  0  0  0
 29 97  1  0  0  0  0
 29 98  1  0  0  0  0
 33 99  1  0  0  0  0
 34100  1  0  0  0  0
 35101  1  0  0  0  0
 36102  1  0  0  0  0
 38103  1  0  0  0  0
 45104  1  0  0  0  0
 45105  1  0  0  0  0
 45106  1  0  0  0  0
 48107  1  0  0  0  0
 48108  1  0  0  0  0
 48109  1  0  0  0  0
 52110  1  0  0  0  0
 55111  1  0  0  0  0
 55112  1  0  0  0  0
 56113  1  0  0  0  0
 56114  1  0  0  0  0
 56115  1  0  0  0  0
 59116  1  0  0  0  0
 64117  1  0  0  0  0
 67118  1  0  0  0  0
 75119  1  0  0  0  0
 76120  1  0  0  0  0
 77121  1  0  0  0  0
 78122  1  0  0  0  0
 79123  1  0  0  0  0
 80124  1  0  0  0  0
 80125  1  0  0  0  0
 81126  1  0  0  0  0
M  END
