
  xtb     02142215273D
 energy: -221.202849422794 gnorm: 0.000459689124 xtb: 6.4.1 (unknown)
131146  0     0  0            999 V2000
    5.1806   -0.8500    6.4935 C   0  0  0  0  0  0  0  0  0  0  0  0
    6.4149   -0.8506    7.0722 C   0  0  0  0  0  0  0  0  0  0  0  0
    7.5697    0.0671    6.9004 C   0  0  0  0  0  0  0  0  0  0  0  0
    7.7164    0.9796    6.1142 O   0  0  0  0  0  0  0  0  0  0  0  0
    8.5577   -0.3266    7.9217 C   0  0  0  0  0  0  0  0  0  0  0  0
    9.7829    0.2923    8.1643 C   0  0  0  0  0  0  0  0  0  0  0  0
   10.5017   -0.2744    9.1880 C   0  0  0  0  0  0  0  0  0  0  0  0
   10.0318   -1.3707    9.9249 C   0  0  0  0  0  0  0  0  0  0  0  0
    8.8259   -1.9879    9.6971 C   0  0  0  0  0  0  0  0  0  0  0  0
    8.0818   -1.4335    8.6486 C   0  0  0  0  0  0  0  0  0  0  0  0
    6.7821   -1.8152    8.1082 C   0  0  0  0  0  0  0  0  0  0  0  0
    6.0840   -2.9354    8.4786 C   0  0  0  0  0  0  0  0  0  0  0  0
    6.5108   -3.8525    9.4638 C   0  0  0  0  0  0  0  0  0  0  0  0
    6.7825   -4.6456   10.2486 N   0  0  0  0  0  0  0  0  0  0  0  0
    4.8611   -3.3925    7.9406 C   0  0  0  0  0  0  0  0  0  0  0  0
    3.8805   -3.8677    7.5737 N   0  0  0  0  0  0  0  0  0  0  0  0
   11.2607   -1.4115   10.7989 C   0  0  0  0  0  0  0  0  0  0  0  0
   12.2966   -2.5106   10.4816 C   0  0  0  0  0  0  0  0  0  0  0  0
   13.5620   -2.0171   11.1453 C   0  0  0  0  0  0  0  0  0  0  0  0
   14.0078   -0.9820   10.4449 C   0  0  0  0  0  0  0  0  0  0  0  0
   13.0511   -0.7582    9.2961 C   0  0  0  0  0  0  0  0  0  0  0  0
   12.6322   -2.2072    9.0157 C   0  0  0  0  0  0  0  0  0  0  0  0
   11.7857   -0.1920    9.9751 C   0  0  0  0  0  0  0  0  0  0  0  0
    4.5495   -0.1151    5.4376 C   0  0  0  0  0  0  0  0  0  0  0  0
    3.2166   -0.4747    5.1686 C   0  0  0  0  0  0  0  0  0  0  0  0
    2.5534    0.1380    4.1269 C   0  0  0  0  0  0  0  0  0  0  0  0
    1.2729   -0.0563    3.6674 N   0  0  0  0  0  0  0  0  0  0  0  0
    0.3225   -0.9997    4.1940 C   0  0  0  0  0  0  0  0  0  0  0  0
    0.4609   -2.3717    3.5366 C   0  0  0  0  0  0  0  0  0  0  0  0
    1.0821    0.7403    2.5666 C   0  0  0  0  0  0  0  0  0  0  0  0
    2.2511    1.5085    2.3294 C   0  0  0  0  0  0  0  0  0  0  0  0
    3.1963    1.1221    3.3275 C   0  0  0  0  0  0  0  0  0  0  0  0
    4.5101    1.4859    3.6095 C   0  0  0  0  0  0  0  0  0  0  0  0
    5.1725    0.8736    4.6469 C   0  0  0  0  0  0  0  0  0  0  0  0
    2.2865    2.4022    1.2634 C   0  0  0  0  0  0  0  0  0  0  0  0
    1.1845    2.5056    0.4461 C   0  0  0  0  0  0  0  0  0  0  0  0
    0.0342    1.7311    0.6704 C   0  0  0  0  0  0  0  0  0  0  0  0
   -0.0235    0.8446    1.7392 C   0  0  0  0  0  0  0  0  0  0  0  0
   -1.1144    1.8412   -0.2344 C   0  0  0  0  0  0  0  0  0  0  0  0
   -0.9721    1.8751   -1.6056 C   0  0  0  0  0  0  0  0  0  0  0  0
    0.2468    1.7980   -2.1666 F   0  0  0  0  0  0  0  0  0  0  0  0
   -2.0679    1.9467   -2.4772 C   0  0  0  0  0  0  0  0  0  0  0  0
   -1.8002    1.9745   -3.7910 F   0  0  0  0  0  0  0  0  0  0  0  0
   -3.3754    2.0121   -2.0284 C   0  0  0  0  0  0  0  0  0  0  0  0
   -3.5583    1.9961   -0.6130 C   0  0  0  0  0  0  0  0  0  0  0  0
   -4.8009    2.0313   -0.1024 N   0  0  0  0  0  0  0  0  0  0  0  0
   -4.9777    2.0018    1.1950 C   0  0  0  0  0  0  0  0  0  0  0  0
   -6.4000    2.0848    1.6635 C   0  0  0  0  0  0  0  0  0  0  0  0
   -6.8100    3.5478    1.8524 C   0  0  0  0  0  0  0  0  0  0  0  0
   -3.8612    1.9466    2.0736 C   0  0  0  0  0  0  0  0  0  0  0  0
   -2.6443    1.8983    1.5945 N   0  0  0  0  0  0  0  0  0  0  0  0
   -2.4447    1.9052    0.2646 C   0  0  0  0  0  0  0  0  0  0  0  0
   -3.9798    1.8782    3.5667 C   0  0  0  0  0  0  0  0  0  0  0  0
   -4.1157    0.4214    4.0175 C   0  0  0  0  0  0  0  0  0  0  0  0
   -4.4968    2.0540   -2.9366 C   0  0  0  0  0  0  0  0  0  0  0  0
   -5.7254    2.6342   -2.6858 C   0  0  0  0  0  0  0  0  0  0  0  0
   -6.6174    2.4667   -3.7423 C   0  0  0  0  0  0  0  0  0  0  0  0
   -7.8843    2.9089   -3.8228 O   0  0  0  0  0  0  0  0  0  0  0  0
   -8.3984    3.6304   -2.7258 C   0  0  0  0  0  0  0  0  0  0  0  0
   -6.0759    1.7326   -4.8205 C   0  0  0  0  0  0  0  0  0  0  0  0
   -4.4283    1.2821   -4.4835 S   0  0  0  0  0  0  0  0  0  0  0  0
   -6.8319    1.4636   -5.9682 C   0  0  0  0  0  0  0  0  0  0  0  0
   -6.5050    0.7463   -7.0890 C   0  0  0  0  0  0  0  0  0  0  0  0
   -5.2391    0.0369   -7.3036 C   0  0  0  0  0  0  0  0  0  0  0  0
   -4.2742    0.0022   -6.5599 O   0  0  0  0  0  0  0  0  0  0  0  0
   -5.3635   -0.6490   -8.6009 C   0  0  0  0  0  0  0  0  0  0  0  0
   -4.4141   -1.4644   -9.2114 C   0  0  0  0  0  0  0  0  0  0  0  0
   -4.8159   -1.9810  -10.4197 C   0  0  0  0  0  0  0  0  0  0  0  0
   -6.0682   -1.7008  -10.9818 C   0  0  0  0  0  0  0  0  0  0  0  0
   -7.0115   -0.8933  -10.3915 C   0  0  0  0  0  0  0  0  0  0  0  0
   -6.6265   -0.3624   -9.1572 C   0  0  0  0  0  0  0  0  0  0  0  0
   -7.3536    0.5158   -8.2402 C   0  0  0  0  0  0  0  0  0  0  0  0
   -8.6079    1.0256   -8.4600 C   0  0  0  0  0  0  0  0  0  0  0  0
   -9.3884    0.7624   -9.6049 C   0  0  0  0  0  0  0  0  0  0  0  0
  -10.0870    0.5958  -10.5013 N   0  0  0  0  0  0  0  0  0  0  0  0
   -9.3155    1.8893   -7.5975 C   0  0  0  0  0  0  0  0  0  0  0  0
   -9.9711    2.5944   -6.9703 N   0  0  0  0  0  0  0  0  0  0  0  0
   -5.8062   -2.5608  -12.1926 C   0  0  0  0  0  0  0  0  0  0  0  0
   -6.4793   -3.9547  -12.2445 C   0  0  0  0  0  0  0  0  0  0  0  0
   -6.7010   -4.3780  -10.8137 C   0  0  0  0  0  0  0  0  0  0  0  0
   -5.5156   -4.6442  -10.2817 C   0  0  0  0  0  0  0  0  0  0  0  0
   -4.4706   -4.4052  -11.3434 C   0  0  0  0  0  0  0  0  0  0  0  0
   -5.2584   -4.8197  -12.5965 C   0  0  0  0  0  0  0  0  0  0  0  0
   -4.4107   -2.8735  -11.5661 C   0  0  0  0  0  0  0  0  0  0  0  0
    4.5055   -1.5872    6.9135 H   0  0  0  0  0  0  0  0  0  0  0  0
   10.0989    1.1405    7.5775 H   0  0  0  0  0  0  0  0  0  0  0  0
    8.4771   -2.8224   10.2813 H   0  0  0  0  0  0  0  0  0  0  0  0
   11.0881   -1.2842   11.8659 H   0  0  0  0  0  0  0  0  0  0  0  0
   11.9776   -3.5204   10.7246 H   0  0  0  0  0  0  0  0  0  0  0  0
   13.9588   -2.4230   12.0572 H   0  0  0  0  0  0  0  0  0  0  0  0
   14.8511   -0.3505   10.6549 H   0  0  0  0  0  0  0  0  0  0  0  0
   13.4201   -0.1719    8.4589 H   0  0  0  0  0  0  0  0  0  0  0  0
   13.4608   -2.8113    8.6498 H   0  0  0  0  0  0  0  0  0  0  0  0
   11.7860   -2.3018    8.3377 H   0  0  0  0  0  0  0  0  0  0  0  0
   11.9656    0.7484   10.4928 H   0  0  0  0  0  0  0  0  0  0  0  0
    2.7364   -1.2373    5.7644 H   0  0  0  0  0  0  0  0  0  0  0  0
   -0.6815   -0.6002    4.0274 H   0  0  0  0  0  0  0  0  0  0  0  0
    0.4790   -1.0842    5.2727 H   0  0  0  0  0  0  0  0  0  0  0  0
    1.4518   -2.7798    3.7197 H   0  0  0  0  0  0  0  0  0  0  0  0
    0.3136   -2.2920    2.4620 H   0  0  0  0  0  0  0  0  0  0  0  0
   -0.2779   -3.0574    3.9424 H   0  0  0  0  0  0  0  0  0  0  0  0
    5.0065    2.2343    3.0112 H   0  0  0  0  0  0  0  0  0  0  0  0
    6.1905    1.1473    4.8604 H   0  0  0  0  0  0  0  0  0  0  0  0
    3.1667    2.9986    1.0796 H   0  0  0  0  0  0  0  0  0  0  0  0
    1.1976    3.2014   -0.3780 H   0  0  0  0  0  0  0  0  0  0  0  0
   -0.9039    0.2432    1.8914 H   0  0  0  0  0  0  0  0  0  0  0  0
   -6.5320    1.5403    2.5977 H   0  0  0  0  0  0  0  0  0  0  0  0
   -7.0335    1.6319    0.8996 H   0  0  0  0  0  0  0  0  0  0  0  0
   -6.1912    4.0313    2.6052 H   0  0  0  0  0  0  0  0  0  0  0  0
   -7.8490    3.6082    2.1667 H   0  0  0  0  0  0  0  0  0  0  0  0
   -6.6971    4.0926    0.9182 H   0  0  0  0  0  0  0  0  0  0  0  0
   -3.0690    2.2993    3.9944 H   0  0  0  0  0  0  0  0  0  0  0  0
   -4.8351    2.4563    3.9154 H   0  0  0  0  0  0  0  0  0  0  0  0
   -3.2574   -0.1546    3.6802 H   0  0  0  0  0  0  0  0  0  0  0  0
   -5.0135   -0.0343    3.6052 H   0  0  0  0  0  0  0  0  0  0  0  0
   -4.1660    0.3674    5.1020 H   0  0  0  0  0  0  0  0  0  0  0  0
   -5.9395    3.1527   -1.7717 H   0  0  0  0  0  0  0  0  0  0  0  0
   -9.4255    3.8731   -2.9915 H   0  0  0  0  0  0  0  0  0  0  0  0
   -7.8351    4.5534   -2.5595 H   0  0  0  0  0  0  0  0  0  0  0  0
   -8.3856    3.0264   -1.8138 H   0  0  0  0  0  0  0  0  0  0  0  0
   -7.8237    1.8973   -5.9199 H   0  0  0  0  0  0  0  0  0  0  0  0
   -3.4603   -1.6496   -8.7427 H   0  0  0  0  0  0  0  0  0  0  0  0
   -7.9690   -0.6891  -10.8403 H   0  0  0  0  0  0  0  0  0  0  0  0
   -5.8313   -2.0522  -13.1543 H   0  0  0  0  0  0  0  0  0  0  0  0
   -7.3426   -4.0146  -12.9018 H   0  0  0  0  0  0  0  0  0  0  0  0
   -7.6619   -4.3841  -10.3333 H   0  0  0  0  0  0  0  0  0  0  0  0
   -5.2879   -4.9171   -9.2679 H   0  0  0  0  0  0  0  0  0  0  0  0
   -3.5046   -4.8761  -11.1809 H   0  0  0  0  0  0  0  0  0  0  0  0
   -4.7753   -4.5296  -13.5285 H   0  0  0  0  0  0  0  0  0  0  0  0
   -5.4879   -5.8841  -12.6168 H   0  0  0  0  0  0  0  0  0  0  0  0
   -3.5240   -2.5690  -12.1187 H   0  0  0  0  0  0  0  0  0  0  0  0
  1  2  2  0  0  0  0
  2  3  1  0  0  0  0
  3  4  2  0  0  0  0
  3  5  1  0  0  0  0
  5  6  2  0  0  0  0
  6  7  1  0  0  0  0
  7  8  2  0  0  0  0
  8  9  1  0  0  0  0
  9 10  2  0  0  0  0
 10 11  1  0  0  0  0
 11 12  2  0  0  0  0
 12 13  1  0  0  0  0
 13 14  3  0  0  0  0
 12 15  1  0  0  0  0
 15 16  3  0  0  0  0
  8 17  1  0  0  0  0
 17 18  1  0  0  0  0
 18 19  1  0  0  0  0
 19 20  2  0  0  0  0
 20 21  1  0  0  0  0
 21 22  1  0  0  0  0
 21 23  1  0  0  0  0
  1 24  1  0  0  0  0
 24 25  2  0  0  0  0
 25 26  1  0  0  0  0
 26 27  1  0  0  0  0
 27 28  1  0  0  0  0
 28 29  1  0  0  0  0
 27 30  1  0  0  0  0
 30 31  2  0  0  0  0
 31 32  1  0  0  0  0
 32 33  1  0  0  0  0
 33 34  2  0  0  0  0
 31 35  1  0  0  0  0
 35 36  2  0  0  0  0
 36 37  1  0  0  0  0
 37 38  2  0  0  0  0
 37 39  1  0  0  0  0
 39 40  2  0  0  0  0
 40 41  1  0  0  0  0
 40 42  1  0  0  0  0
 42 43  1  0  0  0  0
 42 44  2  0  0  0  0
 44 45  1  0  0  0  0
 45 46  2  0  0  0  0
 46 47  1  0  0  0  0
 47 48  1  0  0  0  0
 48 49  1  0  0  0  0
 47 50  2  0  0  0  0
 50 51  1  0  0  0  0
 51 52  2  0  0  0  0
 50 53  1  0  0  0  0
 53 54  1  0  0  0  0
 44 55  1  0  0  0  0
 55 56  2  0  0  0  0
 56 57  1  0  0  0  0
 57 58  1  0  0  0  0
 58 59  1  0  0  0  0
 57 60  2  0  0  0  0
 60 61  1  0  0  0  0
 60 62  1  0  0  0  0
 62 63  2  0  0  0  0
 63 64  1  0  0  0  0
 64 65  2  0  0  0  0
 64 66  1  0  0  0  0
 66 67  2  0  0  0  0
 67 68  1  0  0  0  0
 68 69  2  0  0  0  0
 69 70  1  0  0  0  0
 70 71  2  0  0  0  0
 71 72  1  0  0  0  0
 72 73  2  0  0  0  0
 73 74  1  0  0  0  0
 74 75  3  0  0  0  0
 73 76  1  0  0  0  0
 76 77  3  0  0  0  0
 69 78  1  0  0  0  0
 78 79  1  0  0  0  0
 79 80  1  0  0  0  0
 80 81  2  0  0  0  0
 81 82  1  0  0  0  0
 82 83  1  0  0  0  0
 82 84  1  0  0  0  0
 11  2  1  0  0  0  0
 23 17  1  0  0  0  0
 34 24  1  0  0  0  0
 52 39  1  0  0  0  0
 61 55  1  0  0  0  0
 72 63  1  0  0  0  0
 84 78  1  0  0  0  0
 10  5  1  0  0  0  0
 22 18  1  0  0  0  0
 32 26  2  0  0  0  0
 52 45  1  0  0  0  0
 71 66  1  0  0  0  0
 83 79  1  0  0  0  0
 23  7  1  0  0  0  0
 38 30  1  0  0  0  0
 84 68  1  0  0  0  0
  1 85  1  0  0  0  0
  6 86  1  0  0  0  0
  9 87  1  0  0  0  0
 17 88  1  0  0  0  0
 18 89  1  0  0  0  0
 19 90  1  0  0  0  0
 20 91  1  0  0  0  0
 21 92  1  0  0  0  0
 22 93  1  0  0  0  0
 22 94  1  0  0  0  0
 23 95  1  0  0  0  0
 25 96  1  0  0  0  0
 28 97  1  0  0  0  0
 28 98  1  0  0  0  0
 29 99  1  0  0  0  0
 29100  1  0  0  0  0
 29101  1  0  0  0  0
 33102  1  0  0  0  0
 34103  1  0  0  0  0
 35104  1  0  0  0  0
 36105  1  0  0  0  0
 38106  1  0  0  0  0
 48107  1  0  0  0  0
 48108  1  0  0  0  0
 49109  1  0  0  0  0
 49110  1  0  0  0  0
 49111  1  0  0  0  0
 53112  1  0  0  0  0
 53113  1  0  0  0  0
 54114  1  0  0  0  0
 54115  1  0  0  0  0
 54116  1  0  0  0  0
 56117  1  0  0  0  0
 59118  1  0  0  0  0
 59119  1  0  0  0  0
 59120  1  0  0  0  0
 62121  1  0  0  0  0
 67122  1  0  0  0  0
 70123  1  0  0  0  0
 78124  1  0  0  0  0
 79125  1  0  0  0  0
 80126  1  0  0  0  0
 81127  1  0  0  0  0
 82128  1  0  0  0  0
 83129  1  0  0  0  0
 83130  1  0  0  0  0
 84131  1  0  0  0  0
M  END
