
  xtb     02092206443D
 energy: -359.483940895615 gnorm: 0.000209353450 xtb: 6.4.1 (unknown)
217240  0     0  0            999 V2000
    3.9298   -7.6182   -4.8346 C   0  0  0  0  0  0  0  0  0  0  0  0
    3.0853   -8.6893   -5.0300 C   0  0  0  0  0  0  0  0  0  0  0  0
    1.6402   -8.6466   -4.7594 C   0  0  0  0  0  0  0  0  0  0  0  0
    1.0003   -7.7297   -4.2766 O   0  0  0  0  0  0  0  0  0  0  0  0
    1.0864   -9.8889   -5.3351 C   0  0  0  0  0  0  0  0  0  0  0  0
   -0.2484  -10.2817   -5.3482 C   0  0  0  0  0  0  0  0  0  0  0  0
   -0.4717  -11.4818   -5.9805 C   0  0  0  0  0  0  0  0  0  0  0  0
    0.5554  -12.2308   -6.5666 C   0  0  0  0  0  0  0  0  0  0  0  0
    1.8788  -11.8550   -6.5568 C   0  0  0  0  0  0  0  0  0  0  0  0
    2.1271  -10.6412   -5.9118 C   0  0  0  0  0  0  0  0  0  0  0  0
    3.3846   -9.9273   -5.6942 C   0  0  0  0  0  0  0  0  0  0  0  0
    4.6442  -10.4150   -5.9439 C   0  0  0  0  0  0  0  0  0  0  0  0
    5.8284   -9.7440   -5.5811 C   0  0  0  0  0  0  0  0  0  0  0  0
    6.8313   -9.2677   -5.2852 N   0  0  0  0  0  0  0  0  0  0  0  0
    4.9129  -11.6654   -6.5297 C   0  0  0  0  0  0  0  0  0  0  0  0
    5.1959  -12.6734   -7.0032 N   0  0  0  0  0  0  0  0  0  0  0  0
   -0.3925  -13.3021   -7.0490 C   0  0  0  0  0  0  0  0  0  0  0  0
   -0.7678  -13.2685   -8.5457 C   0  0  0  0  0  0  0  0  0  0  0  0
   -2.0340  -14.0910   -8.6201 C   0  0  0  0  0  0  0  0  0  0  0  0
   -3.0072  -13.3854   -8.0581 C   0  0  0  0  0  0  0  0  0  0  0  0
   -2.4148  -12.0743   -7.5948 C   0  0  0  0  0  0  0  0  0  0  0  0
   -1.3598  -11.8603   -8.6877 C   0  0  0  0  0  0  0  0  0  0  0  0
   -1.5375  -12.4693   -6.3882 C   0  0  0  0  0  0  0  0  0  0  0  0
    3.7065   -6.5604   -3.9475 C   0  0  0  0  0  0  0  0  0  0  0  0
    2.9661   -6.4942   -2.7495 C   0  0  0  0  0  0  0  0  0  0  0  0
    2.4487   -7.5475   -2.0521 N   0  0  0  0  0  0  0  0  0  0  0  0
    1.3925   -7.3258   -1.1384 C   0  0  0  0  0  0  0  0  0  0  0  0
    1.4862   -7.8332    0.1532 C   0  0  0  0  0  0  0  0  0  0  0  0
    0.4715   -7.5933    1.0606 C   0  0  0  0  0  0  0  0  0  0  0  0
   -0.6388   -6.8527    0.6888 C   0  0  0  0  0  0  0  0  0  0  0  0
   -0.7440   -6.3723   -0.6054 C   0  0  0  0  0  0  0  0  0  0  0  0
    0.2639   -6.6080   -1.5216 C   0  0  0  0  0  0  0  0  0  0  0  0
    2.9230   -8.8595   -2.1920 C   0  0  0  0  0  0  0  0  0  0  0  0
    4.2874   -9.1266   -2.2915 C   0  0  0  0  0  0  0  0  0  0  0  0
    4.7281  -10.4235   -2.4642 C   0  0  0  0  0  0  0  0  0  0  0  0
    3.8200  -11.4690   -2.5400 C   0  0  0  0  0  0  0  0  0  0  0  0
    2.4663  -11.2119   -2.4093 C   0  0  0  0  0  0  0  0  0  0  0  0
    2.0155   -9.9168   -2.2298 C   0  0  0  0  0  0  0  0  0  0  0  0
    2.9008   -5.1601   -2.2845 C   0  0  0  0  0  0  0  0  0  0  0  0
    2.0320   -4.3655   -1.0204 S   0  0  0  0  0  0  0  0  0  0  0  0
    2.5833   -2.7846   -1.5608 C   0  0  0  0  0  0  0  0  0  0  0  0
    3.4008   -2.8901   -2.6821 C   0  0  0  0  0  0  0  0  0  0  0  0
    3.9474   -1.8714   -3.4675 N   0  0  0  0  0  0  0  0  0  0  0  0
    5.2883   -2.0689   -3.8345 C   0  0  0  0  0  0  0  0  0  0  0  0
    5.7356   -1.8889   -5.1418 C   0  0  0  0  0  0  0  0  0  0  0  0
    7.0605   -2.1212   -5.4579 C   0  0  0  0  0  0  0  0  0  0  0  0
    7.9527   -2.5467   -4.4876 C   0  0  0  0  0  0  0  0  0  0  0  0
    7.5083   -2.7457   -3.1909 C   0  0  0  0  0  0  0  0  0  0  0  0
    6.1880   -2.5091   -2.8632 C   0  0  0  0  0  0  0  0  0  0  0  0
    3.1319   -0.9539   -4.1201 C   0  0  0  0  0  0  0  0  0  0  0  0
    1.7664   -1.1932   -4.2796 C   0  0  0  0  0  0  0  0  0  0  0  0
    0.9789   -0.3076   -4.9895 C   0  0  0  0  0  0  0  0  0  0  0  0
    1.5294    0.8309   -5.5529 C   0  0  0  0  0  0  0  0  0  0  0  0
    2.8778    1.0936   -5.3670 C   0  0  0  0  0  0  0  0  0  0  0  0
    3.6715    0.2203   -4.6508 C   0  0  0  0  0  0  0  0  0  0  0  0
    3.5863   -4.2404   -3.0611 C   0  0  0  0  0  0  0  0  0  0  0  0
    4.4228   -4.9948   -4.3692 S   0  0  0  0  0  0  0  0  0  0  0  0
    2.0451   -1.6550   -0.8449 C   0  0  0  0  0  0  0  0  0  0  0  0
    2.5500   -0.3444   -0.8585 C   0  0  0  0  0  0  0  0  0  0  0  0
    3.7400   -0.1961   -1.4645 O   0  0  0  0  0  0  0  0  0  0  0  0
    4.5263    0.9798   -1.3369 C   0  0  0  0  0  0  0  0  0  0  0  0
    5.9908    0.5836   -1.4507 C   0  0  0  0  0  0  0  0  0  0  0  0
    1.8167    0.7350   -0.2638 C   0  0  0  0  0  0  0  0  0  0  0  0
    2.2123    2.0196   -0.5709 O   0  0  0  0  0  0  0  0  0  0  0  0
    1.2543    2.8222   -1.2488 C   0  0  0  0  0  0  0  0  0  0  0  0
    0.9184    2.2828   -2.6309 C   0  0  0  0  0  0  0  0  0  0  0  0
    0.7227    0.5238    0.5730 C   0  0  0  0  0  0  0  0  0  0  0  0
    0.2709   -0.8157    0.6884 C   0  0  0  0  0  0  0  0  0  0  0  0
    0.9062   -1.8756   -0.0305 C   0  0  0  0  0  0  0  0  0  0  0  0
    0.3152   -3.0443    0.2003 N   0  0  0  0  0  0  0  0  0  0  0  0
   -0.9031   -2.8396    1.2335 S   0  0  0  0  0  0  0  0  0  0  0  0
   -0.7471   -1.2502    1.4255 N   0  0  0  0  0  0  0  0  0  0  0  0
    0.0005    1.5348    1.3082 C   0  0  0  0  0  0  0  0  0  0  0  0
    0.4000    2.7278    1.9098 C   0  0  0  0  0  0  0  0  0  0  0  0
    1.6758    3.2613    1.9705 N   0  0  0  0  0  0  0  0  0  0  0  0
    1.7587    4.6617    2.1525 C   0  0  0  0  0  0  0  0  0  0  0  0
    1.1280    5.5245    1.2584 C   0  0  0  0  0  0  0  0  0  0  0  0
    1.1228    6.8836    1.4884 C   0  0  0  0  0  0  0  0  0  0  0  0
    1.7387    7.4035    2.6207 C   0  0  0  0  0  0  0  0  0  0  0  0
    1.6356    9.1438    2.8867 S   0  0  0  0  0  0  0  0  0  0  0  0
    1.7160    9.2521    4.6999 C   0  0  0  0  0  0  0  0  0  0  0  0
    2.4094    6.5524    3.4895 C   0  0  0  0  0  0  0  0  0  0  0  0
    2.4180    5.1928    3.2567 C   0  0  0  0  0  0  0  0  0  0  0  0
    2.8321    2.4948    2.1014 C   0  0  0  0  0  0  0  0  0  0  0  0
    2.8082    1.1877    2.5906 C   0  0  0  0  0  0  0  0  0  0  0  0
    3.9709    0.4533    2.6775 C   0  0  0  0  0  0  0  0  0  0  0  0
    5.1915    1.0059    2.3005 C   0  0  0  0  0  0  0  0  0  0  0  0
    6.6082   -0.0458    2.4060 S   0  0  0  0  0  0  0  0  0  0  0  0
    8.0060    1.0857    2.1522 C   0  0  0  0  0  0  0  0  0  0  0  0
    5.2285    2.3182    1.8468 C   0  0  0  0  0  0  0  0  0  0  0  0
    4.0617    3.0487    1.7445 C   0  0  0  0  0  0  0  0  0  0  0  0
   -0.6983    3.3705    2.5422 C   0  0  0  0  0  0  0  0  0  0  0  0
   -0.9020    4.8748    3.3735 S   0  0  0  0  0  0  0  0  0  0  0  0
   -2.6053    4.5090    3.6668 C   0  0  0  0  0  0  0  0  0  0  0  0
   -2.9797    3.2640    3.1134 C   0  0  0  0  0  0  0  0  0  0  0  0
   -4.2152    2.6629    3.1660 N   0  0  0  0  0  0  0  0  0  0  0  0
   -4.2122    1.2502    3.1549 C   0  0  0  0  0  0  0  0  0  0  0  0
   -4.9560    0.5366    2.2227 C   0  0  0  0  0  0  0  0  0  0  0  0
   -4.8430   -0.8383    2.1446 C   0  0  0  0  0  0  0  0  0  0  0  0
   -3.9822   -1.5150    2.9982 C   0  0  0  0  0  0  0  0  0  0  0  0
   -3.7003   -3.2556    2.9338 S   0  0  0  0  0  0  0  0  0  0  0  0
   -4.3626   -3.7349    1.3116 C   0  0  0  0  0  0  0  0  0  0  0  0
   -3.2872   -0.8091    3.9774 C   0  0  0  0  0  0  0  0  0  0  0  0
   -3.4027    0.5595    4.0573 C   0  0  0  0  0  0  0  0  0  0  0  0
   -5.4408    3.3373    3.0837 C   0  0  0  0  0  0  0  0  0  0  0  0
   -5.5777    4.5124    2.3466 C   0  0  0  0  0  0  0  0  0  0  0  0
   -6.7838    5.1830    2.3115 C   0  0  0  0  0  0  0  0  0  0  0  0
   -7.8859    4.6738    2.9886 C   0  0  0  0  0  0  0  0  0  0  0  0
   -9.4697    5.4482    3.0111 S   0  0  0  0  0  0  0  0  0  0  0  0
   -9.1201    7.1614    2.5224 C   0  0  0  0  0  0  0  0  0  0  0  0
   -7.7651    3.4720    3.6822 C   0  0  0  0  0  0  0  0  0  0  0  0
   -6.5568    2.8152    3.7384 C   0  0  0  0  0  0  0  0  0  0  0  0
   -1.8858    2.6583    2.4678 C   0  0  0  0  0  0  0  0  0  0  0  0
   -1.6956    1.1796    1.5995 S   0  0  0  0  0  0  0  0  0  0  0  0
   -3.4879    5.3575    4.3368 C   0  0  0  0  0  0  0  0  0  0  0  0
   -3.3702    6.6911    4.6474 C   0  0  0  0  0  0  0  0  0  0  0  0
   -2.2108    7.5516    4.3972 C   0  0  0  0  0  0  0  0  0  0  0  0
   -1.0595    7.2100    4.1804 O   0  0  0  0  0  0  0  0  0  0  0  0
   -2.7015    8.9378    4.4975 C   0  0  0  0  0  0  0  0  0  0  0  0
   -1.9861   10.1038    4.2363 C   0  0  0  0  0  0  0  0  0  0  0  0
   -2.7155   11.2559    4.4091 C   0  0  0  0  0  0  0  0  0  0  0  0
   -4.0551   11.2500    4.8176 C   0  0  0  0  0  0  0  0  0  0  0  0
   -4.7733   10.1057    5.0754 C   0  0  0  0  0  0  0  0  0  0  0  0
   -4.0544    8.9210    4.8943 C   0  0  0  0  0  0  0  0  0  0  0  0
   -4.4749    7.5288    5.0522 C   0  0  0  0  0  0  0  0  0  0  0  0
   -5.7130    7.1088    5.4772 C   0  0  0  0  0  0  0  0  0  0  0  0
   -6.0546    5.7770    5.7853 C   0  0  0  0  0  0  0  0  0  0  0  0
   -6.3965    4.7259    6.1016 N   0  0  0  0  0  0  0  0  0  0  0  0
   -6.8155    7.9611    5.6742 C   0  0  0  0  0  0  0  0  0  0  0  0
   -7.7690    8.5914    5.7947 N   0  0  0  0  0  0  0  0  0  0  0  0
   -4.1602   12.7544    4.7696 C   0  0  0  0  0  0  0  0  0  0  0  0
   -4.8919   13.3538    3.5499 C   0  0  0  0  0  0  0  0  0  0  0  0
   -4.4271   14.7919    3.5199 C   0  0  0  0  0  0  0  0  0  0  0  0
   -3.1579   14.7978    3.1331 C   0  0  0  0  0  0  0  0  0  0  0  0
   -2.7432   13.3637    2.8950 C   0  0  0  0  0  0  0  0  0  0  0  0
   -4.0702   12.7874    2.3846 C   0  0  0  0  0  0  0  0  0  0  0  0
   -2.6657   12.7607    4.3136 C   0  0  0  0  0  0  0  0  0  0  0  0
    4.8111   -7.5320   -5.4595 H   0  0  0  0  0  0  0  0  0  0  0  0
   -1.0113   -9.6719   -4.8894 H   0  0  0  0  0  0  0  0  0  0  0  0
    2.6603  -12.4381   -7.0151 H   0  0  0  0  0  0  0  0  0  0  0  0
   -0.2011  -14.3086   -6.6816 H   0  0  0  0  0  0  0  0  0  0  0  0
    0.0357  -13.5449   -9.2229 H   0  0  0  0  0  0  0  0  0  0  0  0
   -2.0782  -15.0909   -9.0104 H   0  0  0  0  0  0  0  0  0  0  0  0
   -4.0263  -13.6783   -7.8849 H   0  0  0  0  0  0  0  0  0  0  0  0
   -3.1118  -11.2621   -7.4053 H   0  0  0  0  0  0  0  0  0  0  0  0
   -1.8080  -11.6988   -9.6669 H   0  0  0  0  0  0  0  0  0  0  0  0
   -0.6553  -11.0591   -8.4728 H   0  0  0  0  0  0  0  0  0  0  0  0
   -2.1065  -12.9203   -5.5770 H   0  0  0  0  0  0  0  0  0  0  0  0
    2.3579   -8.4033    0.4402 H   0  0  0  0  0  0  0  0  0  0  0  0
    0.5526   -7.9794    2.0657 H   0  0  0  0  0  0  0  0  0  0  0  0
   -1.4214   -6.6584    1.4072 H   0  0  0  0  0  0  0  0  0  0  0  0
   -1.6160   -5.8112   -0.9065 H   0  0  0  0  0  0  0  0  0  0  0  0
    0.1842   -6.2651   -2.5407 H   0  0  0  0  0  0  0  0  0  0  0  0
    4.9991   -8.3166   -2.2375 H   0  0  0  0  0  0  0  0  0  0  0  0
    5.7868  -10.6175   -2.5461 H   0  0  0  0  0  0  0  0  0  0  0  0
    4.1688  -12.4785   -2.6955 H   0  0  0  0  0  0  0  0  0  0  0  0
    1.7532  -12.0213   -2.4591 H   0  0  0  0  0  0  0  0  0  0  0  0
    0.9600   -9.7118   -2.1312 H   0  0  0  0  0  0  0  0  0  0  0  0
    5.0399   -1.5878   -5.9105 H   0  0  0  0  0  0  0  0  0  0  0  0
    7.3946   -1.9830   -6.4755 H   0  0  0  0  0  0  0  0  0  0  0  0
    8.9849   -2.7312   -4.7428 H   0  0  0  0  0  0  0  0  0  0  0  0
    8.1941   -3.0850   -2.4290 H   0  0  0  0  0  0  0  0  0  0  0  0
    5.8384   -2.6574   -1.8522 H   0  0  0  0  0  0  0  0  0  0  0  0
    1.3280   -2.0905   -3.8691 H   0  0  0  0  0  0  0  0  0  0  0  0
   -0.0727   -0.5192   -5.1178 H   0  0  0  0  0  0  0  0  0  0  0  0
    0.9145    1.5113   -6.1217 H   0  0  0  0  0  0  0  0  0  0  0  0
    3.3161    1.9894   -5.7837 H   0  0  0  0  0  0  0  0  0  0  0  0
    4.7190    0.4376   -4.5073 H   0  0  0  0  0  0  0  0  0  0  0  0
    4.2564    1.6812   -2.1355 H   0  0  0  0  0  0  0  0  0  0  0  0
    4.3488    1.4579   -0.3721 H   0  0  0  0  0  0  0  0  0  0  0  0
    6.2553   -0.0979   -0.6464 H   0  0  0  0  0  0  0  0  0  0  0  0
    6.6072    1.4759   -1.3815 H   0  0  0  0  0  0  0  0  0  0  0  0
    6.1868    0.0896   -2.3976 H   0  0  0  0  0  0  0  0  0  0  0  0
    0.3368    2.9192   -0.6574 H   0  0  0  0  0  0  0  0  0  0  0  0
    1.7411    3.7974   -1.3234 H   0  0  0  0  0  0  0  0  0  0  0  0
    0.4459    1.3053   -2.5545 H   0  0  0  0  0  0  0  0  0  0  0  0
    1.8202    2.1797   -3.2279 H   0  0  0  0  0  0  0  0  0  0  0  0
    0.2372    2.9628   -3.1344 H   0  0  0  0  0  0  0  0  0  0  0  0
    0.6134    5.1210    0.3997 H   0  0  0  0  0  0  0  0  0  0  0  0
    0.6194    7.5515    0.8066 H   0  0  0  0  0  0  0  0  0  0  0  0
    1.3977   10.2571    4.9605 H   0  0  0  0  0  0  0  0  0  0  0  0
    1.0327    8.5164    5.1140 H   0  0  0  0  0  0  0  0  0  0  0  0
    2.7326    9.0939    5.0483 H   0  0  0  0  0  0  0  0  0  0  0  0
    2.9126    6.9372    4.3618 H   0  0  0  0  0  0  0  0  0  0  0  0
    2.9191    4.5297    3.9466 H   0  0  0  0  0  0  0  0  0  0  0  0
    1.8805    0.7494    2.9236 H   0  0  0  0  0  0  0  0  0  0  0  0
    3.9443   -0.5607    3.0464 H   0  0  0  0  0  0  0  0  0  0  0  0
    7.9502    1.9030    2.8648 H   0  0  0  0  0  0  0  0  0  0  0  0
    8.0149    1.4514    1.1294 H   0  0  0  0  0  0  0  0  0  0  0  0
    8.8974    0.4944    2.3373 H   0  0  0  0  0  0  0  0  0  0  0  0
    6.1568    2.7797    1.5507 H   0  0  0  0  0  0  0  0  0  0  0  0
    4.1000    4.0593    1.3672 H   0  0  0  0  0  0  0  0  0  0  0  0
   -5.6060    1.0648    1.5411 H   0  0  0  0  0  0  0  0  0  0  0  0
   -5.4190   -1.3667    1.4024 H   0  0  0  0  0  0  0  0  0  0  0  0
   -5.4479   -3.6980    1.3204 H   0  0  0  0  0  0  0  0  0  0  0  0
   -3.9502   -3.0849    0.5458 H   0  0  0  0  0  0  0  0  0  0  0  0
   -4.0337   -4.7566    1.1488 H   0  0  0  0  0  0  0  0  0  0  0  0
   -2.6461   -1.3459    4.6588 H   0  0  0  0  0  0  0  0  0  0  0  0
   -2.8476    1.1110    4.8015 H   0  0  0  0  0  0  0  0  0  0  0  0
   -4.7285    4.9110    1.8105 H   0  0  0  0  0  0  0  0  0  0  0  0
   -6.8562    6.0968    1.7429 H   0  0  0  0  0  0  0  0  0  0  0  0
   -8.8451    7.2110    1.4727 H   0  0  0  0  0  0  0  0  0  0  0  0
   -8.3416    7.5703    3.1594 H   0  0  0  0  0  0  0  0  0  0  0  0
  -10.0461    7.7038    2.6845 H   0  0  0  0  0  0  0  0  0  0  0  0
   -8.6237    3.0772    4.2012 H   0  0  0  0  0  0  0  0  0  0  0  0
   -6.4620    1.9044    4.3087 H   0  0  0  0  0  0  0  0  0  0  0  0
   -4.4473    4.9066    4.5532 H   0  0  0  0  0  0  0  0  0  0  0  0
   -0.9585   10.0655    3.9117 H   0  0  0  0  0  0  0  0  0  0  0  0
   -5.8043   10.1180    5.3876 H   0  0  0  0  0  0  0  0  0  0  0  0
   -4.4220   13.2437    5.7058 H   0  0  0  0  0  0  0  0  0  0  0  0
   -5.9653   13.1856    3.5354 H   0  0  0  0  0  0  0  0  0  0  0  0
   -5.0327   15.6244    3.8268 H   0  0  0  0  0  0  0  0  0  0  0  0
   -2.4914   15.6364    3.0522 H   0  0  0  0  0  0  0  0  0  0  0  0
   -1.8591   13.2039    2.2837 H   0  0  0  0  0  0  0  0  0  0  0  0
   -4.0850   11.7011    2.3173 H   0  0  0  0  0  0  0  0  0  0  0  0
   -4.3639   13.2157    1.4276 H   0  0  0  0  0  0  0  0  0  0  0  0
   -1.9306   13.2547    4.9464 H   0  0  0  0  0  0  0  0  0  0  0  0
  1  2  2  0  0  0  0
  2  3  1  0  0  0  0
  3  4  2  0  0  0  0
  3  5  1  0  0  0  0
  5  6  2  0  0  0  0
  6  7  1  0  0  0  0
  7  8  2  0  0  0  0
  8  9  1  0  0  0  0
  9 10  2  0  0  0  0
 10 11  1  0  0  0  0
 11 12  2  0  0  0  0
 12 13  1  0  0  0  0
 13 14  3  0  0  0  0
 12 15  1  0  0  0  0
 15 16  3  0  0  0  0
  8 17  1  0  0  0  0
 17 18  1  0  0  0  0
 18 19  1  0  0  0  0
 19 20  2  0  0  0  0
 20 21  1  0  0  0  0
 21 22  1  0  0  0  0
 21 23  1  0  0  0  0
  1 24  1  0  0  0  0
 24 25  2  0  0  0  0
 25 26  1  0  0  0  0
 26 27  1  0  0  0  0
 27 28  2  0  0  0  0
 28 29  1  0  0  0  0
 29 30  2  0  0  0  0
 30 31  1  0  0  0  0
 31 32  2  0  0  0  0
 26 33  1  0  0  0  0
 33 34  2  0  0  0  0
 34 35  1  0  0  0  0
 35 36  2  0  0  0  0
 36 37  1  0  0  0  0
 37 38  2  0  0  0  0
 25 39  1  0  0  0  0
 39 40  1  0  0  0  0
 40 41  1  0  0  0  0
 41 42  2  0  0  0  0
 42 43  1  0  0  0  0
 43 44  1  0  0  0  0
 44 45  2  0  0  0  0
 45 46  1  0  0  0  0
 46 47  2  0  0  0  0
 47 48  1  0  0  0  0
 48 49  2  0  0  0  0
 43 50  1  0  0  0  0
 50 51  2  0  0  0  0
 51 52  1  0  0  0  0
 52 53  2  0  0  0  0
 53 54  1  0  0  0  0
 54 55  2  0  0  0  0
 42 56  1  0  0  0  0
 56 57  1  0  0  0  0
 41 58  1  0  0  0  0
 58 59  2  0  0  0  0
 59 60  1  0  0  0  0
 60 61  1  0  0  0  0
 61 62  1  0  0  0  0
 59 63  1  0  0  0  0
 63 64  1  0  0  0  0
 64 65  1  0  0  0  0
 65 66  1  0  0  0  0
 63 67  2  0  0  0  0
 67 68  1  0  0  0  0
 68 69  1  0  0  0  0
 69 70  2  0  0  0  0
 70 71  1  0  0  0  0
 71 72  1  0  0  0  0
 67 73  1  0  0  0  0
 73 74  2  0  0  0  0
 74 75  1  0  0  0  0
 75 76  1  0  0  0  0
 76 77  2  0  0  0  0
 77 78  1  0  0  0  0
 78 79  2  0  0  0  0
 79 80  1  0  0  0  0
 80 81  1  0  0  0  0
 79 82  1  0  0  0  0
 82 83  2  0  0  0  0
 75 84  1  0  0  0  0
 84 85  2  0  0  0  0
 85 86  1  0  0  0  0
 86 87  2  0  0  0  0
 87 88  1  0  0  0  0
 88 89  1  0  0  0  0
 87 90  1  0  0  0  0
 90 91  2  0  0  0  0
 74 92  1  0  0  0  0
 92 93  1  0  0  0  0
 93 94  1  0  0  0  0
 94 95  2  0  0  0  0
 95 96  1  0  0  0  0
 96 97  1  0  0  0  0
 97 98  2  0  0  0  0
 98 99  1  0  0  0  0
 99100  2  0  0  0  0
100101  1  0  0  0  0
101102  1  0  0  0  0
100103  1  0  0  0  0
103104  2  0  0  0  0
 96105  1  0  0  0  0
105106  2  0  0  0  0
106107  1  0  0  0  0
107108  2  0  0  0  0
108109  1  0  0  0  0
109110  1  0  0  0  0
108111  1  0  0  0  0
111112  2  0  0  0  0
 95113  1  0  0  0  0
113114  1  0  0  0  0
 94115  1  0  0  0  0
115116  2  0  0  0  0
116117  1  0  0  0  0
117118  2  0  0  0  0
117119  1  0  0  0  0
119120  2  0  0  0  0
120121  1  0  0  0  0
121122  2  0  0  0  0
122123  1  0  0  0  0
123124  2  0  0  0  0
124125  1  0  0  0  0
125126  2  0  0  0  0
126127  1  0  0  0  0
127128  3  0  0  0  0
126129  1  0  0  0  0
129130  3  0  0  0  0
122131  1  0  0  0  0
131132  1  0  0  0  0
132133  1  0  0  0  0
133134  2  0  0  0  0
134135  1  0  0  0  0
135136  1  0  0  0  0
135137  1  0  0  0  0
 11  2  1  0  0  0  0
 23 17  1  0  0  0  0
 57 24  1  0  0  0  0
 69 58  1  0  0  0  0
114 73  1  0  0  0  0
125116  1  0  0  0  0
137131  1  0  0  0  0
 10  5  1  0  0  0  0
 22 18  1  0  0  0  0
 32 27  1  0  0  0  0
 38 33  1  0  0  0  0
 56 39  2  0  0  0  0
 72 68  2  0  0  0  0
 83 76  1  0  0  0  0
 91 84  1  0  0  0  0
113 92  2  0  0  0  0
124119  1  0  0  0  0
136132  1  0  0  0  0
 23  7  1  0  0  0  0
 49 44  1  0  0  0  0
 55 50  1  0  0  0  0
104 97  1  0  0  0  0
112105  1  0  0  0  0
137121  1  0  0  0  0
  1138  1  0  0  0  0
  6139  1  0  0  0  0
  9140  1  0  0  0  0
 17141  1  0  0  0  0
 18142  1  0  0  0  0
 19143  1  0  0  0  0
 20144  1  0  0  0  0
 21145  1  0  0  0  0
 22146  1  0  0  0  0
 22147  1  0  0  0  0
 23148  1  0  0  0  0
 28149  1  0  0  0  0
 29150  1  0  0  0  0
 30151  1  0  0  0  0
 31152  1  0  0  0  0
 32153  1  0  0  0  0
 34154  1  0  0  0  0
 35155  1  0  0  0  0
 36156  1  0  0  0  0
 37157  1  0  0  0  0
 38158  1  0  0  0  0
 45159  1  0  0  0  0
 46160  1  0  0  0  0
 47161  1  0  0  0  0
 48162  1  0  0  0  0
 49163  1  0  0  0  0
 51164  1  0  0  0  0
 52165  1  0  0  0  0
 53166  1  0  0  0  0
 54167  1  0  0  0  0
 55168  1  0  0  0  0
 61169  1  0  0  0  0
 61170  1  0  0  0  0
 62171  1  0  0  0  0
 62172  1  0  0  0  0
 62173  1  0  0  0  0
 65174  1  0  0  0  0
 65175  1  0  0  0  0
 66176  1  0  0  0  0
 66177  1  0  0  0  0
 66178  1  0  0  0  0
 77179  1  0  0  0  0
 78180  1  0  0  0  0
 81181  1  0  0  0  0
 81182  1  0  0  0  0
 81183  1  0  0  0  0
 82184  1  0  0  0  0
 83185  1  0  0  0  0
 85186  1  0  0  0  0
 86187  1  0  0  0  0
 89188  1  0  0  0  0
 89189  1  0  0  0  0
 89190  1  0  0  0  0
 90191  1  0  0  0  0
 91192  1  0  0  0  0
 98193  1  0  0  0  0
 99194  1  0  0  0  0
102195  1  0  0  0  0
102196  1  0  0  0  0
102197  1  0  0  0  0
103198  1  0  0  0  0
104199  1  0  0  0  0
106200  1  0  0  0  0
107201  1  0  0  0  0
110202  1  0  0  0  0
110203  1  0  0  0  0
110204  1  0  0  0  0
111205  1  0  0  0  0
112206  1  0  0  0  0
115207  1  0  0  0  0
120208  1  0  0  0  0
123209  1  0  0  0  0
131210  1  0  0  0  0
132211  1  0  0  0  0
133212  1  0  0  0  0
134213  1  0  0  0  0
135214  1  0  0  0  0
136215  1  0  0  0  0
136216  1  0  0  0  0
137217  1  0  0  0  0
M  END
