173

C          3.80430       -3.06700        2.77260
C          4.35170       -3.57700        3.91520
C          5.13700       -2.86850        4.95290
O          5.60210       -1.74730        4.91860
C          5.22480       -3.79980        6.09320
C          5.81410       -3.54510        7.33020
C          5.73530       -4.59380        8.21420
C          5.11700       -5.80980        7.89210
C          4.53760       -6.07650        6.67490
C          4.60520       -5.02030        5.76010
C          4.10700       -4.92840        4.39180
C          3.56790       -5.96510        3.67350
C          3.16270       -5.91520        2.32340
N          2.81760       -5.97620        1.22860
C          3.36740       -7.26710        4.17900
N          3.16990       -8.34610        4.51820
C          5.39120       -6.40180        9.25190
C          4.20160       -6.45180       10.23400
C          4.85600       -6.61370       11.58690
C          5.44150       -5.46280       11.89240
C          5.19240       -4.50340       10.75090
C          3.79960       -4.97310       10.31120
C          6.08070       -5.04650        9.61110
C          3.95660       -1.80850        2.15260
C          4.85330       -0.77410        2.31390
C          4.67580        0.29740        1.42150
C          5.64140        1.39120        1.32610
C          6.33850        1.81160        2.45740
C          7.34360        2.75280        2.34870
C          7.66610        3.29090        1.11410
C          6.97060        2.88800       -0.01300
C          5.96470        1.94610        0.08980
C          3.60110        0.09630        0.56950
S          2.85410       -1.44730        0.84210
C          2.96700        0.92470       -0.42210
C          2.19610        2.05470       -0.23360
N          1.96600        2.68670        0.98550
C          0.62010        2.89150        1.32250
C         -0.32300        1.91840        0.99240
C         -1.67060        2.13950        1.19050
C         -2.10200        3.33610        1.74590
S         -3.80330        3.73590        2.00140
C         -4.68660        2.60530        0.88640
C         -1.15950        4.28210        2.14260
C          0.18470        4.06880        1.93010
C          2.98880        3.37240        1.65310
C          3.05390        3.34620        3.04170
C          4.03160        4.05440        3.71190
C          4.95590        4.80520        2.99810
S          6.24200        5.75680        3.74160
C          6.18560        5.26890        5.49020
C          4.89010        4.83600        1.60730
C          3.92420        4.11890        0.93910
C          1.43420        2.34800       -1.39610
S          0.24800        3.54590       -1.75280
C         -0.19260        2.68020       -3.21640
C          0.63030        1.59230       -3.47410
N          0.57430        0.75550       -4.56750
C          0.02030        1.16530       -5.78220
C         -0.70580        0.26700       -6.56610
C         -1.35490        0.69950       -7.70080
C         -1.29400        2.03670       -8.08490
S         -2.23220        2.51150       -9.50250
C         -2.40630        4.30760       -9.29800
C         -0.50390        2.91610       -7.35510
C          0.15020        2.48160       -6.22020
C          0.88510       -0.60090       -4.34820
C          1.68140       -1.30760       -5.24720
C          2.04580       -2.60680       -4.97030
C          1.63120       -3.22550       -3.79090
S          2.20810       -4.86380       -3.49150
C          1.94250       -5.07660       -1.70870
C          0.79320       -2.54080       -2.91990
C          0.42280       -1.24120       -3.20160
C          1.56810        1.42800       -2.42060
S          2.76420        0.23990       -2.03150
C         -1.43600        3.03100       -3.84840
C         -2.37770        2.04600       -4.22000
N         -2.29340        0.70870       -4.22380
N         -3.46700        0.31420       -4.62460
C         -3.77630       -1.07530       -4.81140
C         -3.36410       -1.88850       -3.59300
N         -4.34500        1.24150       -4.88100
C         -3.69980        2.38530       -4.62300
C         -4.13860        3.72450       -4.69410
C         -3.15950        4.67270       -4.44450
C         -1.87170        4.33920       -4.00400
F         -1.03020        5.35100       -3.71710
F         -3.47430        5.97670       -4.53610
C         -5.51170        4.06550       -4.96390
C         -6.54410        3.45010       -4.33950
C         -6.40350        2.64970       -3.09060
O         -5.38520        2.35290       -2.50100
C         -7.77750        2.39430       -2.62840
C         -8.14970        1.71210       -1.47060
C         -9.50690        1.63840       -1.27450
C        -10.43120        2.21210       -2.15940
C        -10.07940        2.89770       -3.29720
C         -8.70030        2.97710       -3.52120
C         -7.96340        3.61120       -4.60840
C         -8.50490        4.18380       -5.72710
C         -9.88890        4.29800       -5.97640
N        -10.99980        4.42450       -6.23590
C         -7.75320        4.70960       -6.80050
N         -7.21180        5.13740       -7.71770
C        -11.61510        1.75180       -1.34620
C        -12.38200        0.52340       -1.88090
C        -13.14890        0.02480       -0.67740
C        -12.27540       -0.51670        0.16190
C        -10.90330       -0.39330       -0.46040
C        -11.27220       -0.53410       -1.94280
C        -10.58500        1.11370       -0.35960
H          3.10530       -3.71050        2.25100
H          6.28210       -2.59490        7.53490
H          4.06570       -7.01660        6.44390
H          5.98980       -7.31050        9.26170
H          3.42780       -7.16930        9.97520
H          4.87250       -7.53510       12.13880
H          6.04470       -5.23060       12.75030
H          5.32050       -3.44550       10.96410
H          3.04440       -4.79150       11.07410
H          3.46790       -4.55290        9.36340
H          7.13970       -5.05100        9.86190
H          5.64420       -0.81370        3.03880
H          6.08660        1.39890        3.42280
H          7.88450        3.06710        3.22880
H          8.45600        4.02210        1.03320
H          7.21830        3.30280       -0.97900
H          5.44480        1.61400       -0.79690
H          0.00250        0.98320        0.55950
H         -2.37460        1.37450        0.90460
H         -4.63980        1.58820        1.26540
H         -4.28030        2.67270       -0.11860
H         -5.71700        2.94820        0.88750
H         -1.49820        5.20260        2.59260
H          0.90170        4.82770        2.20400
H          2.32660        2.77160        3.59590
H          4.05690        4.01470        4.78870
H          7.03830        5.75240        5.95670
H          6.27940        4.19020        5.57320
H          5.26760        5.62250        5.95050
H          5.60300        5.43350        1.06110
H          3.87220        4.14840       -0.13900
H         -0.78120       -0.76480       -6.25880
H         -1.93820        0.01130       -8.29360
H         -2.70900        4.52670       -8.27880
H         -1.47800        4.81100       -9.55140
H         -3.18780        4.60840       -9.98840
H         -0.38980        3.94310       -7.66290
H          0.76190        3.17590       -5.66410
H          2.02580       -0.82400       -6.14910
H          2.67790       -3.15330       -5.65290
H          2.49840       -5.96280       -1.42190
H          0.88820       -5.22580       -1.49580
H          2.33360       -4.21370       -1.17890
H          0.42630       -3.00810       -2.02040
H         -0.22750       -0.70500       -2.52570
H         -3.24340       -1.43170       -5.69890
H         -4.85090       -1.13130       -4.99330
H         -2.29240       -1.80080       -3.43640
H         -3.88100       -1.52920       -2.70650
H         -3.61460       -2.93420       -3.74630
H         -5.68850        4.87790       -5.65700
H         -7.40400        1.29320       -0.81270
H        -10.80110        3.34670       -3.95890
H        -12.27260        2.53680       -0.97850
H        -12.95420        0.70360       -2.78660
H        -14.20520        0.16200       -0.54030
H        -12.45620       -0.92170        1.14020
H        -10.12920       -1.04950       -0.07130
H        -10.46240       -0.28870       -2.62760
H        -11.66040       -1.52370       -2.17780
H        -10.55370        1.47470        0.66670
