
  xtb     02052210563D
 energy: -296.088261568006 gnorm: 0.000600315540 xtb: 6.4.1 (unknown)
177195  0     0  0            999 V2000
   -7.7134    6.0964   -4.2803 C   0  0  0  0  0  0  0  0  0  0  0  0
   -8.2380    6.4908   -3.0878 C   0  0  0  0  0  0  0  0  0  0  0  0
   -7.5518    6.4794   -1.7686 C   0  0  0  0  0  0  0  0  0  0  0  0
   -6.5179    5.9294   -1.4497 O   0  0  0  0  0  0  0  0  0  0  0  0
   -8.3553    7.3555   -0.8957 C   0  0  0  0  0  0  0  0  0  0  0  0
   -8.0602    7.7054    0.4211 C   0  0  0  0  0  0  0  0  0  0  0  0
   -8.9858    8.5395    0.9988 C   0  0  0  0  0  0  0  0  0  0  0  0
  -10.1189    9.0021    0.3150 C   0  0  0  0  0  0  0  0  0  0  0  0
  -10.4186    8.6703   -0.9843 C   0  0  0  0  0  0  0  0  0  0  0  0
   -9.4925    7.8131   -1.5889 C   0  0  0  0  0  0  0  0  0  0  0  0
   -9.4727    7.2454   -2.9319 C   0  0  0  0  0  0  0  0  0  0  0  0
  -10.4828    7.3326   -3.8526 C   0  0  0  0  0  0  0  0  0  0  0  0
  -11.6827    8.0472   -3.6543 C   0  0  0  0  0  0  0  0  0  0  0  0
  -12.6784    8.6107   -3.5583 N   0  0  0  0  0  0  0  0  0  0  0  0
  -10.4918    6.6876   -5.1083 C   0  0  0  0  0  0  0  0  0  0  0  0
  -10.5888    6.1821   -6.1350 N   0  0  0  0  0  0  0  0  0  0  0  0
  -10.6075    9.7970    1.5005 C   0  0  0  0  0  0  0  0  0  0  0  0
  -11.7706    9.1839    2.3090 C   0  0  0  0  0  0  0  0  0  0  0  0
  -11.7080    9.9054    3.6360 C   0  0  0  0  0  0  0  0  0  0  0  0
  -10.6365    9.4664    4.2839 C   0  0  0  0  0  0  0  0  0  0  0  0
   -9.9566    8.4411    3.4054 C   0  0  0  0  0  0  0  0  0  0  0  0
  -11.1834    7.8271    2.7188 C   0  0  0  0  0  0  0  0  0  0  0  0
   -9.3454    9.2798    2.2629 C   0  0  0  0  0  0  0  0  0  0  0  0
   -6.5320    5.3113   -4.5002 C   0  0  0  0  0  0  0  0  0  0  0  0
   -6.1421    4.3097   -3.6092 C   0  0  0  0  0  0  0  0  0  0  0  0
   -4.9493    3.6545   -3.8411 C   0  0  0  0  0  0  0  0  0  0  0  0
   -4.3381    2.6845   -3.0870 N   0  0  0  0  0  0  0  0  0  0  0  0
   -4.8249    2.1838   -1.8276 C   0  0  0  0  0  0  0  0  0  0  0  0
   -4.4856    3.1241   -0.6736 C   0  0  0  0  0  0  0  0  0  0  0  0
   -3.1214    2.4079   -3.6516 C   0  0  0  0  0  0  0  0  0  0  0  0
   -2.9675    3.1549   -4.8489 C   0  0  0  0  0  0  0  0  0  0  0  0
   -4.1390    3.9625   -4.9671 C   0  0  0  0  0  0  0  0  0  0  0  0
   -4.5742    4.9142   -5.8879 C   0  0  0  0  0  0  0  0  0  0  0  0
   -5.7607    5.5661   -5.6561 C   0  0  0  0  0  0  0  0  0  0  0  0
   -1.8027    3.0062   -5.5962 C   0  0  0  0  0  0  0  0  0  0  0  0
   -0.8085    2.1682   -5.1436 C   0  0  0  0  0  0  0  0  0  0  0  0
   -0.9376    1.4625   -3.9334 C   0  0  0  0  0  0  0  0  0  0  0  0
   -2.1186    1.5742   -3.1979 C   0  0  0  0  0  0  0  0  0  0  0  0
    0.1122    0.6316   -3.3756 C   0  0  0  0  0  0  0  0  0  0  0  0
    1.1635   -0.0728   -3.9312 C   0  0  0  0  0  0  0  0  0  0  0  0
    1.5423   -0.1121   -5.2814 N   0  0  0  0  0  0  0  0  0  0  0  0
    1.6644   -1.3902   -5.8427 C   0  0  0  0  0  0  0  0  0  0  0  0
    0.6965   -2.3504   -5.5582 C   0  0  0  0  0  0  0  0  0  0  0  0
    0.7908   -3.6287   -6.0733 C   0  0  0  0  0  0  0  0  0  0  0  0
    1.8578   -3.9691   -6.8920 C   0  0  0  0  0  0  0  0  0  0  0  0
    2.0870   -5.5616   -7.6224 S   0  0  0  0  0  0  0  0  0  0  0  0
    0.6413   -6.5108   -7.0708 C   0  0  0  0  0  0  0  0  0  0  0  0
    2.8335   -3.0147   -7.1733 C   0  0  0  0  0  0  0  0  0  0  0  0
    2.7448   -1.7443   -6.6520 C   0  0  0  0  0  0  0  0  0  0  0  0
    2.1277    1.0060   -5.8760 C   0  0  0  0  0  0  0  0  0  0  0  0
    2.7095    2.0115   -5.0999 C   0  0  0  0  0  0  0  0  0  0  0  0
    3.2527    3.1266   -5.6974 C   0  0  0  0  0  0  0  0  0  0  0  0
    3.2398    3.2669   -7.0831 C   0  0  0  0  0  0  0  0  0  0  0  0
    3.9743    4.7383   -7.7310 S   0  0  0  0  0  0  0  0  0  0  0  0
    3.8328    4.5435   -9.5302 C   0  0  0  0  0  0  0  0  0  0  0  0
    2.6608    2.2730   -7.8607 C   0  0  0  0  0  0  0  0  0  0  0  0
    2.1071    1.1586   -7.2624 C   0  0  0  0  0  0  0  0  0  0  0  0
    1.8384   -0.8552   -2.9556 C   0  0  0  0  0  0  0  0  0  0  0  0
    3.1941   -1.9298   -2.9881 S   0  0  0  0  0  0  0  0  0  0  0  0
    3.0423   -2.2182   -1.2599 C   0  0  0  0  0  0  0  0  0  0  0  0
    2.0222   -1.4793   -0.6890 C   0  0  0  0  0  0  0  0  0  0  0  0
    1.6768   -1.4096    0.6566 N   0  0  0  0  0  0  0  0  0  0  0  0
    0.3274   -1.1710    0.9602 C   0  0  0  0  0  0  0  0  0  0  0  0
   -0.6780   -1.8456    0.2648 C   0  0  0  0  0  0  0  0  0  0  0  0
   -2.0020   -1.5371    0.4821 C   0  0  0  0  0  0  0  0  0  0  0  0
   -2.3544   -0.5554    1.4053 C   0  0  0  0  0  0  0  0  0  0  0  0
   -4.0771   -0.1856    1.5340 S   0  0  0  0  0  0  0  0  0  0  0  0
   -4.1682    1.0257    2.8825 C   0  0  0  0  0  0  0  0  0  0  0  0
   -1.3613    0.0793    2.1393 C   0  0  0  0  0  0  0  0  0  0  0  0
   -0.0331   -0.2273    1.9175 C   0  0  0  0  0  0  0  0  0  0  0  0
    2.6276   -1.4784    1.6781 C   0  0  0  0  0  0  0  0  0  0  0  0
    2.3001   -2.0959    2.8871 C   0  0  0  0  0  0  0  0  0  0  0  0
    3.2598   -2.2842    3.8549 C   0  0  0  0  0  0  0  0  0  0  0  0
    4.5731   -1.8696    3.6429 C   0  0  0  0  0  0  0  0  0  0  0  0
    5.7408   -2.2844    4.9009 S   0  0  0  0  0  0  0  0  0  0  0  0
    7.3379   -1.8134    4.1904 C   0  0  0  0  0  0  0  0  0  0  0  0
    4.8840   -1.1830    2.4766 C   0  0  0  0  0  0  0  0  0  0  0  0
    3.9185   -0.9836    1.5100 C   0  0  0  0  0  0  0  0  0  0  0  0
    1.3421   -0.7198   -1.6743 C   0  0  0  0  0  0  0  0  0  0  0  0
    0.0257    0.3886   -1.6343 S   0  0  0  0  0  0  0  0  0  0  0  0
    4.0117   -3.0411   -0.5625 C   0  0  0  0  0  0  0  0  0  0  0  0
    3.5980   -3.8573    0.4869 C   0  0  0  0  0  0  0  0  0  0  0  0
    4.5652   -4.4022    1.3134 C   0  0  0  0  0  0  0  0  0  0  0  0
    4.4183   -5.1011    2.4840 N   0  0  0  0  0  0  0  0  0  0  0  0
    3.1813   -5.5900    3.0309 C   0  0  0  0  0  0  0  0  0  0  0  0
    2.8925   -7.0180    2.5705 C   0  0  0  0  0  0  0  0  0  0  0  0
    5.6617   -5.2955    3.0328 C   0  0  0  0  0  0  0  0  0  0  0  0
    6.6490   -4.7486    2.1682 C   0  0  0  0  0  0  0  0  0  0  0  0
    5.9451   -4.1784    1.0670 C   0  0  0  0  0  0  0  0  0  0  0  0
    6.3432   -3.4665   -0.0619 C   0  0  0  0  0  0  0  0  0  0  0  0
    5.3785   -2.9068   -0.8640 C   0  0  0  0  0  0  0  0  0  0  0  0
    7.9949   -4.8126    2.5235 C   0  0  0  0  0  0  0  0  0  0  0  0
    8.3374   -5.3286    3.7494 C   0  0  0  0  0  0  0  0  0  0  0  0
    7.3567   -5.8186    4.6356 C   0  0  0  0  0  0  0  0  0  0  0  0
    6.0125   -5.8598    4.2416 C   0  0  0  0  0  0  0  0  0  0  0  0
    7.6758   -6.3128    5.9425 C   0  0  0  0  0  0  0  0  0  0  0  0
    8.6461   -5.8818    6.7971 C   0  0  0  0  0  0  0  0  0  0  0  0
    9.3928   -4.6031    6.7053 C   0  0  0  0  0  0  0  0  0  0  0  0
    9.4031   -3.7881    5.8082 O   0  0  0  0  0  0  0  0  0  0  0  0
   10.0832   -4.4590    8.0054 C   0  0  0  0  0  0  0  0  0  0  0  0
   10.8815   -3.4187    8.4356 C   0  0  0  0  0  0  0  0  0  0  0  0
   11.4316   -3.4937    9.7086 C   0  0  0  0  0  0  0  0  0  0  0  0
   12.4361   -2.2235   10.2797 Cl  0  0  0  0  0  0  0  0  0  0  0  0
   11.1697   -4.5997   10.5253 C   0  0  0  0  0  0  0  0  0  0  0  0
   11.8515   -4.6769   12.0997 Cl  0  0  0  0  0  0  0  0  0  0  0  0
   10.3624   -5.6439   10.0886 C   0  0  0  0  0  0  0  0  0  0  0  0
    9.8152   -5.5735    8.8172 C   0  0  0  0  0  0  0  0  0  0  0  0
    8.9476   -6.4893    8.0842 C   0  0  0  0  0  0  0  0  0  0  0  0
    8.5511   -7.7263    8.5183 C   0  0  0  0  0  0  0  0  0  0  0  0
    7.7741   -8.6437    7.7786 C   0  0  0  0  0  0  0  0  0  0  0  0
    7.1637   -9.4552    7.2422 N   0  0  0  0  0  0  0  0  0  0  0  0
    8.8887   -8.2677    9.7772 C   0  0  0  0  0  0  0  0  0  0  0  0
    9.1197   -8.7614   10.7872 N   0  0  0  0  0  0  0  0  0  0  0  0
   -8.1935    6.4609   -5.1814 H   0  0  0  0  0  0  0  0  0  0  0  0
   -7.1719    7.3325    0.9067 H   0  0  0  0  0  0  0  0  0  0  0  0
  -11.2864    9.0445   -1.5012 H   0  0  0  0  0  0  0  0  0  0  0  0
  -10.7177   10.8679    1.3412 H   0  0  0  0  0  0  0  0  0  0  0  0
  -12.7289    9.1817    1.7972 H   0  0  0  0  0  0  0  0  0  0  0  0
  -12.3952   10.6755    3.9332 H   0  0  0  0  0  0  0  0  0  0  0  0
  -10.2497    9.7966    5.2302 H   0  0  0  0  0  0  0  0  0  0  0  0
   -9.2626    7.7619    3.8935 H   0  0  0  0  0  0  0  0  0  0  0  0
  -10.9436    7.1758    1.8803 H   0  0  0  0  0  0  0  0  0  0  0  0
  -11.8250    7.2962    3.4202 H   0  0  0  0  0  0  0  0  0  0  0  0
   -8.6137   10.0060    2.6123 H   0  0  0  0  0  0  0  0  0  0  0  0
   -6.7693    4.0511   -2.7740 H   0  0  0  0  0  0  0  0  0  0  0  0
   -4.3843    1.1992   -1.6525 H   0  0  0  0  0  0  0  0  0  0  0  0
   -5.9090    2.0608   -1.9014 H   0  0  0  0  0  0  0  0  0  0  0  0
   -3.4073    3.2425   -0.5912 H   0  0  0  0  0  0  0  0  0  0  0  0
   -4.9348    4.1008   -0.8369 H   0  0  0  0  0  0  0  0  0  0  0  0
   -4.8669    2.7106    0.2560 H   0  0  0  0  0  0  0  0  0  0  0  0
   -3.9817    5.1384   -6.7618 H   0  0  0  0  0  0  0  0  0  0  0  0
   -6.1032    6.3224   -6.3468 H   0  0  0  0  0  0  0  0  0  0  0  0
   -1.6699    3.5564   -6.5153 H   0  0  0  0  0  0  0  0  0  0  0  0
    0.1000    2.0809   -5.7124 H   0  0  0  0  0  0  0  0  0  0  0  0
   -2.2404    1.0194   -2.2800 H   0  0  0  0  0  0  0  0  0  0  0  0
   -0.1414   -2.0888   -4.9282 H   0  0  0  0  0  0  0  0  0  0  0  0
    0.0216   -4.3442   -5.8305 H   0  0  0  0  0  0  0  0  0  0  0  0
   -0.2705   -6.0394   -7.4259 H   0  0  0  0  0  0  0  0  0  0  0  0
    0.6457   -6.6006   -5.9884 H   0  0  0  0  0  0  0  0  0  0  0  0
    0.7479   -7.4925   -7.5220 H   0  0  0  0  0  0  0  0  0  0  0  0
    3.6699   -3.2894   -7.7976 H   0  0  0  0  0  0  0  0  0  0  0  0
    3.5206   -1.0228   -6.8583 H   0  0  0  0  0  0  0  0  0  0  0  0
    2.7305    1.9138   -4.0250 H   0  0  0  0  0  0  0  0  0  0  0  0
    3.7021    3.9016   -5.0957 H   0  0  0  0  0  0  0  0  0  0  0  0
    4.3601    3.6493   -9.8497 H   0  0  0  0  0  0  0  0  0  0  0  0
    4.3066    5.4225   -9.9562 H   0  0  0  0  0  0  0  0  0  0  0  0
    2.7869    4.5120   -9.8215 H   0  0  0  0  0  0  0  0  0  0  0  0
    2.6232    2.3550   -8.9349 H   0  0  0  0  0  0  0  0  0  0  0  0
    1.6407    0.4006   -7.8739 H   0  0  0  0  0  0  0  0  0  0  0  0
   -0.4106   -2.6000   -0.4607 H   0  0  0  0  0  0  0  0  0  0  0  0
   -2.7792   -2.0461   -0.0673 H   0  0  0  0  0  0  0  0  0  0  0  0
   -3.7645    0.5948    3.7940 H   0  0  0  0  0  0  0  0  0  0  0  0
   -5.2249    1.2384    3.0134 H   0  0  0  0  0  0  0  0  0  0  0  0
   -3.6402    1.9338    2.6060 H   0  0  0  0  0  0  0  0  0  0  0  0
   -1.6038    0.8320    2.8718 H   0  0  0  0  0  0  0  0  0  0  0  0
    0.7371    0.2863    2.4735 H   0  0  0  0  0  0  0  0  0  0  0  0
    1.2906   -2.4459    3.0495 H   0  0  0  0  0  0  0  0  0  0  0  0
    3.0114   -2.7789    4.7814 H   0  0  0  0  0  0  0  0  0  0  0  0
    8.0905   -2.2712    4.8260 H   0  0  0  0  0  0  0  0  0  0  0  0
    7.4181   -2.2179    3.1866 H   0  0  0  0  0  0  0  0  0  0  0  0
    7.4437   -0.7322    4.1963 H   0  0  0  0  0  0  0  0  0  0  0  0
    5.8765   -0.7990    2.3060 H   0  0  0  0  0  0  0  0  0  0  0  0
    4.1739   -0.4534    0.6052 H   0  0  0  0  0  0  0  0  0  0  0  0
    2.5460   -4.0146    0.6660 H   0  0  0  0  0  0  0  0  0  0  0  0
    2.3775   -4.9213    2.7157 H   0  0  0  0  0  0  0  0  0  0  0  0
    3.2455   -5.5507    4.1213 H   0  0  0  0  0  0  0  0  0  0  0  0
    3.6899   -7.6863    2.8866 H   0  0  0  0  0  0  0  0  0  0  0  0
    2.8200   -7.0560    1.4859 H   0  0  0  0  0  0  0  0  0  0  0  0
    1.9554   -7.3662    2.9962 H   0  0  0  0  0  0  0  0  0  0  0  0
    7.3913   -3.3259   -0.2784 H   0  0  0  0  0  0  0  0  0  0  0  0
    5.6609   -2.3075   -1.7168 H   0  0  0  0  0  0  0  0  0  0  0  0
    8.7539   -4.4411    1.8519 H   0  0  0  0  0  0  0  0  0  0  0  0
    9.3742   -5.3849    4.0348 H   0  0  0  0  0  0  0  0  0  0  0  0
    5.2718   -6.2661    4.9135 H   0  0  0  0  0  0  0  0  0  0  0  0
    7.0117   -7.0894    6.3044 H   0  0  0  0  0  0  0  0  0  0  0  0
   11.0733   -2.5717    7.7960 H   0  0  0  0  0  0  0  0  0  0  0  0
   10.1786   -6.4762   10.7478 H   0  0  0  0  0  0  0  0  0  0  0  0
  1  2  2  0  0  0  0
  2  3  1  0  0  0  0
  3  4  2  0  0  0  0
  3  5  1  0  0  0  0
  5  6  2  0  0  0  0
  6  7  1  0  0  0  0
  7  8  2  0  0  0  0
  8  9  1  0  0  0  0
  9 10  2  0  0  0  0
 10 11  1  0  0  0  0
 11 12  2  0  0  0  0
 12 13  1  0  0  0  0
 13 14  3  0  0  0  0
 12 15  1  0  0  0  0
 15 16  3  0  0  0  0
  8 17  1  0  0  0  0
 17 18  1  0  0  0  0
 18 19  1  0  0  0  0
 19 20  2  0  0  0  0
 20 21  1  0  0  0  0
 21 22  1  0  0  0  0
 21 23  1  0  0  0  0
  1 24  1  0  0  0  0
 24 25  2  0  0  0  0
 25 26  1  0  0  0  0
 26 27  1  0  0  0  0
 27 28  1  0  0  0  0
 28 29  1  0  0  0  0
 27 30  1  0  0  0  0
 30 31  2  0  0  0  0
 31 32  1  0  0  0  0
 32 33  1  0  0  0  0
 33 34  2  0  0  0  0
 31 35  1  0  0  0  0
 35 36  2  0  0  0  0
 36 37  1  0  0  0  0
 37 38  2  0  0  0  0
 37 39  1  0  0  0  0
 39 40  2  0  0  0  0
 40 41  1  0  0  0  0
 41 42  1  0  0  0  0
 42 43  2  0  0  0  0
 43 44  1  0  0  0  0
 44 45  2  0  0  0  0
 45 46  1  0  0  0  0
 46 47  1  0  0  0  0
 45 48  1  0  0  0  0
 48 49  2  0  0  0  0
 41 50  1  0  0  0  0
 50 51  2  0  0  0  0
 51 52  1  0  0  0  0
 52 53  2  0  0  0  0
 53 54  1  0  0  0  0
 54 55  1  0  0  0  0
 53 56  1  0  0  0  0
 56 57  2  0  0  0  0
 40 58  1  0  0  0  0
 58 59  1  0  0  0  0
 59 60  1  0  0  0  0
 60 61  2  0  0  0  0
 61 62  1  0  0  0  0
 62 63  1  0  0  0  0
 63 64  2  0  0  0  0
 64 65  1  0  0  0  0
 65 66  2  0  0  0  0
 66 67  1  0  0  0  0
 67 68  1  0  0  0  0
 66 69  1  0  0  0  0
 69 70  2  0  0  0  0
 62 71  1  0  0  0  0
 71 72  2  0  0  0  0
 72 73  1  0  0  0  0
 73 74  2  0  0  0  0
 74 75  1  0  0  0  0
 75 76  1  0  0  0  0
 74 77  1  0  0  0  0
 77 78  2  0  0  0  0
 61 79  1  0  0  0  0
 79 80  1  0  0  0  0
 60 81  1  0  0  0  0
 81 82  2  0  0  0  0
 82 83  1  0  0  0  0
 83 84  1  0  0  0  0
 84 85  1  0  0  0  0
 85 86  1  0  0  0  0
 84 87  1  0  0  0  0
 87 88  2  0  0  0  0
 88 89  1  0  0  0  0
 89 90  1  0  0  0  0
 90 91  2  0  0  0  0
 88 92  1  0  0  0  0
 92 93  2  0  0  0  0
 93 94  1  0  0  0  0
 94 95  2  0  0  0  0
 94 96  1  0  0  0  0
 96 97  2  0  0  0  0
 97 98  1  0  0  0  0
 98 99  2  0  0  0  0
 98100  1  0  0  0  0
100101  2  0  0  0  0
101102  1  0  0  0  0
102103  1  0  0  0  0
102104  2  0  0  0  0
104105  1  0  0  0  0
104106  1  0  0  0  0
106107  2  0  0  0  0
107108  1  0  0  0  0
108109  2  0  0  0  0
109110  1  0  0  0  0
110111  3  0  0  0  0
109112  1  0  0  0  0
112113  3  0  0  0  0
 11  2  1  0  0  0  0
 23 17  1  0  0  0  0
 34 24  1  0  0  0  0
 80 39  1  0  0  0  0
 91 81  1  0  0  0  0
108 97  1  0  0  0  0
 10  5  1  0  0  0  0
 22 18  1  0  0  0  0
 32 26  2  0  0  0  0
 49 42  1  0  0  0  0
 57 50  1  0  0  0  0
 79 58  2  0  0  0  0
 89 83  2  0  0  0  0
107100  1  0  0  0  0
 23  7  1  0  0  0  0
 38 30  1  0  0  0  0
 70 63  1  0  0  0  0
 78 71  1  0  0  0  0
 95 87  1  0  0  0  0
  1114  1  0  0  0  0
  6115  1  0  0  0  0
  9116  1  0  0  0  0
 17117  1  0  0  0  0
 18118  1  0  0  0  0
 19119  1  0  0  0  0
 20120  1  0  0  0  0
 21121  1  0  0  0  0
 22122  1  0  0  0  0
 22123  1  0  0  0  0
 23124  1  0  0  0  0
 25125  1  0  0  0  0
 28126  1  0  0  0  0
 28127  1  0  0  0  0
 29128  1  0  0  0  0
 29129  1  0  0  0  0
 29130  1  0  0  0  0
 33131  1  0  0  0  0
 34132  1  0  0  0  0
 35133  1  0  0  0  0
 36134  1  0  0  0  0
 38135  1  0  0  0  0
 43136  1  0  0  0  0
 44137  1  0  0  0  0
 47138  1  0  0  0  0
 47139  1  0  0  0  0
 47140  1  0  0  0  0
 48141  1  0  0  0  0
 49142  1  0  0  0  0
 51143  1  0  0  0  0
 52144  1  0  0  0  0
 55145  1  0  0  0  0
 55146  1  0  0  0  0
 55147  1  0  0  0  0
 56148  1  0  0  0  0
 57149  1  0  0  0  0
 64150  1  0  0  0  0
 65151  1  0  0  0  0
 68152  1  0  0  0  0
 68153  1  0  0  0  0
 68154  1  0  0  0  0
 69155  1  0  0  0  0
 70156  1  0  0  0  0
 72157  1  0  0  0  0
 73158  1  0  0  0  0
 76159  1  0  0  0  0
 76160  1  0  0  0  0
 76161  1  0  0  0  0
 77162  1  0  0  0  0
 78163  1  0  0  0  0
 82164  1  0  0  0  0
 85165  1  0  0  0  0
 85166  1  0  0  0  0
 86167  1  0  0  0  0
 86168  1  0  0  0  0
 86169  1  0  0  0  0
 90170  1  0  0  0  0
 91171  1  0  0  0  0
 92172  1  0  0  0  0
 93173  1  0  0  0  0
 95174  1  0  0  0  0
 96175  1  0  0  0  0
101176  1  0  0  0  0
106177  1  0  0  0  0
M  END
