155

C         -7.49130        3.84600       -4.35530
C         -6.98420        3.92130       -5.60730
C         -7.46900        4.96700       -6.55690
O         -8.46800        5.63790       -6.44080
C         -6.43800        5.03950       -7.60800
C         -6.34720        5.97280       -8.63970
C         -5.24840        5.80870       -9.44780
C         -4.30140        4.79270       -9.25020
C         -4.38080        3.85900       -8.24490
C         -5.49420        4.00790       -7.41370
C         -5.90960        3.20240       -6.27030
C         -5.54960        1.90240       -6.04990
C         -6.14140        1.07850       -5.06970
N         -6.62190        0.35480       -4.31960
C         -4.63570        1.18530       -6.85200
N         -3.92440        0.53780       -7.47750
C         -3.45790        5.24350      -10.41590
C         -2.16290        6.03470      -10.10670
C         -2.38460        6.71710       -8.78030
C         -3.28060        7.67780       -8.96290
C         -3.67990        7.66350      -10.41790
C         -2.35280        7.22650      -11.05870
C         -4.51140        6.37470      -10.63550
C         -6.90700        3.20120       -3.22540
C         -7.54770        2.60520       -2.16750
C         -6.65680        2.03880       -1.24200
Cl        -7.18570        1.22270        0.17240
C         -5.33030        2.25080       -1.53620
S         -5.17780        3.13590       -3.01270
C         -4.13630        1.80130       -0.84540
C         -3.06990        2.67390       -0.62970
C         -1.89610        2.22180       -0.07180
C         -1.73400        0.86630        0.23060
C         -2.83020        0.01320        0.08460
C         -4.01820        0.47250       -0.43750
C         -0.45310        0.33530        0.64420
C          0.81410        0.68390        0.20170
N          1.14410        1.66330       -0.72160
C          0.33100        1.98770       -1.81060
C         -0.42740        1.02170       -2.47270
C         -1.26970        1.38250       -3.50180
C         -1.36710        2.71250       -3.90180
S         -2.47620        3.08080       -5.22720
C         -2.69500        4.88040       -5.10630
C         -0.58670        3.67250       -3.27350
C          0.24900        3.31250       -2.23740
C          2.34710        2.36440       -0.51000
C          3.19680        2.65650       -1.57630
C          4.39420        3.29620       -1.34880
C          4.77600        3.64890       -0.05470
S          6.34630        4.43230        0.12330
C          6.63740        4.39870        1.91510
C          3.92170        3.38230        1.00610
C          2.71540        2.75120        0.77530
C          1.80270       -0.11900        0.82750
S          3.51970       -0.23610        0.71740
C          3.54980       -1.47460        1.95660
C          2.27630       -1.78620        2.41670
N          1.95360       -2.75370        3.39560
C          1.48720       -2.30530        4.63530
C          1.23490       -0.95440        4.88750
C          0.83140       -0.53590        6.13770
C          0.67450       -1.44650        7.17440
S          0.16270       -0.83770        8.74990
C          1.06720       -1.94010        9.87820
C          0.91950       -2.79340        6.93320
C          1.33180       -3.21290        5.68740
C          1.60260       -4.03660        2.92060
C          2.46270       -4.72220        2.06950
C          2.16920       -6.00450        1.64460
C          0.99780       -6.62350        2.05440
S          0.53560       -8.27020        1.62100
C          1.81360       -8.78740        0.43920
C          0.10660       -5.92050        2.86370
C          0.39810       -4.64250        3.28270
C          1.29660       -1.03810        1.73640
S         -0.42850       -0.99500        1.79130
C          4.76790       -2.17570        2.18020
C          5.10030       -2.91430        3.26730
C          5.95320       -4.12920        3.11810
O          6.72060       -4.37780        2.21810
C          5.55480       -4.99130        4.24770
C          5.83290       -6.34660        4.41070
C          5.23150       -6.91170        5.50950
C          4.44330       -6.17890        6.40810
C          4.19210       -4.83370        6.28330
C          4.75140       -4.25320        5.14360
C          4.58100       -2.90830        4.61420
C          4.22240       -1.78230        5.31010
C          4.20620       -0.50990        4.70400
N          4.21540        0.53360        4.22490
C          3.95320       -1.77530        6.68950
N          3.75560       -1.73380        7.82030
C          4.10520       -7.39690        7.22890
C          2.69820       -8.01560        7.02580
C          2.26470       -7.65950        5.62470
C          3.01590       -8.35410        4.78130
C          3.96980       -9.19270        5.59570
C          3.08990       -9.48760        6.82080
C          4.98750       -8.21270        6.23220
H         -8.41490        4.38830       -4.17850
H         -7.09400        6.74190       -8.75950
H         -3.64370        3.08940       -8.08380
H         -3.31850        4.51430      -11.21100
H         -1.24770        5.45700      -10.20200
H         -1.92300        6.40340       -7.86270
H         -3.71860        8.32770       -8.22790
H         -4.14440        8.57010      -10.79660
H         -1.56920        7.97590      -10.95720
H         -2.45080        6.93590      -12.10360
H         -5.05790        6.38750      -11.57630
H         -8.61620        2.52910       -2.08590
H         -3.17410        3.71490       -0.89850
H         -1.09860        2.91740        0.13500
H         -2.72750       -1.02880        0.35060
H         -4.84310       -0.20650       -0.58420
H         -0.36030       -0.01270       -2.17200
H         -1.86130        0.63580       -4.00870
H         -3.00500        5.13930       -4.09850
H         -3.47900        5.13490       -5.81340
H         -1.77700        5.39140       -5.38110
H         -0.62610        4.70710       -3.57330
H          0.83850        4.06950       -1.74140
H          2.91510        2.36610       -2.57730
H          5.06000        3.51480       -2.16940
H          5.96850        5.09080        2.41850
H          7.66570        4.71950        2.05060
H          6.51150        3.38620        2.28690
H          4.17720        3.65680        2.01590
H          2.05570        2.55040        1.60700
H          1.36880       -0.21650        4.11300
H          0.64500        0.51060        6.32080
H          0.56200       -2.89810        9.96290
H          2.08080       -2.05370        9.50540
H          1.07250       -1.44270       10.84270
H          0.80110       -3.52190        7.71980
H          1.54500       -4.25830        5.52110
H          3.37780       -4.25980        1.73600
H          2.87210       -6.50490        0.99840
H          1.51840       -9.77760        0.10630
H          2.78240       -8.83910        0.92800
H          1.83410       -8.10490       -0.40520
H         -0.82200       -6.38920        3.15180
H         -0.31170       -4.10270        3.89130
H          5.43110       -2.25070        1.32420
H          6.45150       -6.87660        3.70350
H          3.58900       -4.27070        6.97680
H          4.40220       -7.37370        8.27530
H          1.98920       -7.79250        7.81880
H          1.51480       -6.92660        5.38940
H          3.01910       -8.30710        3.70880
H          4.41830      -10.04150        5.08620
H          2.23660      -10.12060        6.58280
H          3.64110       -9.91100        7.65940
H          5.86570       -8.72050        6.62560
