
  xtb     02062211443D
 energy: -324.646598332585 gnorm: 0.000549639074 xtb: 6.4.1 (unknown)
195216  0     0  0            999 V2000
    2.6473  -10.3040    0.8792 C   0  0  0  0  0  0  0  0  0  0  0  0
    2.5419  -10.4852    2.2305 C   0  0  0  0  0  0  0  0  0  0  0  0
    2.4740   -9.4092    3.2280 C   0  0  0  0  0  0  0  0  0  0  0  0
    2.5978   -8.2130    3.0297 O   0  0  0  0  0  0  0  0  0  0  0  0
    2.2197  -10.0584    4.5223 C   0  0  0  0  0  0  0  0  0  0  0  0
    2.0319   -9.4303    5.7520 C   0  0  0  0  0  0  0  0  0  0  0  0
    1.7826  -10.2972    6.7886 C   0  0  0  0  0  0  0  0  0  0  0  0
    1.7298  -11.6872    6.6163 C   0  0  0  0  0  0  0  0  0  0  0  0
    1.9226  -12.3195    5.4108 C   0  0  0  0  0  0  0  0  0  0  0  0
    2.1729  -11.4560    4.3393 C   0  0  0  0  0  0  0  0  0  0  0  0
    2.4053  -11.7523    2.9267 C   0  0  0  0  0  0  0  0  0  0  0  0
    2.4867  -13.0069    2.3816 C   0  0  0  0  0  0  0  0  0  0  0  0
    2.7264  -13.2995    1.0223 C   0  0  0  0  0  0  0  0  0  0  0  0
    2.9176  -13.6285   -0.0616 N   0  0  0  0  0  0  0  0  0  0  0  0
    2.3528  -14.2073    3.1115 C   0  0  0  0  0  0  0  0  0  0  0  0
    2.2512  -15.2250    3.6333 N   0  0  0  0  0  0  0  0  0  0  0  0
    1.4198  -11.9361    8.0713 C   0  0  0  0  0  0  0  0  0  0  0  0
   -0.0483  -12.2670    8.4148 C   0  0  0  0  0  0  0  0  0  0  0  0
   -0.1458  -11.9836    9.8966 C   0  0  0  0  0  0  0  0  0  0  0  0
   -0.0953  -10.6678   10.0599 C   0  0  0  0  0  0  0  0  0  0  0  0
    0.0371  -10.0396    8.6913 C   0  0  0  0  0  0  0  0  0  0  0  0
   -0.7822  -11.0378    7.8630 C   0  0  0  0  0  0  0  0  0  0  0  0
    1.4793  -10.3866    8.2632 C   0  0  0  0  0  0  0  0  0  0  0  0
    2.7069   -9.1126    0.1325 C   0  0  0  0  0  0  0  0  0  0  0  0
    2.6987   -9.1152   -1.2597 C   0  0  0  0  0  0  0  0  0  0  0  0
    2.6930   -7.8457   -1.8168 C   0  0  0  0  0  0  0  0  0  0  0  0
    2.6901   -7.5991   -3.5182 Cl  0  0  0  0  0  0  0  0  0  0  0  0
    2.7208   -6.8284   -0.8689 C   0  0  0  0  0  0  0  0  0  0  0  0
    2.7452   -7.4772    0.7386 S   0  0  0  0  0  0  0  0  0  0  0  0
    2.6638   -5.4181   -1.0591 C   0  0  0  0  0  0  0  0  0  0  0  0
    2.2082   -4.7209   -2.1432 C   0  0  0  0  0  0  0  0  0  0  0  0
    2.1774   -3.3210   -1.9424 C   0  0  0  0  0  0  0  0  0  0  0  0
    1.6704   -2.3392   -2.8115 C   0  0  0  0  0  0  0  0  0  0  0  0
    1.0748   -2.6921   -4.1049 C   0  0  0  0  0  0  0  0  0  0  0  0
    1.4875   -2.0547   -5.2738 C   0  0  0  0  0  0  0  0  0  0  0  0
    0.9558   -2.4139   -6.4932 C   0  0  0  0  0  0  0  0  0  0  0  0
   -0.0138   -3.4102   -6.5727 C   0  0  0  0  0  0  0  0  0  0  0  0
   -0.6383   -3.7903   -8.1810 S   0  0  0  0  0  0  0  0  0  0  0  0
   -1.2320   -5.5127   -8.0312 C   0  0  0  0  0  0  0  0  0  0  0  0
   -0.1073   -6.4819   -7.7236 C   0  0  0  0  0  0  0  0  0  0  0  0
   -0.4614   -4.0209   -5.4083 C   0  0  0  0  0  0  0  0  0  0  0  0
    0.0854   -3.6682   -4.1906 C   0  0  0  0  0  0  0  0  0  0  0  0
    1.7269   -1.0314   -2.3607 C   0  0  0  0  0  0  0  0  0  0  0  0
    2.2726   -0.6553   -1.1080 C   0  0  0  0  0  0  0  0  0  0  0  0
    2.7660   -1.6371   -0.2342 C   0  0  0  0  0  0  0  0  0  0  0  0
    3.2688   -1.3319    1.1111 C   0  0  0  0  0  0  0  0  0  0  0  0
    2.5086   -0.5988    2.0173 C   0  0  0  0  0  0  0  0  0  0  0  0
    2.9476   -0.3950    3.3115 C   0  0  0  0  0  0  0  0  0  0  0  0
    4.1692   -0.9134    3.7220 C   0  0  0  0  0  0  0  0  0  0  0  0
    4.8215   -0.7552    5.3501 S   0  0  0  0  0  0  0  0  0  0  0  0
    3.7559    0.5069    6.1379 C   0  0  0  0  0  0  0  0  0  0  0  0
    4.3858    0.9336    7.4498 C   0  0  0  0  0  0  0  0  0  0  0  0
    4.9436   -1.6347    2.8144 C   0  0  0  0  0  0  0  0  0  0  0  0
    4.4972   -1.8440    1.5293 C   0  0  0  0  0  0  0  0  0  0  0  0
    2.6963   -2.9516   -0.6765 C   0  0  0  0  0  0  0  0  0  0  0  0
    3.1364   -4.3578    0.2578 S   0  0  0  0  0  0  0  0  0  0  0  0
    2.1509    0.7415   -0.8738 C   0  0  0  0  0  0  0  0  0  0  0  0
    1.4868    1.4013   -1.8592 C   0  0  0  0  0  0  0  0  0  0  0  0
    1.0323    0.3392   -3.1843 S   0  0  0  0  0  0  0  0  0  0  0  0
    0.9021    2.7178   -1.8444 C   0  0  0  0  0  0  0  0  0  0  0  0
    1.3983    3.9803   -1.5969 C   0  0  0  0  0  0  0  0  0  0  0  0
    2.7428    4.2951   -1.4082 N   0  0  0  0  0  0  0  0  0  0  0  0
    3.2666    5.3751   -2.1240 C   0  0  0  0  0  0  0  0  0  0  0  0
    2.7888    5.6480   -3.4038 C   0  0  0  0  0  0  0  0  0  0  0  0
    3.2714    6.7201   -4.1289 C   0  0  0  0  0  0  0  0  0  0  0  0
    4.2540    7.5371   -3.5893 C   0  0  0  0  0  0  0  0  0  0  0  0
    4.9588    8.9292   -4.4170 S   0  0  0  0  0  0  0  0  0  0  0  0
    4.0582    9.0053   -5.9912 C   0  0  0  0  0  0  0  0  0  0  0  0
    4.7391    7.2653   -2.3112 C   0  0  0  0  0  0  0  0  0  0  0  0
    4.2502    6.2048   -1.5834 C   0  0  0  0  0  0  0  0  0  0  0  0
    3.4102    3.7413   -0.3076 C   0  0  0  0  0  0  0  0  0  0  0  0
    2.7303    3.5336    0.8935 C   0  0  0  0  0  0  0  0  0  0  0  0
    3.3896    3.0062    1.9819 C   0  0  0  0  0  0  0  0  0  0  0  0
    4.7400    2.6774    1.8964 C   0  0  0  0  0  0  0  0  0  0  0  0
    5.5124    2.0887    3.3679 S   0  0  0  0  0  0  0  0  0  0  0  0
    6.9807    1.2148    2.7645 C   0  0  0  0  0  0  0  0  0  0  0  0
    5.4164    2.8686    0.6984 C   0  0  0  0  0  0  0  0  0  0  0  0
    4.7547    3.3916   -0.3949 C   0  0  0  0  0  0  0  0  0  0  0  0
    0.3487    4.9350   -1.5165 C   0  0  0  0  0  0  0  0  0  0  0  0
    0.2570    6.6063   -1.0850 S   0  0  0  0  0  0  0  0  0  0  0  0
   -1.5020    6.5211   -0.9726 C   0  0  0  0  0  0  0  0  0  0  0  0
   -1.9862    5.2491   -1.2970 C   0  0  0  0  0  0  0  0  0  0  0  0
   -3.2208    4.7164   -0.9330 N   0  0  0  0  0  0  0  0  0  0  0  0
   -4.4251    4.9705   -1.6052 C   0  0  0  0  0  0  0  0  0  0  0  0
   -5.6074    5.0597   -0.8736 C   0  0  0  0  0  0  0  0  0  0  0  0
   -6.7971    5.3154   -1.5172 C   0  0  0  0  0  0  0  0  0  0  0  0
   -6.8275    5.4789   -2.9016 C   0  0  0  0  0  0  0  0  0  0  0  0
   -8.4083    5.8155   -3.6102 S   0  0  0  0  0  0  0  0  0  0  0  0
   -8.0616    6.0303   -5.3797 C   0  0  0  0  0  0  0  0  0  0  0  0
   -5.6546    5.3653   -3.6336 C   0  0  0  0  0  0  0  0  0  0  0  0
   -4.4599    5.1084   -2.9879 C   0  0  0  0  0  0  0  0  0  0  0  0
   -3.0730    3.5233   -0.1931 C   0  0  0  0  0  0  0  0  0  0  0  0
   -2.1825    3.5247    0.8839 C   0  0  0  0  0  0  0  0  0  0  0  0
   -1.7471    2.3362    1.4238 C   0  0  0  0  0  0  0  0  0  0  0  0
   -2.2076    1.1291    0.9060 C   0  0  0  0  0  0  0  0  0  0  0  0
   -1.4272   -0.3587    1.4633 S   0  0  0  0  0  0  0  0  0  0  0  0
   -1.4030   -1.3476   -0.0636 C   0  0  0  0  0  0  0  0  0  0  0  0
   -3.2187    1.1316   -0.0464 C   0  0  0  0  0  0  0  0  0  0  0  0
   -3.6523    2.3234   -0.5954 C   0  0  0  0  0  0  0  0  0  0  0  0
   -0.9156    4.3891   -1.6432 C   0  0  0  0  0  0  0  0  0  0  0  0
   -0.8460    2.7070   -2.0204 S   0  0  0  0  0  0  0  0  0  0  0  0
   -2.2007    7.5356   -0.2864 C   0  0  0  0  0  0  0  0  0  0  0  0
   -3.4971    7.8940   -0.5413 C   0  0  0  0  0  0  0  0  0  0  0  0
   -4.0836    7.9004   -1.8965 C   0  0  0  0  0  0  0  0  0  0  0  0
   -3.5519    7.5356   -2.9257 O   0  0  0  0  0  0  0  0  0  0  0  0
   -5.3823    8.5865   -1.7629 C   0  0  0  0  0  0  0  0  0  0  0  0
   -6.3063    8.8387   -2.7740 C   0  0  0  0  0  0  0  0  0  0  0  0
   -7.4399    9.4907   -2.3514 C   0  0  0  0  0  0  0  0  0  0  0  0
   -7.6309    9.8895   -1.0216 C   0  0  0  0  0  0  0  0  0  0  0  0
   -6.7228    9.6614   -0.0152 C   0  0  0  0  0  0  0  0  0  0  0  0
   -5.5719    8.9817   -0.4230 C   0  0  0  0  0  0  0  0  0  0  0  0
   -4.4194    8.5433    0.3558 C   0  0  0  0  0  0  0  0  0  0  0  0
   -4.2876    8.5782    1.7217 C   0  0  0  0  0  0  0  0  0  0  0  0
   -5.2089    9.1817    2.5989 C   0  0  0  0  0  0  0  0  0  0  0  0
   -5.9197    9.6674    3.3591 N   0  0  0  0  0  0  0  0  0  0  0  0
   -3.2289    7.9457    2.4047 C   0  0  0  0  0  0  0  0  0  0  0  0
   -2.4128    7.4054    3.0060 N   0  0  0  0  0  0  0  0  0  0  0  0
   -8.9762   10.5050   -1.3136 C   0  0  0  0  0  0  0  0  0  0  0  0
  -10.2137    9.6925   -0.8776 C   0  0  0  0  0  0  0  0  0  0  0  0
  -11.3393   10.2799   -1.6976 C   0  0  0  0  0  0  0  0  0  0  0  0
  -11.1628    9.8978   -2.9559 C   0  0  0  0  0  0  0  0  0  0  0  0
   -9.9161    9.0450   -3.0070 C   0  0  0  0  0  0  0  0  0  0  0  0
   -9.9977    8.3740   -1.6306 C   0  0  0  0  0  0  0  0  0  0  0  0
   -8.7677   10.0541   -2.7952 C   0  0  0  0  0  0  0  0  0  0  0  0
    2.6491  -11.1916    0.2581 H   0  0  0  0  0  0  0  0  0  0  0  0
    2.0834   -8.3563    5.8382 H   0  0  0  0  0  0  0  0  0  0  0  0
    1.8808  -13.3897    5.2983 H   0  0  0  0  0  0  0  0  0  0  0  0
    2.1332  -12.5568    8.6096 H   0  0  0  0  0  0  0  0  0  0  0  0
   -0.3847  -13.2444    8.0800 H   0  0  0  0  0  0  0  0  0  0  0  0
   -0.1847  -12.7464   10.6518 H   0  0  0  0  0  0  0  0  0  0  0  0
   -0.0835  -10.1116   10.9788 H   0  0  0  0  0  0  0  0  0  0  0  0
   -0.2218   -8.9875    8.6083 H   0  0  0  0  0  0  0  0  0  0  0  0
   -1.8361  -11.0313    8.1362 H   0  0  0  0  0  0  0  0  0  0  0  0
   -0.6847  -10.9077    6.7867 H   0  0  0  0  0  0  0  0  0  0  0  0
    2.2328   -9.9721    8.9301 H   0  0  0  0  0  0  0  0  0  0  0  0
    2.6856  -10.0200   -1.8409 H   0  0  0  0  0  0  0  0  0  0  0  0
    1.8786   -5.1887   -3.0512 H   0  0  0  0  0  0  0  0  0  0  0  0
    2.2538   -1.2956   -5.2262 H   0  0  0  0  0  0  0  0  0  0  0  0
    1.2896   -1.9336   -7.4001 H   0  0  0  0  0  0  0  0  0  0  0  0
   -2.0237   -5.5467   -7.2834 H   0  0  0  0  0  0  0  0  0  0  0  0
   -1.6689   -5.7186   -9.0082 H   0  0  0  0  0  0  0  0  0  0  0  0
    0.3568   -6.2495   -6.7670 H   0  0  0  0  0  0  0  0  0  0  0  0
   -0.4951   -7.4980   -7.6833 H   0  0  0  0  0  0  0  0  0  0  0  0
    0.6558   -6.4302   -8.4967 H   0  0  0  0  0  0  0  0  0  0  0  0
   -1.2399   -4.7673   -5.4366 H   0  0  0  0  0  0  0  0  0  0  0  0
   -0.2799   -4.1383   -3.2888 H   0  0  0  0  0  0  0  0  0  0  0  0
    1.5394   -0.2220    1.7249 H   0  0  0  0  0  0  0  0  0  0  0  0
    2.3195    0.1535    3.9946 H   0  0  0  0  0  0  0  0  0  0  0  0
    3.6917    1.3479    5.4482 H   0  0  0  0  0  0  0  0  0  0  0  0
    2.7717    0.0663    6.3007 H   0  0  0  0  0  0  0  0  0  0  0  0
    5.3653    1.3706    7.2715 H   0  0  0  0  0  0  0  0  0  0  0  0
    3.7559    1.6743    7.9376 H   0  0  0  0  0  0  0  0  0  0  0  0
    4.5024    0.0806    8.1145 H   0  0  0  0  0  0  0  0  0  0  0  0
    5.8929   -2.0348    3.1371 H   0  0  0  0  0  0  0  0  0  0  0  0
    5.1105   -2.3979    0.8338 H   0  0  0  0  0  0  0  0  0  0  0  0
    2.4994    1.2171    0.0234 H   0  0  0  0  0  0  0  0  0  0  0  0
    2.0335    5.0111   -3.8407 H   0  0  0  0  0  0  0  0  0  0  0  0
    2.8740    6.8987   -5.1149 H   0  0  0  0  0  0  0  0  0  0  0  0
    2.9964    9.1385   -5.8055 H   0  0  0  0  0  0  0  0  0  0  0  0
    4.4531    9.8727   -6.5111 H   0  0  0  0  0  0  0  0  0  0  0  0
    4.2495    8.1089   -6.5741 H   0  0  0  0  0  0  0  0  0  0  0  0
    5.4982    7.9078   -1.8920 H   0  0  0  0  0  0  0  0  0  0  0  0
    4.6198    6.0215   -0.5862 H   0  0  0  0  0  0  0  0  0  0  0  0
    1.6849    3.7950    0.9696 H   0  0  0  0  0  0  0  0  0  0  0  0
    2.8684    2.8576    2.9147 H   0  0  0  0  0  0  0  0  0  0  0  0
    6.6938    0.5550    1.9511 H   0  0  0  0  0  0  0  0  0  0  0  0
    7.3379    0.6306    3.6071 H   0  0  0  0  0  0  0  0  0  0  0  0
    7.7442    1.9231    2.4552 H   0  0  0  0  0  0  0  0  0  0  0  0
    6.4617    2.6194    0.6087 H   0  0  0  0  0  0  0  0  0  0  0  0
    5.2830    3.5427   -1.3242 H   0  0  0  0  0  0  0  0  0  0  0  0
   -5.5782    4.9336    0.1988 H   0  0  0  0  0  0  0  0  0  0  0  0
   -7.7165    5.3961   -0.9572 H   0  0  0  0  0  0  0  0  0  0  0  0
   -7.3691    6.8539   -5.5265 H   0  0  0  0  0  0  0  0  0  0  0  0
   -9.0172    6.2650   -5.8386 H   0  0  0  0  0  0  0  0  0  0  0  0
   -7.6719    5.1075   -5.7991 H   0  0  0  0  0  0  0  0  0  0  0  0
   -5.6499    5.4742   -4.7056 H   0  0  0  0  0  0  0  0  0  0  0  0
   -3.5463    5.0238   -3.5558 H   0  0  0  0  0  0  0  0  0  0  0  0
   -1.7933    4.4636    1.2498 H   0  0  0  0  0  0  0  0  0  0  0  0
   -1.0170    2.3284    2.2182 H   0  0  0  0  0  0  0  0  0  0  0  0
   -1.1648   -0.7005   -0.9024 H   0  0  0  0  0  0  0  0  0  0  0  0
   -2.3583   -1.8419   -0.2135 H   0  0  0  0  0  0  0  0  0  0  0  0
   -0.6213   -2.0895    0.0698 H   0  0  0  0  0  0  0  0  0  0  0  0
   -3.6369    0.2032   -0.4025 H   0  0  0  0  0  0  0  0  0  0  0  0
   -4.3899    2.3215   -1.3840 H   0  0  0  0  0  0  0  0  0  0  0  0
   -1.6605    8.0181    0.5198 H   0  0  0  0  0  0  0  0  0  0  0  0
   -6.1090    8.5319   -3.7891 H   0  0  0  0  0  0  0  0  0  0  0  0
   -6.8733    9.9864    1.0012 H   0  0  0  0  0  0  0  0  0  0  0  0
   -9.0670   11.5685   -1.1008 H   0  0  0  0  0  0  0  0  0  0  0  0
  -10.3665    9.6390    0.1968 H   0  0  0  0  0  0  0  0  0  0  0  0
  -12.0914   10.9366   -1.3012 H   0  0  0  0  0  0  0  0  0  0  0  0
  -11.7389   10.1719   -3.8204 H   0  0  0  0  0  0  0  0  0  0  0  0
   -9.8019    8.3952   -3.8692 H   0  0  0  0  0  0  0  0  0  0  0  0
   -9.0927    7.8409   -1.3475 H   0  0  0  0  0  0  0  0  0  0  0  0
  -10.8522    7.7048   -1.5514 H   0  0  0  0  0  0  0  0  0  0  0  0
   -8.7230   10.8173   -3.5703 H   0  0  0  0  0  0  0  0  0  0  0  0
  1  2  2  0  0  0  0
  2  3  1  0  0  0  0
  3  4  2  0  0  0  0
  3  5  1  0  0  0  0
  5  6  2  0  0  0  0
  6  7  1  0  0  0  0
  7  8  2  0  0  0  0
  8  9  1  0  0  0  0
  9 10  2  0  0  0  0
 10 11  1  0  0  0  0
 11 12  2  0  0  0  0
 12 13  1  0  0  0  0
 13 14  3  0  0  0  0
 12 15  1  0  0  0  0
 15 16  3  0  0  0  0
  8 17  1  0  0  0  0
 17 18  1  0  0  0  0
 18 19  1  0  0  0  0
 19 20  2  0  0  0  0
 20 21  1  0  0  0  0
 21 22  1  0  0  0  0
 21 23  1  0  0  0  0
  1 24  1  0  0  0  0
 24 25  2  0  0  0  0
 25 26  1  0  0  0  0
 26 27  1  0  0  0  0
 26 28  2  0  0  0  0
 28 29  1  0  0  0  0
 28 30  1  0  0  0  0
 30 31  2  0  0  0  0
 31 32  1  0  0  0  0
 32 33  2  0  0  0  0
 33 34  1  0  0  0  0
 34 35  2  0  0  0  0
 35 36  1  0  0  0  0
 36 37  2  0  0  0  0
 37 38  1  0  0  0  0
 38 39  1  0  0  0  0
 39 40  1  0  0  0  0
 37 41  1  0  0  0  0
 41 42  2  0  0  0  0
 33 43  1  0  0  0  0
 43 44  2  0  0  0  0
 44 45  1  0  0  0  0
 45 46  1  0  0  0  0
 46 47  2  0  0  0  0
 47 48  1  0  0  0  0
 48 49  2  0  0  0  0
 49 50  1  0  0  0  0
 50 51  1  0  0  0  0
 51 52  1  0  0  0  0
 49 53  1  0  0  0  0
 53 54  2  0  0  0  0
 45 55  2  0  0  0  0
 55 56  1  0  0  0  0
 44 57  1  0  0  0  0
 57 58  2  0  0  0  0
 58 59  1  0  0  0  0
 58 60  1  0  0  0  0
 60 61  2  0  0  0  0
 61 62  1  0  0  0  0
 62 63  1  0  0  0  0
 63 64  2  0  0  0  0
 64 65  1  0  0  0  0
 65 66  2  0  0  0  0
 66 67  1  0  0  0  0
 67 68  1  0  0  0  0
 66 69  1  0  0  0  0
 69 70  2  0  0  0  0
 62 71  1  0  0  0  0
 71 72  2  0  0  0  0
 72 73  1  0  0  0  0
 73 74  2  0  0  0  0
 74 75  1  0  0  0  0
 75 76  1  0  0  0  0
 74 77  1  0  0  0  0
 77 78  2  0  0  0  0
 61 79  1  0  0  0  0
 79 80  1  0  0  0  0
 80 81  1  0  0  0  0
 81 82  2  0  0  0  0
 82 83  1  0  0  0  0
 83 84  1  0  0  0  0
 84 85  2  0  0  0  0
 85 86  1  0  0  0  0
 86 87  2  0  0  0  0
 87 88  1  0  0  0  0
 88 89  1  0  0  0  0
 87 90  1  0  0  0  0
 90 91  2  0  0  0  0
 83 92  1  0  0  0  0
 92 93  2  0  0  0  0
 93 94  1  0  0  0  0
 94 95  2  0  0  0  0
 95 96  1  0  0  0  0
 96 97  1  0  0  0  0
 95 98  1  0  0  0  0
 98 99  2  0  0  0  0
 82100  1  0  0  0  0
100101  1  0  0  0  0
 81102  1  0  0  0  0
102103  2  0  0  0  0
103104  1  0  0  0  0
104105  2  0  0  0  0
104106  1  0  0  0  0
106107  2  0  0  0  0
107108  1  0  0  0  0
108109  2  0  0  0  0
109110  1  0  0  0  0
110111  2  0  0  0  0
111112  1  0  0  0  0
112113  2  0  0  0  0
113114  1  0  0  0  0
114115  3  0  0  0  0
113116  1  0  0  0  0
116117  3  0  0  0  0
109118  1  0  0  0  0
118119  1  0  0  0  0
119120  1  0  0  0  0
120121  2  0  0  0  0
121122  1  0  0  0  0
122123  1  0  0  0  0
122124  1  0  0  0  0
 11  2  1  0  0  0  0
 23 17  1  0  0  0  0
 29 24  1  0  0  0  0
 56 30  1  0  0  0  0
101 60  1  0  0  0  0
112103  1  0  0  0  0
124118  1  0  0  0  0
 10  5  1  0  0  0  0
 22 18  1  0  0  0  0
 55 32  1  0  0  0  0
 70 63  1  0  0  0  0
 78 71  1  0  0  0  0
100 79  2  0  0  0  0
111106  1  0  0  0  0
123119  1  0  0  0  0
 23  7  1  0  0  0  0
 42 34  1  0  0  0  0
 59 43  1  0  0  0  0
 91 84  1  0  0  0  0
 99 92  1  0  0  0  0
124108  1  0  0  0  0
 54 46  1  0  0  0  0
  1125  1  0  0  0  0
  6126  1  0  0  0  0
  9127  1  0  0  0  0
 17128  1  0  0  0  0
 18129  1  0  0  0  0
 19130  1  0  0  0  0
 20131  1  0  0  0  0
 21132  1  0  0  0  0
 22133  1  0  0  0  0
 22134  1  0  0  0  0
 23135  1  0  0  0  0
 25136  1  0  0  0  0
 31137  1  0  0  0  0
 35138  1  0  0  0  0
 36139  1  0  0  0  0
 39140  1  0  0  0  0
 39141  1  0  0  0  0
 40142  1  0  0  0  0
 40143  1  0  0  0  0
 40144  1  0  0  0  0
 41145  1  0  0  0  0
 42146  1  0  0  0  0
 47147  1  0  0  0  0
 48148  1  0  0  0  0
 51149  1  0  0  0  0
 51150  1  0  0  0  0
 52151  1  0  0  0  0
 52152  1  0  0  0  0
 52153  1  0  0  0  0
 53154  1  0  0  0  0
 54155  1  0  0  0  0
 57156  1  0  0  0  0
 64157  1  0  0  0  0
 65158  1  0  0  0  0
 68159  1  0  0  0  0
 68160  1  0  0  0  0
 68161  1  0  0  0  0
 69162  1  0  0  0  0
 70163  1  0  0  0  0
 72164  1  0  0  0  0
 73165  1  0  0  0  0
 76166  1  0  0  0  0
 76167  1  0  0  0  0
 76168  1  0  0  0  0
 77169  1  0  0  0  0
 78170  1  0  0  0  0
 85171  1  0  0  0  0
 86172  1  0  0  0  0
 89173  1  0  0  0  0
 89174  1  0  0  0  0
 89175  1  0  0  0  0
 90176  1  0  0  0  0
 91177  1  0  0  0  0
 93178  1  0  0  0  0
 94179  1  0  0  0  0
 97180  1  0  0  0  0
 97181  1  0  0  0  0
 97182  1  0  0  0  0
 98183  1  0  0  0  0
 99184  1  0  0  0  0
102185  1  0  0  0  0
107186  1  0  0  0  0
110187  1  0  0  0  0
118188  1  0  0  0  0
119189  1  0  0  0  0
120190  1  0  0  0  0
121191  1  0  0  0  0
122192  1  0  0  0  0
123193  1  0  0  0  0
123194  1  0  0  0  0
124195  1  0  0  0  0
M  END
