182

C         -1.31700      -10.90560       -0.56070
C         -1.35740      -11.12670        0.77330
C         -1.94270      -12.39030        1.30620
O         -2.18400      -13.39500        0.67710
C         -2.21160      -12.12670        2.73270
C         -2.86290      -12.96260        3.63780
C         -2.98710      -12.43450        4.90020
C         -2.51980      -11.15640        5.23820
C         -1.87160      -10.32250        4.35980
C         -1.71230      -10.85210        3.07610
C         -1.02580      -10.29270        1.91580
C         -0.05890       -9.32540        1.96450
C          0.26930       -8.59310        3.12370
N          0.55990       -7.94180        4.02360
C          0.78900       -8.98950        0.88670
N          1.56160       -8.70220        0.08800
C         -2.98900      -11.27480        6.66620
C         -1.91960      -11.55770        7.74960
C         -0.78800      -12.27420        7.05490
C         -1.21430      -13.48900        6.73590
C         -2.64120      -13.61610        7.20950
C         -2.58650      -12.73960        8.47110
C         -3.49590      -12.70380        6.29400
C         -1.08970       -9.66080       -1.24970
C         -1.49430       -8.44730       -0.68980
C         -1.19370       -7.27860       -1.36060
N         -1.44950       -5.97830       -1.00360
C         -2.02000       -5.53180        0.24110
C         -0.94420       -5.22820        1.28240
C         -0.86840       -5.15600       -1.93590
C         -0.27490       -5.93590       -2.95990
C         -0.48880       -7.30110       -2.59460
C         -0.13750       -8.51870       -3.16730
C         -0.45330       -9.68170       -2.50450
C          0.40530       -5.30310       -3.99580
C          0.49740       -3.93000       -3.99990
C         -0.10880       -3.15550       -2.99520
C         -0.79880       -3.77730       -1.95690
C          0.02640       -1.71430       -2.94910
C          0.13360       -0.77190       -3.95790
N          0.05060       -1.01880       -5.32080
C         -0.82280       -1.98970       -5.82420
C         -2.02790       -2.27540       -5.18230
C         -2.84440       -3.27850       -5.65110
C         -2.48850       -4.01500       -6.77900
S         -3.60470       -5.29340       -7.26520
C         -2.83210       -6.01210       -8.74250
C         -1.30680       -3.71370       -7.44090
C         -0.48250       -2.71360       -6.96400
C          0.80930       -0.21630       -6.18380
C          0.27490        0.25400       -7.38410
C          1.01750        1.08070       -8.19530
C          2.30680        1.46560       -7.82880
S          3.15010        2.55100       -8.93680
C          4.62530        3.05720       -8.00690
C          2.85130        0.98300       -6.64770
C          2.10850        0.14640       -5.83700
C          0.28190        0.53330       -3.41720
S          0.53490        2.10270       -4.10000
C          0.55870        2.82560       -2.49010
C          0.43850        1.87010       -1.47710
N          0.60340        2.07220       -0.12910
C          1.41810        3.07970        0.39210
C          2.57150        3.49260       -0.27670
C          3.27650        4.59710        0.15060
C          2.85590        5.29160        1.27890
S          3.61550        6.79480        1.81710
C          4.31330        7.47600        0.28280
C          1.79660        4.79570        2.03190
C          1.07440        3.70920        1.58730
C         -0.05930        1.17990        0.73830
C         -1.40680        0.89990        0.53860
C         -2.04570       -0.05220        1.30780
C         -1.33940       -0.73740        2.28740
S         -2.02210       -2.02980        3.27590
C         -3.71860       -2.20890        2.65100
C         -0.00350       -0.41690        2.52560
C          0.63310        0.53560        1.76140
C          0.25990        0.58090       -2.03420
S          0.05510       -0.98760       -1.35180
C          0.67590        4.22110       -2.27970
C          0.08590        4.96740       -1.26500
C          0.65600        6.26270       -1.27950
C          1.63910        6.31140       -2.33250
O          2.44620        7.16150       -2.65740
N          1.53090        5.05820       -2.96370
C          2.37440        4.69450       -4.06790
C          0.12480        6.99150       -0.21830
N         -0.82960        6.21060        0.37880
C         -1.82840        6.63620        1.32290
C         -0.91090        4.93670       -0.22260
O         -1.71500        4.08750        0.10820
C          0.58970        8.29790        0.10320
C          0.88350        8.88310        1.29510
C          0.96390        8.24740        2.63750
O          0.45130        7.21570        3.01540
C          1.82390        9.13210        3.44140
C          2.29350        8.88500        4.72910
C          3.10170        9.87670        5.22820
C          3.42700       11.02990        4.49970
C          2.97320       11.28540        3.22820
C          2.14230       10.29040        2.70430
C          1.47910       10.20750        1.41100
C          1.34940       11.21930        0.49800
C          1.92100       12.49970        0.64760
N          2.36510       13.55630        0.71190
C          0.55970       11.13930       -0.67000
N         -0.10220       11.16190       -1.60780
C          4.27420       11.59060        5.61420
C          3.66860       12.72450        6.47800
C          2.17080       12.55250        6.42300
C          1.86300       11.46220        7.11270
C          3.14730       10.87700        7.64600
C          3.95450       12.16370        7.88030
C          3.91130       10.30680        6.42520
H         -1.51870      -11.77390       -1.18020
H         -3.21910      -13.93510        3.33610
H         -1.52050       -9.33960        4.62830
H         -3.72540      -10.54140        6.98890
H         -1.64460      -10.69410        8.34900
H          0.15640      -11.81770        6.82310
H         -0.69640      -14.25150        6.18410
H         -3.02210      -14.62810        7.31910
H         -3.56860      -12.50190        8.87780
H         -1.95790      -13.16470        9.25200
H         -4.56100      -12.90890        6.38420
H         -2.04160       -8.43810        0.24130
H         -2.69660       -6.30720        0.60840
H         -2.61290       -4.63380        0.04280
H         -0.28670       -4.43870        0.92680
H         -1.39860       -4.90530        2.21500
H         -0.34060       -6.11210        1.47550
H          0.38190       -8.54660       -4.11260
H         -0.16850      -10.63590       -2.92110
H          0.88070       -5.88410       -4.77100
H          1.07570       -3.43810       -4.76510
H         -1.25460       -3.17890       -1.18250
H         -2.32200       -1.70700       -4.31330
H         -3.77320       -3.50390       -5.15000
H         -2.74330       -5.25890       -9.52000
H         -3.50410       -6.79980       -9.06880
H         -1.86480       -6.43530       -8.48760
H         -1.00540       -4.25640       -8.32200
H          0.44420       -2.49880       -7.47600
H         -0.73020       -0.02280       -7.66460
H          0.60270        1.45430       -9.11880
H          5.10530        3.81840       -8.61390
H          5.29790        2.21400       -7.87840
H          4.32950        3.47860       -7.05060
H          3.85330        1.24340       -6.34740
H          2.54170       -0.23330       -4.92280
H          2.90510        2.95410       -1.15180
H          4.14570        4.91660       -0.40230
H          3.58610        7.41230       -0.52200
H          4.53720        8.51630        0.49970
H          5.23050        6.95590        0.02250
H          1.50580        5.30180        2.93730
H          0.21230        3.36900        2.13950
H         -1.95120        1.44730       -0.21500
H         -3.09060       -0.24750        1.13050
H         -4.28290       -1.30000        2.83710
H         -4.15170       -3.03100        3.21200
H         -3.70150       -2.45260        1.59290
H          0.53050       -0.93910        3.30450
H          1.67230        0.77110        1.93600
H          2.96600        3.80660       -3.83430
H          1.78260        4.50110       -4.96500
H          3.03810        5.54080       -4.24830
H         -2.21380        7.61790        1.04460
H         -1.41950        6.67860        2.33190
H         -2.62960        5.89780        1.29030
H          0.90090        8.83450       -0.78880
H          2.02770        7.98020        5.25230
H          3.23930       12.16980        2.67300
H          5.32170       11.76470        5.37620
H          4.04610       13.71730        6.24840
H          1.51580       13.18920        5.85770
H          0.89890       11.00540        7.23900
H          3.05090       10.18730        8.48050
H          3.53910       12.78270        8.67410
H          5.01210       11.98420        8.06870
H          4.72150        9.64110        6.71600
