
  xtb     02122221393D
 energy: -288.623807473557 gnorm: 0.000531884952 xtb: 6.4.1 (unknown)
170186  0     0  0            999 V2000
    3.8242   -4.7233    4.5987 C   0  0  0  0  0  0  0  0  0  0  0  0
    3.7826   -5.9830    4.0586 C   0  0  0  0  0  0  0  0  0  0  0  0
    2.8997   -6.4068    2.9693 C   0  0  0  0  0  0  0  0  0  0  0  0
    1.9896   -5.7696    2.4640 O   0  0  0  0  0  0  0  0  0  0  0  0
    3.3091   -7.7736    2.6127 C   0  0  0  0  0  0  0  0  0  0  0  0
    2.7990   -8.5586    1.5836 C   0  0  0  0  0  0  0  0  0  0  0  0
    3.4150   -9.7790    1.4507 C   0  0  0  0  0  0  0  0  0  0  0  0
    4.4449  -10.1999    2.3020 C   0  0  0  0  0  0  0  0  0  0  0  0
    4.9460   -9.4412    3.3336 C   0  0  0  0  0  0  0  0  0  0  0  0
    4.3488   -8.1852    3.4700 C   0  0  0  0  0  0  0  0  0  0  0  0
    4.6314   -7.1022    4.4125 C   0  0  0  0  0  0  0  0  0  0  0  0
    5.5388   -7.1627    5.4396 C   0  0  0  0  0  0  0  0  0  0  0  0
    5.8086   -6.1293    6.3602 C   0  0  0  0  0  0  0  0  0  0  0  0
    6.0915   -5.3441    7.1502 N   0  0  0  0  0  0  0  0  0  0  0  0
    6.3331   -8.2887    5.7396 C   0  0  0  0  0  0  0  0  0  0  0  0
    7.0122   -9.1625    6.0466 N   0  0  0  0  0  0  0  0  0  0  0  0
    4.5997  -11.5220    1.5915 C   0  0  0  0  0  0  0  0  0  0  0  0
    5.8108  -11.6894    0.6412 C   0  0  0  0  0  0  0  0  0  0  0  0
    6.1760  -10.3029    0.1725 C   0  0  0  0  0  0  0  0  0  0  0  0
    5.2156   -9.8833   -0.6403 C   0  0  0  0  0  0  0  0  0  0  0  0
    4.1850  -10.9817   -0.7391 C   0  0  0  0  0  0  0  0  0  0  0  0
    5.0912  -12.2164   -0.6103 C   0  0  0  0  0  0  0  0  0  0  0  0
    3.4647  -11.0438    0.6317 C   0  0  0  0  0  0  0  0  0  0  0  0
    3.1465   -3.5591    4.2107 C   0  0  0  0  0  0  0  0  0  0  0  0
    3.4225   -2.3173    4.7819 C   0  0  0  0  0  0  0  0  0  0  0  0
    2.7620   -1.2493    4.1984 C   0  0  0  0  0  0  0  0  0  0  0  0
    2.9242    0.1180    4.7160 C   0  0  0  0  0  0  0  0  0  0  0  0
    1.8423    0.8131    5.2506 C   0  0  0  0  0  0  0  0  0  0  0  0
    2.0182    2.0785    5.7774 C   0  0  0  0  0  0  0  0  0  0  0  0
    3.2767    2.6553    5.7969 C   0  0  0  0  0  0  0  0  0  0  0  0
    4.3619    1.9581    5.2950 C   0  0  0  0  0  0  0  0  0  0  0  0
    4.1879    0.6978    4.7542 C   0  0  0  0  0  0  0  0  0  0  0  0
    1.9558   -1.6551    3.1229 C   0  0  0  0  0  0  0  0  0  0  0  0
    1.9857   -3.3833    2.9211 S   0  0  0  0  0  0  0  0  0  0  0  0
    1.2477   -0.8139    2.2278 C   0  0  0  0  0  0  0  0  0  0  0  0
    0.3651   -1.1408    1.1965 C   0  0  0  0  0  0  0  0  0  0  0  0
   -0.0714   -2.4031    0.7988 N   0  0  0  0  0  0  0  0  0  0  0  0
    0.7885   -3.3680    0.2823 C   0  0  0  0  0  0  0  0  0  0  0  0
    2.0982   -3.0485   -0.0816 C   0  0  0  0  0  0  0  0  0  0  0  0
    2.9405   -4.0194   -0.5790 C   0  0  0  0  0  0  0  0  0  0  0  0
    2.4910   -5.3237   -0.7440 C   0  0  0  0  0  0  0  0  0  0  0  0
    3.6335   -6.5129   -1.3831 S   0  0  0  0  0  0  0  0  0  0  0  0
    2.5379   -7.7067   -2.2151 C   0  0  0  0  0  0  0  0  0  0  0  0
    1.1909   -5.6487   -0.3818 C   0  0  0  0  0  0  0  0  0  0  0  0
    0.3545   -4.6854    0.1358 C   0  0  0  0  0  0  0  0  0  0  0  0
   -1.4647   -2.5174    0.6351 C   0  0  0  0  0  0  0  0  0  0  0  0
   -2.2989   -2.0963    1.6664 C   0  0  0  0  0  0  0  0  0  0  0  0
   -3.6722   -2.1876    1.5494 C   0  0  0  0  0  0  0  0  0  0  0  0
   -4.2349   -2.7048    0.3903 C   0  0  0  0  0  0  0  0  0  0  0  0
   -5.9722   -2.8732    0.1183 S   0  0  0  0  0  0  0  0  0  0  0  0
   -6.7093   -2.4670    1.7270 C   0  0  0  0  0  0  0  0  0  0  0  0
   -3.4035   -3.1068   -0.6546 C   0  0  0  0  0  0  0  0  0  0  0  0
   -2.0356   -3.0113   -0.5380 C   0  0  0  0  0  0  0  0  0  0  0  0
   -0.1254    0.0203    0.5526 C   0  0  0  0  0  0  0  0  0  0  0  0
   -1.2151    0.2783   -0.7643 S   0  0  0  0  0  0  0  0  0  0  0  0
   -0.9066    2.0074   -0.6935 C   0  0  0  0  0  0  0  0  0  0  0  0
   -0.0527    2.3658    0.3428 C   0  0  0  0  0  0  0  0  0  0  0  0
    0.2714    3.6433    0.7564 N   0  0  0  0  0  0  0  0  0  0  0  0
   -0.5081    4.7573    0.4215 C   0  0  0  0  0  0  0  0  0  0  0  0
    0.0938    5.9494    0.0139 C   0  0  0  0  0  0  0  0  0  0  0  0
   -0.6732    6.9861   -0.4666 C   0  0  0  0  0  0  0  0  0  0  0  0
   -2.0589    6.8657   -0.5464 C   0  0  0  0  0  0  0  0  0  0  0  0
   -2.9371    8.1939   -1.3029 S   0  0  0  0  0  0  0  0  0  0  0  0
   -4.5118    7.4296   -1.7877 C   0  0  0  0  0  0  0  0  0  0  0  0
   -2.6688    5.7306   -0.0285 C   0  0  0  0  0  0  0  0  0  0  0  0
   -1.8985    4.6940    0.4595 C   0  0  0  0  0  0  0  0  0  0  0  0
    1.5326    3.8536    1.3446 C   0  0  0  0  0  0  0  0  0  0  0  0
    1.6488    4.6800    2.4611 C   0  0  0  0  0  0  0  0  0  0  0  0
    2.8774    4.8758    3.0492 C   0  0  0  0  0  0  0  0  0  0  0  0
    4.0133    4.2504    2.5375 C   0  0  0  0  0  0  0  0  0  0  0  0
    5.5350    4.5838    3.3631 S   0  0  0  0  0  0  0  0  0  0  0  0
    6.6822    3.3662    2.6564 C   0  0  0  0  0  0  0  0  0  0  0  0
    3.9031    3.4413    1.4156 C   0  0  0  0  0  0  0  0  0  0  0  0
    2.6705    3.2478    0.8227 C   0  0  0  0  0  0  0  0  0  0  0  0
    0.3957    1.2101    1.0305 C   0  0  0  0  0  0  0  0  0  0  0  0
    1.4969    0.9335    2.3310 S   0  0  0  0  0  0  0  0  0  0  0  0
   -1.4569    2.8713   -1.7061 C   0  0  0  0  0  0  0  0  0  0  0  0
   -2.7626    2.7502   -2.1698 C   0  0  0  0  0  0  0  0  0  0  0  0
   -3.5729    1.7526   -1.6676 O   0  0  0  0  0  0  0  0  0  0  0  0
   -4.0080    1.8835   -0.3187 C   0  0  0  0  0  0  0  0  0  0  0  0
   -5.0299    0.7925   -0.0548 C   0  0  0  0  0  0  0  0  0  0  0  0
   -3.2612    3.6165   -3.1799 C   0  0  0  0  0  0  0  0  0  0  0  0
   -4.4655    3.5558   -3.7746 O   0  0  0  0  0  0  0  0  0  0  0  0
   -5.5542    2.7176   -3.4021 C   0  0  0  0  0  0  0  0  0  0  0  0
   -6.4958    3.4501   -2.4533 C   0  0  0  0  0  0  0  0  0  0  0  0
   -2.4712    4.6973   -3.6233 C   0  0  0  0  0  0  0  0  0  0  0  0
   -1.1333    4.8165   -3.1587 C   0  0  0  0  0  0  0  0  0  0  0  0
   -0.5948    3.8472   -2.2845 C   0  0  0  0  0  0  0  0  0  0  0  0
    0.7245    3.8024   -2.0409 N   0  0  0  0  0  0  0  0  0  0  0  0
    1.4675    4.7432   -2.5653 C   0  0  0  0  0  0  0  0  0  0  0  0
    0.9060    5.7991   -3.3028 C   0  0  0  0  0  0  0  0  0  0  0  0
   -0.3630    5.8187   -3.6156 N   0  0  0  0  0  0  0  0  0  0  0  0
   -2.9527    5.7478   -4.4638 C   0  0  0  0  0  0  0  0  0  0  0  0
   -3.9031    5.7808   -5.4382 C   0  0  0  0  0  0  0  0  0  0  0  0
   -4.5022    7.0909   -5.8105 C   0  0  0  0  0  0  0  0  0  0  0  0
   -4.1727    8.1849   -5.4145 O   0  0  0  0  0  0  0  0  0  0  0  0
   -5.6391    6.7629   -6.7008 C   0  0  0  0  0  0  0  0  0  0  0  0
   -6.5672    7.6171   -7.2610 C   0  0  0  0  0  0  0  0  0  0  0  0
   -7.5520    7.0410   -8.0494 C   0  0  0  0  0  0  0  0  0  0  0  0
   -8.4782    7.8325   -8.6171 F   0  0  0  0  0  0  0  0  0  0  0  0
   -7.6211    5.6739   -8.2722 C   0  0  0  0  0  0  0  0  0  0  0  0
   -6.6783    4.8274   -7.7083 C   0  0  0  0  0  0  0  0  0  0  0  0
   -5.6772    5.3739   -6.9186 C   0  0  0  0  0  0  0  0  0  0  0  0
   -4.5426    4.7576   -6.2317 C   0  0  0  0  0  0  0  0  0  0  0  0
   -4.0657    3.4938   -6.4648 C   0  0  0  0  0  0  0  0  0  0  0  0
   -4.7278    2.5332   -7.2548 C   0  0  0  0  0  0  0  0  0  0  0  0
   -5.2462    1.7043   -7.8572 N   0  0  0  0  0  0  0  0  0  0  0  0
   -2.8315    3.0166   -5.9811 C   0  0  0  0  0  0  0  0  0  0  0  0
   -1.8245    2.5886   -5.6345 N   0  0  0  0  0  0  0  0  0  0  0  0
    4.5226   -4.5558    5.4098 H   0  0  0  0  0  0  0  0  0  0  0  0
    1.9910   -8.1951    0.9698 H   0  0  0  0  0  0  0  0  0  0  0  0
    5.7394   -9.7816    3.9776 H   0  0  0  0  0  0  0  0  0  0  0  0
    4.4153  -12.4097    2.1932 H   0  0  0  0  0  0  0  0  0  0  0  0
    6.6211  -12.2910    1.0439 H   0  0  0  0  0  0  0  0  0  0  0  0
    7.0380   -9.7618    0.5156 H   0  0  0  0  0  0  0  0  0  0  0  0
    5.1169   -8.9191   -1.1031 H   0  0  0  0  0  0  0  0  0  0  0  0
    3.5184  -10.9406   -1.5973 H   0  0  0  0  0  0  0  0  0  0  0  0
    4.5425  -13.1417   -0.4387 H   0  0  0  0  0  0  0  0  0  0  0  0
    5.7604  -12.3378   -1.4607 H   0  0  0  0  0  0  0  0  0  0  0  0
    2.5481  -11.6300    0.5917 H   0  0  0  0  0  0  0  0  0  0  0  0
    4.1051   -2.2062    5.6069 H   0  0  0  0  0  0  0  0  0  0  0  0
    0.8648    0.3523    5.2521 H   0  0  0  0  0  0  0  0  0  0  0  0
    1.1718    2.6128    6.1832 H   0  0  0  0  0  0  0  0  0  0  0  0
    3.4163    3.6421    6.2112 H   0  0  0  0  0  0  0  0  0  0  0  0
    5.3464    2.3992    5.3326 H   0  0  0  0  0  0  0  0  0  0  0  0
    5.0314    0.1510    4.3565 H   0  0  0  0  0  0  0  0  0  0  0  0
    2.4516   -2.0332    0.0205 H   0  0  0  0  0  0  0  0  0  0  0  0
    3.9552   -3.7718   -0.8519 H   0  0  0  0  0  0  0  0  0  0  0  0
    2.1117   -8.4002   -1.4959 H   0  0  0  0  0  0  0  0  0  0  0  0
    1.7618   -7.1669   -2.7485 H   0  0  0  0  0  0  0  0  0  0  0  0
    3.1626   -8.2490   -2.9180 H   0  0  0  0  0  0  0  0  0  0  0  0
    0.8225   -6.6571   -0.4842 H   0  0  0  0  0  0  0  0  0  0  0  0
   -0.6389   -4.9614    0.4525 H   0  0  0  0  0  0  0  0  0  0  0  0
   -1.8624   -1.7012    2.5722 H   0  0  0  0  0  0  0  0  0  0  0  0
   -4.2891   -1.8564    2.3691 H   0  0  0  0  0  0  0  0  0  0  0  0
   -6.5472   -1.4189    1.9610 H   0  0  0  0  0  0  0  0  0  0  0  0
   -7.7722   -2.6577    1.6164 H   0  0  0  0  0  0  0  0  0  0  0  0
   -6.2967   -3.1136    2.4955 H   0  0  0  0  0  0  0  0  0  0  0  0
   -3.8489   -3.4860   -1.5614 H   0  0  0  0  0  0  0  0  0  0  0  0
   -1.4007   -3.3101   -1.3577 H   0  0  0  0  0  0  0  0  0  0  0  0
    1.1696    6.0377    0.0356 H   0  0  0  0  0  0  0  0  0  0  0  0
   -0.2058    7.8919   -0.8202 H   0  0  0  0  0  0  0  0  0  0  0  0
   -4.9349    8.0896   -2.5389 H   0  0  0  0  0  0  0  0  0  0  0  0
   -5.1814    7.3604   -0.9346 H   0  0  0  0  0  0  0  0  0  0  0  0
   -4.3205    6.4533   -2.2232 H   0  0  0  0  0  0  0  0  0  0  0  0
   -3.7444    5.6494    0.0015 H   0  0  0  0  0  0  0  0  0  0  0  0
   -2.3754    3.8181    0.8700 H   0  0  0  0  0  0  0  0  0  0  0  0
    0.7690    5.1620    2.8603 H   0  0  0  0  0  0  0  0  0  0  0  0
    2.9741    5.5122    3.9149 H   0  0  0  0  0  0  0  0  0  0  0  0
    6.9097    3.6169    1.6243 H   0  0  0  0  0  0  0  0  0  0  0  0
    7.5861    3.4311    3.2544 H   0  0  0  0  0  0  0  0  0  0  0  0
    6.2512    2.3728    2.7374 H   0  0  0  0  0  0  0  0  0  0  0  0
    4.7687    2.9654    0.9843 H   0  0  0  0  0  0  0  0  0  0  0  0
    2.5843    2.6392   -0.0649 H   0  0  0  0  0  0  0  0  0  0  0  0
   -4.4475    2.8786   -0.1635 H   0  0  0  0  0  0  0  0  0  0  0  0
   -3.1640    1.7701    0.3723 H   0  0  0  0  0  0  0  0  0  0  0  0
   -5.3258    0.8208    0.9904 H   0  0  0  0  0  0  0  0  0  0  0  0
   -4.5859   -0.1727   -0.2795 H   0  0  0  0  0  0  0  0  0  0  0  0
   -5.9095    0.9259   -0.6781 H   0  0  0  0  0  0  0  0  0  0  0  0
   -5.2071    1.7739   -2.9837 H   0  0  0  0  0  0  0  0  0  0  0  0
   -6.0717    2.5179   -4.3467 H   0  0  0  0  0  0  0  0  0  0  0  0
   -7.3582    2.8253   -2.2397 H   0  0  0  0  0  0  0  0  0  0  0  0
   -5.9957    3.6902   -1.5184 H   0  0  0  0  0  0  0  0  0  0  0  0
   -6.8364    4.3775   -2.9092 H   0  0  0  0  0  0  0  0  0  0  0  0
    2.5327    4.6705   -2.3933 H   0  0  0  0  0  0  0  0  0  0  0  0
    1.5046    6.6255   -3.6597 H   0  0  0  0  0  0  0  0  0  0  0  0
   -2.5025    6.7132   -4.2441 H   0  0  0  0  0  0  0  0  0  0  0  0
   -6.5260    8.6821   -7.0971 H   0  0  0  0  0  0  0  0  0  0  0  0
   -8.4138    5.2820   -8.8899 H   0  0  0  0  0  0  0  0  0  0  0  0
   -6.7415    3.7663   -7.8858 H   0  0  0  0  0  0  0  0  0  0  0  0
  1  2  2  0  0  0  0
  2  3  1  0  0  0  0
  3  4  2  0  0  0  0
  3  5  1  0  0  0  0
  5  6  2  0  0  0  0
  6  7  1  0  0  0  0
  7  8  2  0  0  0  0
  8  9  1  0  0  0  0
  9 10  2  0  0  0  0
 10 11  1  0  0  0  0
 11 12  2  0  0  0  0
 12 13  1  0  0  0  0
 13 14  3  0  0  0  0
 12 15  1  0  0  0  0
 15 16  3  0  0  0  0
  8 17  1  0  0  0  0
 17 18  1  0  0  0  0
 18 19  1  0  0  0  0
 19 20  2  0  0  0  0
 20 21  1  0  0  0  0
 21 22  1  0  0  0  0
 21 23  1  0  0  0  0
  1 24  1  0  0  0  0
 24 25  2  0  0  0  0
 25 26  1  0  0  0  0
 26 27  1  0  0  0  0
 27 28  2  0  0  0  0
 28 29  1  0  0  0  0
 29 30  2  0  0  0  0
 30 31  1  0  0  0  0
 31 32  2  0  0  0  0
 26 33  2  0  0  0  0
 33 34  1  0  0  0  0
 33 35  1  0  0  0  0
 35 36  2  0  0  0  0
 36 37  1  0  0  0  0
 37 38  1  0  0  0  0
 38 39  2  0  0  0  0
 39 40  1  0  0  0  0
 40 41  2  0  0  0  0
 41 42  1  0  0  0  0
 42 43  1  0  0  0  0
 41 44  1  0  0  0  0
 44 45  2  0  0  0  0
 37 46  1  0  0  0  0
 46 47  2  0  0  0  0
 47 48  1  0  0  0  0
 48 49  2  0  0  0  0
 49 50  1  0  0  0  0
 50 51  1  0  0  0  0
 49 52  1  0  0  0  0
 52 53  2  0  0  0  0
 36 54  1  0  0  0  0
 54 55  1  0  0  0  0
 55 56  1  0  0  0  0
 56 57  2  0  0  0  0
 57 58  1  0  0  0  0
 58 59  1  0  0  0  0
 59 60  2  0  0  0  0
 60 61  1  0  0  0  0
 61 62  2  0  0  0  0
 62 63  1  0  0  0  0
 63 64  1  0  0  0  0
 62 65  1  0  0  0  0
 65 66  2  0  0  0  0
 58 67  1  0  0  0  0
 67 68  2  0  0  0  0
 68 69  1  0  0  0  0
 69 70  2  0  0  0  0
 70 71  1  0  0  0  0
 71 72  1  0  0  0  0
 70 73  1  0  0  0  0
 73 74  2  0  0  0  0
 57 75  1  0  0  0  0
 75 76  1  0  0  0  0
 56 77  1  0  0  0  0
 77 78  2  0  0  0  0
 78 79  1  0  0  0  0
 79 80  1  0  0  0  0
 80 81  1  0  0  0  0
 78 82  1  0  0  0  0
 82 83  1  0  0  0  0
 83 84  1  0  0  0  0
 84 85  1  0  0  0  0
 82 86  2  0  0  0  0
 86 87  1  0  0  0  0
 87 88  2  0  0  0  0
 88 89  1  0  0  0  0
 89 90  2  0  0  0  0
 90 91  1  0  0  0  0
 91 92  2  0  0  0  0
 86 93  1  0  0  0  0
 93 94  2  0  0  0  0
 94 95  1  0  0  0  0
 95 96  2  0  0  0  0
 95 97  1  0  0  0  0
 97 98  2  0  0  0  0
 98 99  1  0  0  0  0
 99100  1  0  0  0  0
 99101  2  0  0  0  0
101102  1  0  0  0  0
102103  2  0  0  0  0
103104  1  0  0  0  0
104105  2  0  0  0  0
105106  1  0  0  0  0
106107  3  0  0  0  0
105108  1  0  0  0  0
108109  3  0  0  0  0
 11  2  1  0  0  0  0
 23 17  1  0  0  0  0
 34 24  1  0  0  0  0
 76 35  1  0  0  0  0
 88 77  1  0  0  0  0
104 94  1  0  0  0  0
 10  5  1  0  0  0  0
 22 18  1  0  0  0  0
 32 27  1  0  0  0  0
 45 38  1  0  0  0  0
 53 46  1  0  0  0  0
 75 54  2  0  0  0  0
 92 87  1  0  0  0  0
103 97  1  0  0  0  0
 23  7  1  0  0  0  0
 66 59  1  0  0  0  0
 74 67  1  0  0  0  0
  1110  1  0  0  0  0
  6111  1  0  0  0  0
  9112  1  0  0  0  0
 17113  1  0  0  0  0
 18114  1  0  0  0  0
 19115  1  0  0  0  0
 20116  1  0  0  0  0
 21117  1  0  0  0  0
 22118  1  0  0  0  0
 22119  1  0  0  0  0
 23120  1  0  0  0  0
 25121  1  0  0  0  0
 28122  1  0  0  0  0
 29123  1  0  0  0  0
 30124  1  0  0  0  0
 31125  1  0  0  0  0
 32126  1  0  0  0  0
 39127  1  0  0  0  0
 40128  1  0  0  0  0
 43129  1  0  0  0  0
 43130  1  0  0  0  0
 43131  1  0  0  0  0
 44132  1  0  0  0  0
 45133  1  0  0  0  0
 47134  1  0  0  0  0
 48135  1  0  0  0  0
 51136  1  0  0  0  0
 51137  1  0  0  0  0
 51138  1  0  0  0  0
 52139  1  0  0  0  0
 53140  1  0  0  0  0
 60141  1  0  0  0  0
 61142  1  0  0  0  0
 64143  1  0  0  0  0
 64144  1  0  0  0  0
 64145  1  0  0  0  0
 65146  1  0  0  0  0
 66147  1  0  0  0  0
 68148  1  0  0  0  0
 69149  1  0  0  0  0
 72150  1  0  0  0  0
 72151  1  0  0  0  0
 72152  1  0  0  0  0
 73153  1  0  0  0  0
 74154  1  0  0  0  0
 80155  1  0  0  0  0
 80156  1  0  0  0  0
 81157  1  0  0  0  0
 81158  1  0  0  0  0
 81159  1  0  0  0  0
 84160  1  0  0  0  0
 84161  1  0  0  0  0
 85162  1  0  0  0  0
 85163  1  0  0  0  0
 85164  1  0  0  0  0
 90165  1  0  0  0  0
 91166  1  0  0  0  0
 93167  1  0  0  0  0
 98168  1  0  0  0  0
101169  1  0  0  0  0
102170  1  0  0  0  0
M  END
