184

C         -6.59130        7.81430        5.62890
C         -5.75060        8.84700        5.90320
C         -4.40690        9.10600        5.31990
O         -3.66560        8.34050        4.73980
C         -4.14910       10.54100        5.54630
C         -3.05740       11.27050        5.07920
C         -3.08460       12.60010        5.42210
C         -4.12210       13.16720        6.17560
C         -5.19920       12.45870        6.65040
C         -5.19040       11.10200        6.31150
C         -6.15130       10.05120        6.62000
C         -7.19690       10.15210        7.49730
C         -8.04660        9.08670        7.86740
N         -8.76260        8.27060        8.24120
C         -7.53960       11.32920        8.19550
N         -7.87570       12.25320        8.78830
C         -3.51600       14.54670        6.11920
C         -4.13590       15.56470        5.12990
C         -4.75620       14.75880        4.01550
C         -3.77170       14.22320        3.30630
C         -2.46750       14.65690        3.92890
C         -2.85900       16.05630        4.42960
C         -2.35820       13.91470        5.28410
C         -6.33160        6.59290        4.91890
C         -5.08640        5.96220        4.93480
C         -4.91990        4.82060        4.17410
N         -3.79460        4.05540        3.99380
C         -2.49910        4.30080        4.57210
C         -2.29050        3.51320        5.86350
C         -4.10480        3.02440        3.14640
C         -5.46420        3.12370        2.75150
C         -5.98830        4.27430        3.41320
C         -7.24150        4.88240        3.44630
C         -7.40450        6.01750        4.20070
C         -5.98500        2.18790        1.86360
C         -5.17200        1.18850        1.38030
C         -3.82510        1.07990        1.77450
C         -3.29630        2.00980        2.67240
C         -2.93560        0.05850        1.26260
C         -2.96230       -0.70130        0.10580
N         -3.97150       -0.75110       -0.86540
C         -5.19330       -1.36550       -0.58410
C         -5.33560       -2.22720        0.50570
C         -6.55550       -2.80100        0.78520
C         -7.66390       -2.53990       -0.01690
S         -9.17080       -3.34280        0.43790
C        -10.32880       -2.88020       -0.88140
C         -7.53100       -1.67910       -1.09820
C         -6.31060       -1.09560       -1.37420
C         -3.53140       -0.57300       -2.18720
C         -3.91130       -1.42650       -3.21810
C         -3.43230       -1.24030       -4.50040
C         -2.55080       -0.20320       -4.77210
S         -1.86340        0.12750       -6.36470
C         -2.49220       -1.22070       -7.40420
C         -2.16300        0.65100       -3.74150
C         -2.64840        0.47150       -2.46660
C         -1.75820       -1.43130       -0.06260
S         -1.16540       -2.49970       -1.28330
C          0.34420       -2.71750       -0.39660
C          0.34740       -2.03030        0.81570
N          1.33240       -2.04340        1.79050
C          1.47250       -0.86410        2.54820
C          1.46450       -0.89130        3.94240
C          1.50230        0.28570        4.65470
C          1.54850        1.51400        3.99570
S          1.51410        2.95250        5.01770
C          1.63280        4.33360        3.84480
C          1.59760        1.54340        2.60910
C          1.56230        0.36150        1.89470
C          1.99720       -3.21020        2.17300
C          1.43760       -4.47200        1.96640
C          2.14020       -5.60740        2.29900
C          3.41440       -5.51880        2.85630
S          4.23200       -7.04510        3.19540
C          5.80410       -6.54240        3.95130
C          3.96420       -4.26580        3.09240
C          3.26390       -3.12630        2.74920
C         -0.84680       -1.28550        0.96620
S         -1.45870       -0.22380        2.17970
C          1.35190       -3.52430       -0.98480
S          0.91080       -4.64250       -2.26060
C          2.54460       -5.16240       -2.38030
C          3.30930       -6.06350       -3.14250
C          4.65110       -5.99720       -2.71710
C          4.79600       -5.01610       -1.57840
C          5.11910       -5.73190       -0.24740
C          6.46610       -6.44010       -0.20630
C          5.81120       -3.90820       -1.89260
C          5.43280       -3.10180       -3.12960
C          3.38090       -4.49800       -1.48060
C          2.71030       -3.56760       -0.70170
C          5.48650       -6.81000       -3.44790
C          4.81030       -7.53370       -4.43520
S          3.07910       -7.14980       -4.43530
C          5.24090       -8.43950       -5.40710
C          6.47440       -9.00650       -5.65110
C          7.69300       -8.94010       -4.82580
O          7.90980       -8.29110       -3.81920
C          8.65540       -9.87060       -5.45170
C          9.91680      -10.18610       -5.03930
C         10.66990      -11.11770       -5.78830
C         11.97770      -11.47850       -5.41130
C         12.68190      -12.38470       -6.15330
F         13.92830      -12.72680       -5.79260
C         12.11060      -12.96860       -7.30060
F         12.82500      -13.85560       -8.00890
C         10.84340      -12.63810       -7.69160
C         10.09130      -11.70570       -6.94950
C          8.78120      -11.35500       -7.35070
C          8.07250      -10.44460       -6.61270
C          6.73210       -9.88450       -6.77470
C          5.91720      -10.12460       -7.85430
C          4.65920       -9.53780       -8.10250
N          3.64020       -9.10000       -8.40460
C          6.25220      -10.98940       -8.91620
N          6.45700      -11.68010       -9.81090
H         -7.63000        7.94680        5.91220
H         -2.28150       10.79540        4.49920
H         -5.99230       12.90790        7.22460
H         -3.26740       14.99870        7.07720
H         -4.77340       16.31270        5.59320
H         -5.81450       14.61900        3.89500
H         -3.84320       13.54600        2.47530
H         -1.58530       14.57920        3.29870
H         -3.06540       16.75140        3.61720
H         -2.13070       16.49300        5.11150
H         -1.35240       13.95160        5.69820
H         -4.28930        6.35030        5.54370
H         -1.73910        4.01460        3.83920
H         -2.40590        5.37310        4.75940
H         -1.29360        3.69690        6.25450
H         -3.02310        3.80870        6.61050
H         -2.39740        2.44720        5.67610
H         -8.06600        4.46320        2.89030
H         -8.36660        6.50730        4.23220
H         -7.01740        2.24400        1.55410
H         -5.58540        0.46440        0.70210
H         -2.26320        1.94000        2.97780
H         -4.48410       -2.44440        1.13290
H         -6.66250       -3.46790        1.62680
H        -10.50890       -1.80910       -0.86350
H         -9.94090       -3.20080       -1.84380
H        -11.24950       -3.41090       -0.65980
H         -8.37140       -1.44380       -1.73110
H         -6.22050       -0.41250       -2.20580
H         -4.57550       -2.25290       -3.01350
H         -3.74570       -1.92300       -5.27340
H         -2.04930       -1.06440       -8.38290
H         -3.57440       -1.16270       -7.47700
H         -2.17170       -2.17760       -7.00290
H         -1.47910        1.45730       -3.95800
H         -2.34810        1.13860       -1.67160
H          1.40390       -1.83790        4.45790
H          1.47410        0.27110        5.73330
H          0.78460        4.32580        3.16670
H          2.57230        4.28060        3.30250
H          1.60830        5.23350        4.45140
H          1.65540        2.47500        2.07000
H          1.58480        0.38700        0.81480
H          0.44600       -4.55970        1.55050
H          1.70740       -6.58180        2.13300
H          5.61610       -5.98740        4.86560
H          6.32370       -7.46690        4.18320
H          6.38900       -5.95900        3.24620
H          4.94270       -4.15920        3.53220
H          3.70850       -2.15670        2.92040
H          4.32870       -6.46240       -0.05770
H          5.07040       -4.98500        0.54870
H          7.28910       -5.73490       -0.28610
H          6.56160       -6.97080        0.73840
H          6.54990       -7.16720       -1.00830
H          5.87800       -3.24340       -1.02860
H          6.78800       -4.36550       -2.05120
H          5.37180       -3.74630       -4.00350
H          6.18200       -2.33730       -3.32040
H          4.47000       -2.61370       -2.99520
H          3.18090       -2.92020        0.01280
H          6.54830       -6.90320       -3.31620
H          4.44700       -8.75100       -6.07570
H         10.33410       -9.73130       -4.15360
H         12.42890      -11.04040       -4.53480
H         10.42110      -13.09360       -8.57360
H          8.37340      -11.82150       -8.23240
