167

C          2.81440        3.82240       -5.64070
C          2.67140        3.81110       -6.99790
C          1.42310        3.48520       -7.73300
O          0.28360        3.48940       -7.32090
C          1.86230        3.08930       -9.08590
C          1.06260        2.56170      -10.09570
C          1.75010        2.23640      -11.23940
C          3.13070        2.43500      -11.38050
C          3.93050        2.96010      -10.39390
C          3.25220        3.28170       -9.21380
C          3.76440        3.79850       -7.95020
C          5.03670        4.25200       -7.71550
C          6.07640        4.23540       -8.66690
N          6.96770        4.23620       -9.39110
C          5.46230        4.83280       -6.50230
N          5.87090        5.33170       -5.55190
C          3.15060        1.86440      -12.77780
C          3.70400        0.42950      -12.96480
C          3.50510       -0.27750      -11.64750
C          2.20340       -0.47270      -11.48420
C          1.49960        0.08650      -12.69660
C          2.55670       -0.19090      -13.77770
C          1.61620        1.62880      -12.61150
C          1.77900        3.81320       -4.68050
C          0.49440        4.31810       -4.70450
C         -0.27470        3.96550       -3.59260
C         -1.66880        4.39550       -3.41300
C         -1.95490        5.75490       -3.33740
C         -3.25540        6.18600       -3.15320
C         -4.28290        5.26490       -3.04500
C         -4.00800        3.91110       -3.13550
C         -2.70900        3.47690       -3.32130
C          0.41250        3.14510       -2.70300
S          2.07590        2.97750       -3.17410
C         -0.09480        2.47670       -1.55380
C          0.27590        1.23360       -1.04660
N          1.15640        0.32540       -1.60620
C          1.31430        0.16750       -2.98420
C          2.55420       -0.21570       -3.49170
C          2.77970       -0.24430       -4.85370
C          1.76970        0.12190       -5.73300
S          1.97570        0.21570       -7.48500
C          3.77770        0.20090       -7.70300
C          0.50520        0.43110       -5.23490
C          0.27540        0.43750       -3.87830
C          1.74630       -0.59260       -0.71050
C          1.56880       -1.96550       -0.87390
C          1.91960       -2.82730        0.14220
C          2.46310       -2.33440        1.32590
S          2.66160       -3.45820        2.67570
C          2.50910       -2.35210        4.10950
C          2.78230       -0.98610        1.42520
C          2.41830       -0.12000        0.41340
C         -0.41940        0.95670        0.15400
S         -0.42680       -0.40630        1.21370
C         -1.56870        0.40360        2.28020
C         -2.07310        1.59210        1.70680
N         -3.18330        2.29630        2.08880
C         -3.31730        3.62440        1.63010
C         -4.46950        4.01420        0.94880
C         -4.57460        5.29160        0.44940
C         -3.53400        6.20370        0.62060
S         -3.75340        7.79970       -0.08770
C         -2.06200        8.45670       -0.16140
C         -2.40550        5.83130        1.33920
C         -2.29880        4.54800        1.83930
C         -4.22390        1.75120        2.84130
C         -4.52650        0.38950        2.79800
C         -5.43620       -0.15620        3.67760
C         -6.09470        0.65520        4.59770
S         -7.15200        0.02700        5.85210
C         -6.56160       -1.67640        6.05610
C         -5.90920        2.03750        4.53480
C         -4.98950        2.57980        3.66890
C         -1.33820        1.91830        0.53690
S         -1.36130        3.23710       -0.59090
C         -1.74590       -0.20760        3.54170
C         -2.26050        0.39370        4.71430
C         -2.44980       -0.35250        5.94080
N         -2.94630        0.41310        6.91080
S         -3.12480        1.91400        6.36270
N         -2.59040        1.67710        4.86340
C         -2.05530       -1.70220        6.10500
C         -1.48770       -2.28820        4.95220
N         -1.10180       -3.55740        4.81060
S         -0.52870       -3.78460        3.33320
N         -0.78900       -2.30190        2.76430
C         -1.32880       -1.55030        3.72520
C         -2.27460       -2.38430        7.32090
C         -1.52290       -3.42210        7.80870
C         -0.10520       -3.67600        7.48010
O          0.60760       -3.07900        6.69560
C          0.34210       -4.71830        8.42780
C          1.61590       -5.27400        8.51910
C          1.75100       -6.20590        9.52060
C          0.70030       -6.55280       10.37920
C         -0.55960       -6.00700       10.30620
C         -0.71930       -5.06310        9.28780
C         -1.89640       -4.29350        8.89550
C         -3.16990       -4.45590        9.38520
C         -3.51610       -5.32220       10.44000
N         -3.86240       -6.00020       11.30030
C         -4.30830       -3.82080        8.85150
N         -5.28800       -3.38330        8.43920
C          1.54410       -7.54380       11.14240
C          1.31670       -9.03600       10.82050
C          2.56870       -9.71080       11.33240
C          3.56480       -9.38310       10.51940
C          3.00270       -8.48150        9.44410
C          1.59400       -9.07450        9.31210
C          2.71600       -7.15760       10.18390
H          3.81470        3.72240       -5.23360
H          0.00360        2.42290       -9.94770
H          4.99340        3.09700      -10.50720
H          3.47860        2.54250      -13.56290
H          4.70280        0.38200      -13.39040
H          4.30570       -0.51010      -10.96920
H          1.69490       -0.88510      -10.63230
H          0.49220       -0.27980      -12.87500
H          2.36200        0.32440      -14.71720
H          2.70050       -1.25420      -13.96420
H          0.94240        2.13340      -13.30110
H          0.11230        4.91140       -5.51320
H         -1.14830        6.47010       -3.41780
H         -3.47020        7.24230       -3.09200
H         -5.29750        5.60430       -2.90040
H         -4.80910        3.19010       -3.06480
H         -2.49630        2.42110       -3.40560
H          3.35280       -0.46240       -2.80830
H          3.75380       -0.53240       -5.21450
H          4.17490       -0.79050       -7.50510
H          3.94550        0.46540       -8.74260
H          4.23120        0.94240       -7.05150
H         -0.28460        0.68380       -5.92500
H         -0.70650        0.67740       -3.50060
H          1.09660       -2.33880       -1.77030
H          1.72660       -3.88480        0.05230
H          1.77480       -1.58470        3.88320
H          3.47190       -1.91030        4.34960
H          2.15910       -2.95320        4.94400
H          3.28240       -0.59910        2.29850
H          2.60990        0.93870        0.50980
H         -5.26720        3.30200        0.80050
H         -5.45570        5.59670       -0.09230
H         -2.11430        9.33940       -0.79100
H         -1.41060        7.71380       -0.61170
H         -1.71920        8.73730        0.83010
H         -1.60480        6.53010        1.51810
H         -1.42400        4.25400        2.39950
H         -4.03060       -0.25160        2.08540
H         -5.62800       -1.21690        3.64370
H         -6.96080       -2.31440        5.27300
H         -6.92030       -2.01170        7.02360
H         -5.47600       -1.68290        6.05530
H         -6.46760        2.67100        5.20610
H         -4.80530        3.64260        3.67570
H         -3.09190       -2.00220        7.92140
H          2.40240       -4.97510        7.84360
H         -1.35660       -6.27190       10.98120
H          1.65730       -7.35080       12.20760
H          0.36780       -9.43670       11.16640
H          2.61110      -10.29160       12.23520
H          4.60540       -9.63540       10.60760
H          3.59030       -8.37820        8.53580
H          1.61020      -10.09110        8.92250
H          0.91130       -8.46810        8.72000
H          3.61010       -6.70650       10.61090
