
  xtb     02152210113D
 energy: -273.286138717992 gnorm: 0.000637573530 xtb: 6.4.1 (unknown)
159175  0     0  0            999 V2000
    7.3745   -4.5076   -1.8851 C   0  0  0  0  0  0  0  0  0  0  0  0
    7.0491   -5.8128   -1.6785 C   0  0  0  0  0  0  0  0  0  0  0  0
    5.9974   -6.3576   -0.7791 C   0  0  0  0  0  0  0  0  0  0  0  0
    5.1221   -5.7642   -0.1830 O   0  0  0  0  0  0  0  0  0  0  0  0
    6.2605   -7.8047   -0.6852 C   0  0  0  0  0  0  0  0  0  0  0  0
    5.5461   -8.7263    0.0792 C   0  0  0  0  0  0  0  0  0  0  0  0
    6.0037  -10.0165   -0.0295 C   0  0  0  0  0  0  0  0  0  0  0  0
    7.1021  -10.3650   -0.8283 C   0  0  0  0  0  0  0  0  0  0  0  0
    7.8195   -9.4662   -1.5799 C   0  0  0  0  0  0  0  0  0  0  0  0
    7.3608   -8.1467   -1.4949 C   0  0  0  0  0  0  0  0  0  0  0  0
    7.8430   -6.9390   -2.1543 C   0  0  0  0  0  0  0  0  0  0  0  0
    8.8166   -6.8952   -3.1166 C   0  0  0  0  0  0  0  0  0  0  0  0
    9.2187   -5.7459   -3.8315 C   0  0  0  0  0  0  0  0  0  0  0  0
    9.5970   -4.8772   -4.4807 N   0  0  0  0  0  0  0  0  0  0  0  0
    9.5456   -8.0166   -3.5668 C   0  0  0  0  0  0  0  0  0  0  0  0
   10.1797   -8.8805   -3.9783 N   0  0  0  0  0  0  0  0  0  0  0  0
    7.0014  -11.8263   -0.4687 C   0  0  0  0  0  0  0  0  0  0  0  0
    6.3753  -12.7531   -1.5324 C   0  0  0  0  0  0  0  0  0  0  0  0
    5.9681  -13.9800   -0.7488 C   0  0  0  0  0  0  0  0  0  0  0  0
    4.9262  -13.6507    0.0040 C   0  0  0  0  0  0  0  0  0  0  0  0
    4.6119  -12.1954   -0.2578 C   0  0  0  0  0  0  0  0  0  0  0  0
    5.0004  -12.1044   -1.7392 C   0  0  0  0  0  0  0  0  0  0  0  0
    5.7750  -11.4385    0.4185 C   0  0  0  0  0  0  0  0  0  0  0  0
    6.6505   -3.3165   -1.5425 C   0  0  0  0  0  0  0  0  0  0  0  0
    5.2581   -3.2870   -1.4410 C   0  0  0  0  0  0  0  0  0  0  0  0
    4.6506   -2.0987   -1.0863 C   0  0  0  0  0  0  0  0  0  0  0  0
    3.3155   -1.8335   -0.9037 N   0  0  0  0  0  0  0  0  0  0  0  0
    2.2597   -2.8117   -0.9643 C   0  0  0  0  0  0  0  0  0  0  0  0
    2.1888   -3.6554    0.3061 C   0  0  0  0  0  0  0  0  0  0  0  0
    3.1857   -0.5219   -0.5297 C   0  0  0  0  0  0  0  0  0  0  0  0
    4.4632    0.0986   -0.5145 C   0  0  0  0  0  0  0  0  0  0  0  0
    5.4046   -0.9166   -0.8602 C   0  0  0  0  0  0  0  0  0  0  0  0
    6.7902   -0.9446   -1.0078 C   0  0  0  0  0  0  0  0  0  0  0  0
    7.3938   -2.1287   -1.3516 C   0  0  0  0  0  0  0  0  0  0  0  0
    4.5605    1.4500   -0.1982 C   0  0  0  0  0  0  0  0  0  0  0  0
    3.4192    2.1613    0.0935 C   0  0  0  0  0  0  0  0  0  0  0  0
    2.1519    1.5489    0.0970 C   0  0  0  0  0  0  0  0  0  0  0  0
    2.0458    0.1913   -0.2143 C   0  0  0  0  0  0  0  0  0  0  0  0
    0.9259    2.2680    0.3767 C   0  0  0  0  0  0  0  0  0  0  0  0
    0.5854    3.6064    0.2655 C   0  0  0  0  0  0  0  0  0  0  0  0
    1.4277    4.6776   -0.0559 N   0  0  0  0  0  0  0  0  0  0  0  0
    2.3937    5.1129    0.8538 C   0  0  0  0  0  0  0  0  0  0  0  0
    3.4879    5.8633    0.4121 C   0  0  0  0  0  0  0  0  0  0  0  0
    4.4558    6.2695    1.3009 C   0  0  0  0  0  0  0  0  0  0  0  0
    4.3686    5.9322    2.6515 C   0  0  0  0  0  0  0  0  0  0  0  0
    5.6777    6.5085    3.6883 S   0  0  0  0  0  0  0  0  0  0  0  0
    5.2360    5.8920    5.3371 C   0  0  0  0  0  0  0  0  0  0  0  0
    3.2907    5.1800    3.0941 C   0  0  0  0  0  0  0  0  0  0  0  0
    2.3120    4.7798    2.2039 C   0  0  0  0  0  0  0  0  0  0  0  0
    0.9800    5.5022   -1.1002 C   0  0  0  0  0  0  0  0  0  0  0  0
    0.9979    6.8903   -1.0086 C   0  0  0  0  0  0  0  0  0  0  0  0
    0.5265    7.6713   -2.0461 C   0  0  0  0  0  0  0  0  0  0  0  0
    0.0142    7.0765   -3.1907 C   0  0  0  0  0  0  0  0  0  0  0  0
   -0.6250    7.9655   -4.5755 S   0  0  0  0  0  0  0  0  0  0  0  0
   -0.4237    9.7084   -4.1113 C   0  0  0  0  0  0  0  0  0  0  0  0
   -0.0144    5.6862   -3.2829 C   0  0  0  0  0  0  0  0  0  0  0  0
    0.4652    4.9086   -2.2541 C   0  0  0  0  0  0  0  0  0  0  0  0
   -0.8085    3.8016    0.4449 C   0  0  0  0  0  0  0  0  0  0  0  0
   -1.8435    5.1843    0.3807 S   0  0  0  0  0  0  0  0  0  0  0  0
   -3.2499    4.1790    0.7317 C   0  0  0  0  0  0  0  0  0  0  0  0
   -2.9046    2.8401    0.9452 C   0  0  0  0  0  0  0  0  0  0  0  0
   -3.7389    1.8078    1.2986 N   0  0  0  0  0  0  0  0  0  0  0  0
   -4.7762    1.9531    2.2218 C   0  0  0  0  0  0  0  0  0  0  0  0
   -4.6886    2.8743    3.2672 C   0  0  0  0  0  0  0  0  0  0  0  0
   -5.7176    2.9957    4.1713 C   0  0  0  0  0  0  0  0  0  0  0  0
   -6.8542    2.1950    4.0633 C   0  0  0  0  0  0  0  0  0  0  0  0
   -8.1088    2.4529    5.2750 S   0  0  0  0  0  0  0  0  0  0  0  0
   -9.4385    1.3191    4.7827 C   0  0  0  0  0  0  0  0  0  0  0  0
   -6.9343    1.2603    3.0387 C   0  0  0  0  0  0  0  0  0  0  0  0
   -5.9040    1.1420    2.1286 C   0  0  0  0  0  0  0  0  0  0  0  0
   -3.3920    0.5273    0.8269 C   0  0  0  0  0  0  0  0  0  0  0  0
   -3.0807    0.3526   -0.5186 C   0  0  0  0  0  0  0  0  0  0  0  0
   -2.6243   -0.8642   -0.9858 C   0  0  0  0  0  0  0  0  0  0  0  0
   -2.4771   -1.9300   -0.1081 C   0  0  0  0  0  0  0  0  0  0  0  0
   -1.8174   -3.5017   -0.5631 S   0  0  0  0  0  0  0  0  0  0  0  0
   -1.6223   -3.3949   -2.3656 C   0  0  0  0  0  0  0  0  0  0  0  0
   -2.8382   -1.7726    1.2300 C   0  0  0  0  0  0  0  0  0  0  0  0
   -3.2930   -0.5592    1.6950 C   0  0  0  0  0  0  0  0  0  0  0  0
   -1.5155    2.6528    0.7467 C   0  0  0  0  0  0  0  0  0  0  0  0
   -0.4664    1.2861    0.8164 S   0  0  0  0  0  0  0  0  0  0  0  0
   -4.5455    4.7534    0.6536 C   0  0  0  0  0  0  0  0  0  0  0  0
   -4.7606    6.1302    0.3865 C   0  0  0  0  0  0  0  0  0  0  0  0
   -5.9323    6.5870    0.0595 N   0  0  0  0  0  0  0  0  0  0  0  0
   -6.9873    5.7443    0.0433 C   0  0  0  0  0  0  0  0  0  0  0  0
   -6.8077    4.4468    0.5660 C   0  0  0  0  0  0  0  0  0  0  0  0
   -5.6191    3.9684    0.8174 N   0  0  0  0  0  0  0  0  0  0  0  0
   -8.2261    6.2881   -0.4003 C   0  0  0  0  0  0  0  0  0  0  0  0
   -9.2731    5.6143   -0.9622 C   0  0  0  0  0  0  0  0  0  0  0  0
   -9.2136    4.2438   -1.5242 C   0  0  0  0  0  0  0  0  0  0  0  0
   -8.3343    3.4163   -1.4231 O   0  0  0  0  0  0  0  0  0  0  0  0
  -10.4545    4.0949   -2.3197 C   0  0  0  0  0  0  0  0  0  0  0  0
  -10.8506    3.0134   -3.0818 C   0  0  0  0  0  0  0  0  0  0  0  0
  -12.0637    3.1036   -3.7445 C   0  0  0  0  0  0  0  0  0  0  0  0
  -12.4890    2.0771   -4.4923 F   0  0  0  0  0  0  0  0  0  0  0  0
  -12.8466    4.2538   -3.6404 C   0  0  0  0  0  0  0  0  0  0  0  0
  -14.0112    4.3149   -4.2959 F   0  0  0  0  0  0  0  0  0  0  0  0
  -12.4487    5.3397   -2.8749 C   0  0  0  0  0  0  0  0  0  0  0  0
  -11.2370    5.2555   -2.2062 C   0  0  0  0  0  0  0  0  0  0  0  0
  -10.5472    6.2015   -1.3314 C   0  0  0  0  0  0  0  0  0  0  0  0
  -11.0578    7.3919   -0.8860 C   0  0  0  0  0  0  0  0  0  0  0  0
  -10.4269    8.2469    0.0438 C   0  0  0  0  0  0  0  0  0  0  0  0
   -9.9992    8.9845    0.8124 N   0  0  0  0  0  0  0  0  0  0  0  0
  -12.3142    7.9045   -1.2717 C   0  0  0  0  0  0  0  0  0  0  0  0
  -13.3249    8.3705   -1.5521 N   0  0  0  0  0  0  0  0  0  0  0  0
    8.3390   -4.3156   -2.3415 H   0  0  0  0  0  0  0  0  0  0  0  0
    4.7117   -8.4121    0.6866 H   0  0  0  0  0  0  0  0  0  0  0  0
    8.6678   -9.7491   -2.1800 H   0  0  0  0  0  0  0  0  0  0  0  0
    7.8767  -12.2592    0.0116 H   0  0  0  0  0  0  0  0  0  0  0  0
    6.9908  -12.9157   -2.4128 H   0  0  0  0  0  0  0  0  0  0  0  0
    6.4965  -14.9147   -0.7805 H   0  0  0  0  0  0  0  0  0  0  0  0
    4.4106  -14.2550    0.7271 H   0  0  0  0  0  0  0  0  0  0  0  0
    3.6201  -11.8508    0.0227 H   0  0  0  0  0  0  0  0  0  0  0  0
    4.3521  -12.7079   -2.3722 H   0  0  0  0  0  0  0  0  0  0  0  0
    5.0426  -11.0879   -2.1261 H   0  0  0  0  0  0  0  0  0  0  0  0
    5.8305  -11.6143    1.4911 H   0  0  0  0  0  0  0  0  0  0  0  0
    4.6767   -4.1666   -1.6516 H   0  0  0  0  0  0  0  0  0  0  0  0
    2.4322   -3.4559   -1.8317 H   0  0  0  0  0  0  0  0  0  0  0  0
    1.3161   -2.2823   -1.1135 H   0  0  0  0  0  0  0  0  0  0  0  0
    2.0632   -3.0130    1.1746 H   0  0  0  0  0  0  0  0  0  0  0  0
    3.0992   -4.2371    0.4270 H   0  0  0  0  0  0  0  0  0  0  0  0
    1.3410   -4.3329    0.2507 H   0  0  0  0  0  0  0  0  0  0  0  0
    7.3734   -0.0494   -0.8556 H   0  0  0  0  0  0  0  0  0  0  0  0
    8.4673   -2.1707   -1.4617 H   0  0  0  0  0  0  0  0  0  0  0  0
    5.5224    1.9390   -0.1810 H   0  0  0  0  0  0  0  0  0  0  0  0
    3.5059    3.2025    0.3457 H   0  0  0  0  0  0  0  0  0  0  0  0
    1.0777   -0.2863   -0.2199 H   0  0  0  0  0  0  0  0  0  0  0  0
    3.5752    6.1106   -0.6350 H   0  0  0  0  0  0  0  0  0  0  0  0
    5.3008    6.8470    0.9590 H   0  0  0  0  0  0  0  0  0  0  0  0
    5.2030    4.8063    5.3321 H   0  0  0  0  0  0  0  0  0  0  0  0
    6.0276    6.2332    5.9970 H   0  0  0  0  0  0  0  0  0  0  0  0
    4.2867    6.3162    5.6512 H   0  0  0  0  0  0  0  0  0  0  0  0
    3.1915    4.9012    4.1306 H   0  0  0  0  0  0  0  0  0  0  0  0
    1.4756    4.1983    2.5628 H   0  0  0  0  0  0  0  0  0  0  0  0
    1.3719    7.3649   -0.1138 H   0  0  0  0  0  0  0  0  0  0  0  0
    0.5534    8.7435   -1.9389 H   0  0  0  0  0  0  0  0  0  0  0  0
    0.6278    9.9333   -3.9579 H   0  0  0  0  0  0  0  0  0  0  0  0
   -0.8031   10.2792   -4.9532 H   0  0  0  0  0  0  0  0  0  0  0  0
   -1.0104    9.9274   -3.2240 H   0  0  0  0  0  0  0  0  0  0  0  0
   -0.4134    5.2277   -4.1747 H   0  0  0  0  0  0  0  0  0  0  0  0
    0.4478    3.8315   -2.3346 H   0  0  0  0  0  0  0  0  0  0  0  0
   -3.8101    3.4941    3.3658 H   0  0  0  0  0  0  0  0  0  0  0  0
   -5.6552    3.7106    4.9775 H   0  0  0  0  0  0  0  0  0  0  0  0
   -9.7815    1.5624    3.7814 H   0  0  0  0  0  0  0  0  0  0  0  0
  -10.2398    1.4833    5.4965 H   0  0  0  0  0  0  0  0  0  0  0  0
   -9.0953    0.2906    4.8455 H   0  0  0  0  0  0  0  0  0  0  0  0
   -7.7976    0.6237    2.9317 H   0  0  0  0  0  0  0  0  0  0  0  0
   -5.9801    0.4267    1.3239 H   0  0  0  0  0  0  0  0  0  0  0  0
   -3.1840    1.1852   -1.1988 H   0  0  0  0  0  0  0  0  0  0  0  0
   -2.3804   -0.9620   -2.0312 H   0  0  0  0  0  0  0  0  0  0  0  0
   -0.8939   -2.6316   -2.6237 H   0  0  0  0  0  0  0  0  0  0  0  0
   -2.5837   -3.1960   -2.8298 H   0  0  0  0  0  0  0  0  0  0  0  0
   -1.2576   -4.3688   -2.6768 H   0  0  0  0  0  0  0  0  0  0  0  0
   -2.7348   -2.6104    1.9020 H   0  0  0  0  0  0  0  0  0  0  0  0
   -3.5500   -0.4357    2.7362 H   0  0  0  0  0  0  0  0  0  0  0  0
   -3.9459    6.8418    0.4103 H   0  0  0  0  0  0  0  0  0  0  0  0
   -7.6395    3.8126    0.8304 H   0  0  0  0  0  0  0  0  0  0  0  0
   -8.2899    7.3650   -0.3052 H   0  0  0  0  0  0  0  0  0  0  0  0
  -10.2407    2.1277   -3.1609 H   0  0  0  0  0  0  0  0  0  0  0  0
  -13.0867    6.2069   -2.8305 H   0  0  0  0  0  0  0  0  0  0  0  0
  1  2  2  0  0  0  0
  2  3  1  0  0  0  0
  3  4  2  0  0  0  0
  3  5  1  0  0  0  0
  5  6  2  0  0  0  0
  6  7  1  0  0  0  0
  7  8  2  0  0  0  0
  8  9  1  0  0  0  0
  9 10  2  0  0  0  0
 10 11  1  0  0  0  0
 11 12  2  0  0  0  0
 12 13  1  0  0  0  0
 13 14  3  0  0  0  0
 12 15  1  0  0  0  0
 15 16  3  0  0  0  0
  8 17  1  0  0  0  0
 17 18  1  0  0  0  0
 18 19  1  0  0  0  0
 19 20  2  0  0  0  0
 20 21  1  0  0  0  0
 21 22  1  0  0  0  0
 21 23  1  0  0  0  0
  1 24  1  0  0  0  0
 24 25  2  0  0  0  0
 25 26  1  0  0  0  0
 26 27  1  0  0  0  0
 27 28  1  0  0  0  0
 28 29  1  0  0  0  0
 27 30  1  0  0  0  0
 30 31  2  0  0  0  0
 31 32  1  0  0  0  0
 32 33  1  0  0  0  0
 33 34  2  0  0  0  0
 31 35  1  0  0  0  0
 35 36  2  0  0  0  0
 36 37  1  0  0  0  0
 37 38  2  0  0  0  0
 37 39  1  0  0  0  0
 39 40  2  0  0  0  0
 40 41  1  0  0  0  0
 41 42  1  0  0  0  0
 42 43  2  0  0  0  0
 43 44  1  0  0  0  0
 44 45  2  0  0  0  0
 45 46  1  0  0  0  0
 46 47  1  0  0  0  0
 45 48  1  0  0  0  0
 48 49  2  0  0  0  0
 41 50  1  0  0  0  0
 50 51  2  0  0  0  0
 51 52  1  0  0  0  0
 52 53  2  0  0  0  0
 53 54  1  0  0  0  0
 54 55  1  0  0  0  0
 53 56  1  0  0  0  0
 56 57  2  0  0  0  0
 40 58  1  0  0  0  0
 58 59  1  0  0  0  0
 59 60  1  0  0  0  0
 60 61  2  0  0  0  0
 61 62  1  0  0  0  0
 62 63  1  0  0  0  0
 63 64  2  0  0  0  0
 64 65  1  0  0  0  0
 65 66  2  0  0  0  0
 66 67  1  0  0  0  0
 67 68  1  0  0  0  0
 66 69  1  0  0  0  0
 69 70  2  0  0  0  0
 62 71  1  0  0  0  0
 71 72  2  0  0  0  0
 72 73  1  0  0  0  0
 73 74  2  0  0  0  0
 74 75  1  0  0  0  0
 75 76  1  0  0  0  0
 74 77  1  0  0  0  0
 77 78  2  0  0  0  0
 61 79  1  0  0  0  0
 79 80  1  0  0  0  0
 60 81  1  0  0  0  0
 81 82  2  0  0  0  0
 82 83  1  0  0  0  0
 83 84  2  0  0  0  0
 84 85  1  0  0  0  0
 85 86  2  0  0  0  0
 84 87  1  0  0  0  0
 87 88  2  0  0  0  0
 88 89  1  0  0  0  0
 89 90  2  0  0  0  0
 89 91  1  0  0  0  0
 91 92  2  0  0  0  0
 92 93  1  0  0  0  0
 93 94  1  0  0  0  0
 93 95  2  0  0  0  0
 95 96  1  0  0  0  0
 95 97  1  0  0  0  0
 97 98  2  0  0  0  0
 98 99  1  0  0  0  0
 99100  2  0  0  0  0
100101  1  0  0  0  0
101102  3  0  0  0  0
100103  1  0  0  0  0
103104  3  0  0  0  0
 11  2  1  0  0  0  0
 23 17  1  0  0  0  0
 34 24  1  0  0  0  0
 80 39  1  0  0  0  0
 86 81  1  0  0  0  0
 99 88  1  0  0  0  0
 10  5  1  0  0  0  0
 22 18  1  0  0  0  0
 32 26  2  0  0  0  0
 49 42  1  0  0  0  0
 57 50  1  0  0  0  0
 79 58  2  0  0  0  0
 98 91  1  0  0  0  0
 23  7  1  0  0  0  0
 38 30  1  0  0  0  0
 70 63  1  0  0  0  0
 78 71  1  0  0  0  0
  1105  1  0  0  0  0
  6106  1  0  0  0  0
  9107  1  0  0  0  0
 17108  1  0  0  0  0
 18109  1  0  0  0  0
 19110  1  0  0  0  0
 20111  1  0  0  0  0
 21112  1  0  0  0  0
 22113  1  0  0  0  0
 22114  1  0  0  0  0
 23115  1  0  0  0  0
 25116  1  0  0  0  0
 28117  1  0  0  0  0
 28118  1  0  0  0  0
 29119  1  0  0  0  0
 29120  1  0  0  0  0
 29121  1  0  0  0  0
 33122  1  0  0  0  0
 34123  1  0  0  0  0
 35124  1  0  0  0  0
 36125  1  0  0  0  0
 38126  1  0  0  0  0
 43127  1  0  0  0  0
 44128  1  0  0  0  0
 47129  1  0  0  0  0
 47130  1  0  0  0  0
 47131  1  0  0  0  0
 48132  1  0  0  0  0
 49133  1  0  0  0  0
 51134  1  0  0  0  0
 52135  1  0  0  0  0
 55136  1  0  0  0  0
 55137  1  0  0  0  0
 55138  1  0  0  0  0
 56139  1  0  0  0  0
 57140  1  0  0  0  0
 64141  1  0  0  0  0
 65142  1  0  0  0  0
 68143  1  0  0  0  0
 68144  1  0  0  0  0
 68145  1  0  0  0  0
 69146  1  0  0  0  0
 70147  1  0  0  0  0
 72148  1  0  0  0  0
 73149  1  0  0  0  0
 76150  1  0  0  0  0
 76151  1  0  0  0  0
 76152  1  0  0  0  0
 77153  1  0  0  0  0
 78154  1  0  0  0  0
 82155  1  0  0  0  0
 85156  1  0  0  0  0
 87157  1  0  0  0  0
 92158  1  0  0  0  0
 97159  1  0  0  0  0
M  END
