193

C         -9.87200       -0.08760        5.65900
C        -10.00410       -1.31020        6.24370
C         -8.96360       -2.34970        6.46380
O         -7.83810       -2.41560        6.01340
C         -9.54940       -3.30970        7.41610
C         -8.91770       -4.43400        7.94580
C         -9.69860       -5.15600        8.81410
C        -11.01030       -4.78330        9.14050
C        -11.64580       -3.68080        8.62210
C        -10.87000       -2.93440        7.72750
C        -11.19660       -1.72990        6.97290
C        -12.43460       -1.14720        6.91130
C        -13.56460       -1.59610        7.62790
N        -14.52270       -1.89410        8.18600
C        -12.79050       -0.03910        6.11160
N        -13.18380        0.83750        5.48210
C        -11.19280       -5.95060       10.07860
C        -11.08900       -5.64750       11.58850
C        -10.82880       -7.00030       12.21110
C         -9.58990       -7.35750       11.89760
C         -8.99160       -6.25180       11.05820
C         -9.68490       -5.03710       11.68850
C         -9.73330       -6.36900        9.70980
C         -8.79020        0.47710        4.90410
C         -7.86380       -0.29570        4.20100
C         -6.82030        0.34650        3.56420
N         -5.76670       -0.20020        2.87470
C         -5.48890       -1.61240        2.80460
C         -6.20470       -2.28710        1.63810
C         -4.97160        0.81810        2.42090
C         -5.50910        2.06280        2.84650
C         -6.70010        1.75990        3.57310
C         -7.66420        2.52790        4.22450
C         -8.69240        1.88820        4.87090
C         -4.83550        3.24600        2.55970
C         -3.66980        3.18460        1.83370
C         -3.17600        1.96180        1.35010
C         -3.81490        0.76610        1.66080
C         -2.00560        1.95460        0.48800
C         -1.84320        1.30310       -0.71910
N         -2.79970        0.55910       -1.39560
C         -2.35100       -0.47400       -2.23710
C         -2.85160       -0.60600       -3.52850
C         -2.33430       -1.55380       -4.38980
C         -1.30130       -2.38400       -3.97390
S         -0.50910       -3.57470       -5.00850
C         -1.14690       -3.19850       -6.66640
C         -0.83710       -2.29450       -2.66410
C         -1.35860       -1.35430       -1.80350
C         -4.16260        0.84340       -1.27970
C         -5.09740       -0.19180       -1.31080
C         -6.42440        0.06250       -1.04340
C         -6.84690        1.34980       -0.72420
S         -8.53460        1.54250       -0.24070
C         -8.53760        3.15020        0.60180
C         -5.94090        2.39850       -0.79830
C         -4.61530        2.14670       -1.08600
C         -0.53890        1.51830       -1.23230
S          0.28970        0.98340       -2.64440
C          1.76520        1.79070       -2.12410
C          1.57910        2.52410       -0.95280
N          2.49980        3.31470       -0.29020
C          2.43190        3.31620        1.11890
C          2.37410        2.10540        1.80800
C          2.26900        2.09470        3.18010
C          2.22580        3.29130        3.89420
S          2.07930        3.14940        5.64530
C          1.96250        4.86750        6.21930
C          2.29970        4.49830        3.21100
C          2.39820        4.50830        1.83340
C          3.39830        4.15790       -0.94050
C          4.58830        4.53130       -0.30710
C          5.50880        5.31770       -0.96110
C          5.27920        5.73430       -2.26920
S          6.53870        6.70150       -3.04500
C          6.28520        6.34320       -4.80780
C          4.08560        5.39760       -2.89200
C          3.15160        4.62440       -2.23150
C          0.26400        2.33100       -0.45150
S         -0.59530        2.89360        0.94270
C          2.92510        1.47320       -2.88000
C          4.23980        1.81290       -2.71210
C          5.10990        1.18930       -3.63170
C          6.50740        1.31620       -3.70990
C          7.23450        2.19570       -2.80850
S          8.27930        3.43570       -3.43260
C          8.70390        3.98960       -1.85020
C          9.66280        5.11210       -1.66630
C         11.06280        4.72460       -2.14380
C          8.06840        3.24280       -0.90500
Cl         8.23270        3.48580        0.78720
C          7.23040        2.23000       -1.44290
Cl         6.37330        1.12570       -0.44490
C          7.15720        0.57660       -4.68850
C          6.47140       -0.31210       -5.56240
C          5.06100       -0.43680       -5.49360
C          4.29850       -1.34280       -6.32420
C          3.06590       -1.12900       -6.87970
C          2.55310       -2.25540       -7.54700
C          3.37550       -3.33980       -7.49370
C          3.12100       -4.71550       -8.00270
C          2.63840       -5.62780       -6.87140
S          4.82870       -2.97400       -6.62910
C          4.42530        0.34140       -4.53980
S          2.71260        0.36240       -4.22650
C          7.36290       -0.95300       -6.43000
C          8.69170       -0.60640       -6.24020
S          8.87480        0.57070       -4.95390
C          9.71690       -1.17920       -7.01420
C         11.07390       -0.99520       -6.97690
C         11.80400       -0.08750       -6.07550
O         11.34540        0.65600       -5.23010
C         13.23160       -0.25270       -6.40550
C         14.32830        0.37070       -5.84150
C         15.58970        0.04960       -6.31640
C         15.72490       -0.88210       -7.33940
Cl        17.30100       -1.26950       -7.91690
C         14.62820       -1.51570       -7.91620
C         13.36830       -1.19380       -7.44020
C         12.03810       -1.67220       -7.82240
C         11.78720       -2.59410       -8.80580
C         12.78640       -3.21100       -9.58860
N         13.54140       -3.75040      -10.26440
C         10.51770       -3.07130       -9.19450
N          9.53090       -3.51470       -9.58190
H        -10.68440        0.60980        5.83020
H         -7.90550       -4.68210        7.66680
H        -12.65520       -3.41010        8.88240
H        -12.00770       -6.63010        9.83660
H        -11.91620       -5.07240       11.99520
H        -11.56690       -7.56440       12.75030
H         -9.08640       -8.27940       12.12240
H         -7.90790       -6.22700       10.98160
H         -9.56070       -4.11370       11.12580
H         -9.37800       -4.87820       12.72090
H         -9.57510       -7.32700        9.21800
H         -7.96830       -1.36400        4.15430
H         -4.40840       -1.74520        2.70870
H         -5.80640       -2.06440        3.74910
H         -5.84550       -1.88700        0.69440
H         -6.02160       -3.35810        1.66140
H         -7.27630       -2.11380        1.70080
H         -7.59900        3.60590        4.22280
H         -9.44020        2.46910        5.39050
H         -5.22330        4.19360        2.90290
H         -3.12900        4.08860        1.59540
H         -3.41050       -0.17120        1.31130
H         -3.63880        0.05370       -3.86290
H         -2.73500       -1.62040       -5.38830
H         -2.20560       -3.43410       -6.72670
H         -0.59180       -3.83810       -7.34580
H         -0.95960       -2.15430       -6.89890
H         -0.05380       -2.96060       -2.33700
H         -0.98430       -1.27990       -0.79280
H         -4.76790       -1.19940       -1.52040
H         -7.14840       -0.73790       -1.04840
H         -8.48870        3.95800       -0.12320
H         -7.70510        3.19000        1.29750
H         -9.47760        3.19830        1.14290
H         -6.25410        3.41600       -0.62980
H         -3.91880        2.96890       -1.14390
H          2.41170        1.17760        1.25640
H          2.22180        1.16060        3.71820
H          2.87910        5.40230        5.98840
H          1.09790        5.34870        5.77190
H          1.83440        4.80610        7.29550
H          2.27240        5.43920        3.73590
H          2.44340        5.44880        1.30430
H          4.79870        4.17750        0.69050
H          6.42650        5.60240       -0.47140
H          6.15470        5.27320       -4.93780
H          5.43260        6.89700       -5.19000
H          7.18960        6.67010       -5.31090
H          3.86910        5.73780       -3.89220
H          2.22400        4.37470       -2.72340
H          4.59540        2.46690       -1.94400
H          9.68920        5.37660       -0.60800
H          9.31130        5.97950       -2.23010
H         11.74570        5.56030       -2.01620
H         11.03880        4.44690       -3.19480
H         11.43640        3.87820       -1.57270
H          2.55890       -0.18170       -6.84100
H          1.60430       -2.26260       -8.05330
H          4.03510       -5.12880       -8.43400
H          2.36190       -4.66790       -8.78670
H          3.40750       -5.71710       -6.10800
H          2.41390       -6.61930       -7.25610
H          1.74300       -5.21960       -6.40710
H          7.06430       -1.65550       -7.18760
H          9.34190       -1.88670       -7.74400
H         14.19340        1.08920       -5.04800
H         16.46940        0.51450       -5.90040
H         14.78030       -2.23140       -8.70670
