
  xtb     02122220423D
 energy: -284.500163049133 gnorm: 0.000918407059 xtb: 6.4.1 (unknown)
165181  0     0  0            999 V2000
    2.5226   -1.6049    6.2847 C   0  0  0  0  0  0  0  0  0  0  0  0
    3.5599   -2.3995    5.8853 C   0  0  0  0  0  0  0  0  0  0  0  0
    3.9888   -2.6185    4.4965 C   0  0  0  0  0  0  0  0  0  0  0  0
    3.4450   -2.2180    3.4824 O   0  0  0  0  0  0  0  0  0  0  0  0
    5.2199   -3.4214    4.5656 C   0  0  0  0  0  0  0  0  0  0  0  0
    6.0131   -3.8329    3.4961 C   0  0  0  0  0  0  0  0  0  0  0  0
    7.1214   -4.5550    3.8677 C   0  0  0  0  0  0  0  0  0  0  0  0
    7.4216   -4.8438    5.2060 C   0  0  0  0  0  0  0  0  0  0  0  0
    6.6476   -4.4453    6.2697 C   0  0  0  0  0  0  0  0  0  0  0  0
    5.5104   -3.7126    5.9141 C   0  0  0  0  0  0  0  0  0  0  0  0
    4.4710   -3.1229    6.7554 C   0  0  0  0  0  0  0  0  0  0  0  0
    4.3778   -3.2634    8.1153 C   0  0  0  0  0  0  0  0  0  0  0  0
    3.3615   -2.7242    8.9324 C   0  0  0  0  0  0  0  0  0  0  0  0
    2.5734   -2.3297    9.6694 N   0  0  0  0  0  0  0  0  0  0  0  0
    5.2867   -3.9963    8.9079 C   0  0  0  0  0  0  0  0  0  0  0  0
    5.9784   -4.5763    9.6172 N   0  0  0  0  0  0  0  0  0  0  0  0
    8.6784   -5.5958    4.8455 C   0  0  0  0  0  0  0  0  0  0  0  0
    8.5979   -7.1363    4.8917 C   0  0  0  0  0  0  0  0  0  0  0  0
    9.7712   -7.5848    4.0505 C   0  0  0  0  0  0  0  0  0  0  0  0
    9.4865   -7.3130    2.7833 C   0  0  0  0  0  0  0  0  0  0  0  0
    8.1157   -6.6766    2.7466 C   0  0  0  0  0  0  0  0  0  0  0  0
    7.4496   -7.4169    3.9137 C   0  0  0  0  0  0  0  0  0  0  0  0
    8.3428   -5.2755    3.3534 C   0  0  0  0  0  0  0  0  0  0  0  0
    1.6207   -0.8370    5.5225 C   0  0  0  0  0  0  0  0  0  0  0  0
    0.6803   -0.0014    6.1084 C   0  0  0  0  0  0  0  0  0  0  0  0
   -0.1059    0.7221    5.2056 C   0  0  0  0  0  0  0  0  0  0  0  0
   -1.0458    1.7583    5.6342 C   0  0  0  0  0  0  0  0  0  0  0  0
   -1.1938    2.9331    4.9001 C   0  0  0  0  0  0  0  0  0  0  0  0
   -1.9965    3.9554    5.3685 C   0  0  0  0  0  0  0  0  0  0  0  0
   -2.6619    3.8221    6.5756 C   0  0  0  0  0  0  0  0  0  0  0  0
   -2.5344    2.6517    7.3051 C   0  0  0  0  0  0  0  0  0  0  0  0
   -1.7347    1.6265    6.8380 C   0  0  0  0  0  0  0  0  0  0  0  0
    0.2254    0.4073    3.8953 C   0  0  0  0  0  0  0  0  0  0  0  0
    1.5133   -0.7453    3.7862 S   0  0  0  0  0  0  0  0  0  0  0  0
   -0.3618    0.8541    2.6538 C   0  0  0  0  0  0  0  0  0  0  0  0
   -1.5484    0.4435    2.0941 C   0  0  0  0  0  0  0  0  0  0  0  0
   -2.4357   -0.4700    2.6703 N   0  0  0  0  0  0  0  0  0  0  0  0
   -3.2043   -0.0852    3.7767 C   0  0  0  0  0  0  0  0  0  0  0  0
   -3.5052   -1.0077    4.7774 C   0  0  0  0  0  0  0  0  0  0  0  0
   -4.2842   -0.6336    5.8489 C   0  0  0  0  0  0  0  0  0  0  0  0
   -4.7844    0.6642    5.9410 C   0  0  0  0  0  0  0  0  0  0  0  0
   -5.7721    1.0265    7.3581 S   0  0  0  0  0  0  0  0  0  0  0  0
   -6.3811    2.7080    7.0488 C   0  0  0  0  0  0  0  0  0  0  0  0
   -4.4817    1.5862    4.9501 C   0  0  0  0  0  0  0  0  0  0  0  0
   -3.6898    1.2136    3.8821 C   0  0  0  0  0  0  0  0  0  0  0  0
   -2.8007   -1.5535    1.8650 C   0  0  0  0  0  0  0  0  0  0  0  0
   -1.8503   -2.1194    1.0105 C   0  0  0  0  0  0  0  0  0  0  0  0
   -2.2067   -3.1155    0.1318 C   0  0  0  0  0  0  0  0  0  0  0  0
   -3.5153   -3.5894    0.0968 C   0  0  0  0  0  0  0  0  0  0  0  0
   -3.8668   -4.8413   -1.1045 S   0  0  0  0  0  0  0  0  0  0  0  0
   -5.6696   -5.0301   -1.0252 C   0  0  0  0  0  0  0  0  0  0  0  0
   -4.4501   -3.0731    0.9813 C   0  0  0  0  0  0  0  0  0  0  0  0
   -4.0971   -2.0597    1.8522 C   0  0  0  0  0  0  0  0  0  0  0  0
   -1.6963    0.9390    0.7732 C   0  0  0  0  0  0  0  0  0  0  0  0
   -2.8921    0.7138   -0.4505 S   0  0  0  0  0  0  0  0  0  0  0  0
   -1.9375    1.6629   -1.5661 C   0  0  0  0  0  0  0  0  0  0  0  0
   -0.7344    2.0864   -1.0287 C   0  0  0  0  0  0  0  0  0  0  0  0
    0.2782    2.6917   -1.7637 N   0  0  0  0  0  0  0  0  0  0  0  0
    1.0987    3.6502   -1.1688 C   0  0  0  0  0  0  0  0  0  0  0  0
    0.6037    4.4896   -0.1684 C   0  0  0  0  0  0  0  0  0  0  0  0
    1.4209    5.4221    0.4292 C   0  0  0  0  0  0  0  0  0  0  0  0
    2.7515    5.5524    0.0396 C   0  0  0  0  0  0  0  0  0  0  0  0
    3.6970    6.7876    0.8760 S   0  0  0  0  0  0  0  0  0  0  0  0
    5.3364    6.6835    0.1047 C   0  0  0  0  0  0  0  0  0  0  0  0
    3.2487    4.7258   -0.9587 C   0  0  0  0  0  0  0  0  0  0  0  0
    2.4322    3.7827   -1.5503 C   0  0  0  0  0  0  0  0  0  0  0  0
    0.5474    2.1899   -3.0494 C   0  0  0  0  0  0  0  0  0  0  0  0
    0.5071    0.8178   -3.2830 C   0  0  0  0  0  0  0  0  0  0  0  0
    0.6553    0.3136   -4.5592 C   0  0  0  0  0  0  0  0  0  0  0  0
    0.8396    1.1776   -5.6291 C   0  0  0  0  0  0  0  0  0  0  0  0
    0.9505    0.6369   -7.3065 S   0  0  0  0  0  0  0  0  0  0  0  0
    0.2976   -1.0586   -7.2585 C   0  0  0  0  0  0  0  0  0  0  0  0
    0.9510    2.5465   -5.3931 C   0  0  0  0  0  0  0  0  0  0  0  0
    0.8130    3.0477   -4.1164 C   0  0  0  0  0  0  0  0  0  0  0  0
   -0.6237    1.6907    0.3289 C   0  0  0  0  0  0  0  0  0  0  0  0
    0.5874    1.8479    1.5549 S   0  0  0  0  0  0  0  0  0  0  0  0
   -2.3102    1.7296   -2.9667 C   0  0  0  0  0  0  0  0  0  0  0  0
   -2.4985    0.5089   -3.6442 C   0  0  0  0  0  0  0  0  0  0  0  0
   -2.5118   -0.7407   -3.1628 N   0  0  0  0  0  0  0  0  0  0  0  0
   -2.5285   -1.4899   -4.2273 N   0  0  0  0  0  0  0  0  0  0  0  0
   -2.5508   -2.9208   -4.1337 C   0  0  0  0  0  0  0  0  0  0  0  0
   -1.1349   -3.4791   -4.0328 C   0  0  0  0  0  0  0  0  0  0  0  0
   -2.5034   -0.8730   -5.3795 N   0  0  0  0  0  0  0  0  0  0  0  0
   -2.5140    0.4283   -5.0623 C   0  0  0  0  0  0  0  0  0  0  0  0
   -2.4050    1.5980   -5.8452 C   0  0  0  0  0  0  0  0  0  0  0  0
   -2.3388    2.8252   -5.1555 C   0  0  0  0  0  0  0  0  0  0  0  0
   -2.3111    2.8889   -3.7331 C   0  0  0  0  0  0  0  0  0  0  0  0
   -2.2590    4.1390   -3.1707 O   0  0  0  0  0  0  0  0  0  0  0  0
   -2.9606    4.3588   -1.9657 C   0  0  0  0  0  0  0  0  0  0  0  0
   -2.3240    3.8915   -5.9794 O   0  0  0  0  0  0  0  0  0  0  0  0
   -1.9399    5.1899   -5.5771 C   0  0  0  0  0  0  0  0  0  0  0  0
   -2.1877    1.6067   -7.2533 C   0  0  0  0  0  0  0  0  0  0  0  0
   -2.5462    0.6731   -8.1738 C   0  0  0  0  0  0  0  0  0  0  0  0
   -3.5592   -0.4044   -8.0008 C   0  0  0  0  0  0  0  0  0  0  0  0
   -4.3597   -0.5456   -7.1052 O   0  0  0  0  0  0  0  0  0  0  0  0
   -3.4544   -1.1774   -9.2433 C   0  0  0  0  0  0  0  0  0  0  0  0
   -4.1956   -2.5804   -9.8848 S   0  0  0  0  0  0  0  0  0  0  0  0
   -3.2887   -2.3728  -11.3607 C   0  0  0  0  0  0  0  0  0  0  0  0
   -3.4716   -3.4848  -12.6387 Cl  0  0  0  0  0  0  0  0  0  0  0  0
   -2.4704   -1.2778  -11.3573 C   0  0  0  0  0  0  0  0  0  0  0  0
   -2.5698   -0.5882  -10.1337 C   0  0  0  0  0  0  0  0  0  0  0  0
   -2.0070    0.6018   -9.5231 C   0  0  0  0  0  0  0  0  0  0  0  0
   -1.1127    1.4440  -10.1278 C   0  0  0  0  0  0  0  0  0  0  0  0
   -0.5699    2.6250   -9.5800 C   0  0  0  0  0  0  0  0  0  0  0  0
   -0.1035    3.6162   -9.2349 N   0  0  0  0  0  0  0  0  0  0  0  0
   -0.6479    1.2076  -11.4388 C   0  0  0  0  0  0  0  0  0  0  0  0
   -0.2528    1.0279  -12.5012 N   0  0  0  0  0  0  0  0  0  0  0  0
    2.3564   -1.5089    7.3510 H   0  0  0  0  0  0  0  0  0  0  0  0
    5.7484   -3.5798    2.4814 H   0  0  0  0  0  0  0  0  0  0  0  0
    6.8989   -4.6696    7.2925 H   0  0  0  0  0  0  0  0  0  0  0  0
    9.6021   -5.2048    5.2677 H   0  0  0  0  0  0  0  0  0  0  0  0
    8.5212   -7.5579    5.8900 H   0  0  0  0  0  0  0  0  0  0  0  0
   10.6802   -7.9889    4.4557 H   0  0  0  0  0  0  0  0  0  0  0  0
   10.1101   -7.4445    1.9187 H   0  0  0  0  0  0  0  0  0  0  0  0
    7.5997   -6.6806    1.7902 H   0  0  0  0  0  0  0  0  0  0  0  0
    7.3315   -8.4802    3.7123 H   0  0  0  0  0  0  0  0  0  0  0  0
    6.4934   -6.9959    4.2190 H   0  0  0  0  0  0  0  0  0  0  0  0
    9.0435   -4.6718    2.7796 H   0  0  0  0  0  0  0  0  0  0  0  0
    0.6062    0.1059    7.1764 H   0  0  0  0  0  0  0  0  0  0  0  0
   -0.6514    3.0580    3.9750 H   0  0  0  0  0  0  0  0  0  0  0  0
   -2.0930    4.8664    4.7956 H   0  0  0  0  0  0  0  0  0  0  0  0
   -3.2709    4.6335    6.9487 H   0  0  0  0  0  0  0  0  0  0  0  0
   -3.0558    2.5361    8.2439 H   0  0  0  0  0  0  0  0  0  0  0  0
   -1.6520    0.7122    7.4056 H   0  0  0  0  0  0  0  0  0  0  0  0
   -3.1266   -2.0158    4.7006 H   0  0  0  0  0  0  0  0  0  0  0  0
   -4.5179   -1.3416    6.6293 H   0  0  0  0  0  0  0  0  0  0  0  0
   -7.0361    2.9398    7.8830 H   0  0  0  0  0  0  0  0  0  0  0  0
   -6.9436    2.7314    6.1201 H   0  0  0  0  0  0  0  0  0  0  0  0
   -5.5499    3.4062    7.0251 H   0  0  0  0  0  0  0  0  0  0  0  0
   -4.8554    2.5958    4.9918 H   0  0  0  0  0  0  0  0  0  0  0  0
   -3.4604    1.9328    3.1097 H   0  0  0  0  0  0  0  0  0  0  0  0
   -0.8310   -1.7639    1.0338 H   0  0  0  0  0  0  0  0  0  0  0  0
   -1.4753   -3.5400   -0.5384 H   0  0  0  0  0  0  0  0  0  0  0  0
   -6.1471   -4.0702   -1.1986 H   0  0  0  0  0  0  0  0  0  0  0  0
   -5.9599   -5.4490   -0.0659 H   0  0  0  0  0  0  0  0  0  0  0  0
   -5.9278   -5.7221   -1.8208 H   0  0  0  0  0  0  0  0  0  0  0  0
   -5.4659   -3.4343    0.9943 H   0  0  0  0  0  0  0  0  0  0  0  0
   -4.8421   -1.6439    2.5138 H   0  0  0  0  0  0  0  0  0  0  0  0
   -0.4284    4.4144    0.1394 H   0  0  0  0  0  0  0  0  0  0  0  0
    1.0354    6.0672    1.2037 H   0  0  0  0  0  0  0  0  0  0  0  0
    5.7683    5.7025    0.2795 H   0  0  0  0  0  0  0  0  0  0  0  0
    5.2622    6.9006   -0.9569 H   0  0  0  0  0  0  0  0  0  0  0  0
    5.9375    7.4431    0.5947 H   0  0  0  0  0  0  0  0  0  0  0  0
    4.2751    4.7948   -1.2810 H   0  0  0  0  0  0  0  0  0  0  0  0
    2.8362    3.1337   -2.3127 H   0  0  0  0  0  0  0  0  0  0  0  0
    0.3422    0.1404   -2.4577 H   0  0  0  0  0  0  0  0  0  0  0  0
    0.6195   -0.7536   -4.7073 H   0  0  0  0  0  0  0  0  0  0  0  0
    0.1910   -1.3582   -8.2971 H   0  0  0  0  0  0  0  0  0  0  0  0
    1.0058   -1.7179   -6.7642 H   0  0  0  0  0  0  0  0  0  0  0  0
   -0.6738   -1.0656   -6.7680 H   0  0  0  0  0  0  0  0  0  0  0  0
    1.1230    3.2089   -6.2279 H   0  0  0  0  0  0  0  0  0  0  0  0
    0.8867    4.1098   -3.9350 H   0  0  0  0  0  0  0  0  0  0  0  0
   -3.0543   -3.2992   -5.0245 H   0  0  0  0  0  0  0  0  0  0  0  0
   -3.1164   -3.1849   -3.2378 H   0  0  0  0  0  0  0  0  0  0  0  0
   -0.5754   -3.2714   -4.9421 H   0  0  0  0  0  0  0  0  0  0  0  0
   -0.6193   -3.0319   -3.1862 H   0  0  0  0  0  0  0  0  0  0  0  0
   -1.1783   -4.5542   -3.8852 H   0  0  0  0  0  0  0  0  0  0  0  0
   -2.3353    4.1608   -1.0923 H   0  0  0  0  0  0  0  0  0  0  0  0
   -3.8606    3.7418   -1.9081 H   0  0  0  0  0  0  0  0  0  0  0  0
   -3.2387    5.4134   -1.9718 H   0  0  0  0  0  0  0  0  0  0  0  0
   -1.7456    5.7210   -6.5095 H   0  0  0  0  0  0  0  0  0  0  0  0
   -1.0375    5.1744   -4.9672 H   0  0  0  0  0  0  0  0  0  0  0  0
   -2.7402    5.6936   -5.0312 H   0  0  0  0  0  0  0  0  0  0  0  0
   -1.6243    2.4640   -7.5992 H   0  0  0  0  0  0  0  0  0  0  0  0
   -1.8474   -0.9979  -12.1860 H   0  0  0  0  0  0  0  0  0  0  0  0
  1  2  2  0  0  0  0
  2  3  1  0  0  0  0
  3  4  2  0  0  0  0
  3  5  1  0  0  0  0
  5  6  2  0  0  0  0
  6  7  1  0  0  0  0
  7  8  2  0  0  0  0
  8  9  1  0  0  0  0
  9 10  2  0  0  0  0
 10 11  1  0  0  0  0
 11 12  2  0  0  0  0
 12 13  1  0  0  0  0
 13 14  3  0  0  0  0
 12 15  1  0  0  0  0
 15 16  3  0  0  0  0
  8 17  1  0  0  0  0
 17 18  1  0  0  0  0
 18 19  1  0  0  0  0
 19 20  2  0  0  0  0
 20 21  1  0  0  0  0
 21 22  1  0  0  0  0
 21 23  1  0  0  0  0
  1 24  1  0  0  0  0
 24 25  2  0  0  0  0
 25 26  1  0  0  0  0
 26 27  1  0  0  0  0
 27 28  2  0  0  0  0
 28 29  1  0  0  0  0
 29 30  2  0  0  0  0
 30 31  1  0  0  0  0
 31 32  2  0  0  0  0
 26 33  2  0  0  0  0
 33 34  1  0  0  0  0
 33 35  1  0  0  0  0
 35 36  2  0  0  0  0
 36 37  1  0  0  0  0
 37 38  1  0  0  0  0
 38 39  2  0  0  0  0
 39 40  1  0  0  0  0
 40 41  2  0  0  0  0
 41 42  1  0  0  0  0
 42 43  1  0  0  0  0
 41 44  1  0  0  0  0
 44 45  2  0  0  0  0
 37 46  1  0  0  0  0
 46 47  2  0  0  0  0
 47 48  1  0  0  0  0
 48 49  2  0  0  0  0
 49 50  1  0  0  0  0
 50 51  1  0  0  0  0
 49 52  1  0  0  0  0
 52 53  2  0  0  0  0
 36 54  1  0  0  0  0
 54 55  1  0  0  0  0
 55 56  1  0  0  0  0
 56 57  2  0  0  0  0
 57 58  1  0  0  0  0
 58 59  1  0  0  0  0
 59 60  2  0  0  0  0
 60 61  1  0  0  0  0
 61 62  2  0  0  0  0
 62 63  1  0  0  0  0
 63 64  1  0  0  0  0
 62 65  1  0  0  0  0
 65 66  2  0  0  0  0
 58 67  1  0  0  0  0
 67 68  2  0  0  0  0
 68 69  1  0  0  0  0
 69 70  2  0  0  0  0
 70 71  1  0  0  0  0
 71 72  1  0  0  0  0
 70 73  1  0  0  0  0
 73 74  2  0  0  0  0
 57 75  1  0  0  0  0
 75 76  1  0  0  0  0
 56 77  1  0  0  0  0
 77 78  1  0  0  0  0
 78 79  2  0  0  0  0
 79 80  1  0  0  0  0
 80 81  1  0  0  0  0
 81 82  1  0  0  0  0
 80 83  1  0  0  0  0
 83 84  2  0  0  0  0
 84 85  1  0  0  0  0
 85 86  2  0  0  0  0
 86 87  1  0  0  0  0
 87 88  1  0  0  0  0
 88 89  1  0  0  0  0
 86 90  1  0  0  0  0
 90 91  1  0  0  0  0
 85 92  1  0  0  0  0
 92 93  2  0  0  0  0
 93 94  1  0  0  0  0
 94 95  2  0  0  0  0
 94 96  1  0  0  0  0
 96 97  1  0  0  0  0
 97 98  1  0  0  0  0
 98 99  1  0  0  0  0
 98100  2  0  0  0  0
100101  1  0  0  0  0
101102  1  0  0  0  0
102103  2  0  0  0  0
103104  1  0  0  0  0
104105  3  0  0  0  0
103106  1  0  0  0  0
106107  3  0  0  0  0
 11  2  1  0  0  0  0
 23 17  1  0  0  0  0
 34 24  1  0  0  0  0
 76 35  1  0  0  0  0
 87 77  2  0  0  0  0
102 93  1  0  0  0  0
 10  5  1  0  0  0  0
 22 18  1  0  0  0  0
 32 27  1  0  0  0  0
 45 38  1  0  0  0  0
 53 46  1  0  0  0  0
 75 54  2  0  0  0  0
 84 78  1  0  0  0  0
101 96  2  0  0  0  0
 23  7  1  0  0  0  0
 66 59  1  0  0  0  0
 74 67  1  0  0  0  0
  1108  1  0  0  0  0
  6109  1  0  0  0  0
  9110  1  0  0  0  0
 17111  1  0  0  0  0
 18112  1  0  0  0  0
 19113  1  0  0  0  0
 20114  1  0  0  0  0
 21115  1  0  0  0  0
 22116  1  0  0  0  0
 22117  1  0  0  0  0
 23118  1  0  0  0  0
 25119  1  0  0  0  0
 28120  1  0  0  0  0
 29121  1  0  0  0  0
 30122  1  0  0  0  0
 31123  1  0  0  0  0
 32124  1  0  0  0  0
 39125  1  0  0  0  0
 40126  1  0  0  0  0
 43127  1  0  0  0  0
 43128  1  0  0  0  0
 43129  1  0  0  0  0
 44130  1  0  0  0  0
 45131  1  0  0  0  0
 47132  1  0  0  0  0
 48133  1  0  0  0  0
 51134  1  0  0  0  0
 51135  1  0  0  0  0
 51136  1  0  0  0  0
 52137  1  0  0  0  0
 53138  1  0  0  0  0
 60139  1  0  0  0  0
 61140  1  0  0  0  0
 64141  1  0  0  0  0
 64142  1  0  0  0  0
 64143  1  0  0  0  0
 65144  1  0  0  0  0
 66145  1  0  0  0  0
 68146  1  0  0  0  0
 69147  1  0  0  0  0
 72148  1  0  0  0  0
 72149  1  0  0  0  0
 72150  1  0  0  0  0
 73151  1  0  0  0  0
 74152  1  0  0  0  0
 81153  1  0  0  0  0
 81154  1  0  0  0  0
 82155  1  0  0  0  0
 82156  1  0  0  0  0
 82157  1  0  0  0  0
 89158  1  0  0  0  0
 89159  1  0  0  0  0
 89160  1  0  0  0  0
 91161  1  0  0  0  0
 91162  1  0  0  0  0
 91163  1  0  0  0  0
 92164  1  0  0  0  0
100165  1  0  0  0  0
M  END
