114

C         -2.60480       -3.30740        4.98030
C         -3.44260       -4.37290        5.06820
C         -4.11920       -5.07480        3.94280
O         -4.14430       -4.77230        2.77000
C         -4.69700       -6.29950        4.52680
C         -5.41090       -7.28190        3.84240
C         -5.82570       -8.32450        4.63400
C         -5.54370       -8.39210        6.00590
C         -4.84430       -7.42970        6.69290
C         -4.41670       -6.35350        5.90590
C         -3.66460       -5.15980        6.27490
C         -3.29150       -4.81860        7.54820
C         -2.61960       -3.63530        7.92380
N         -2.08710       -2.70040        8.32670
C         -3.53920       -5.60610        8.69290
N         -3.69580       -6.19240        9.66760
C         -6.24370       -9.71890        6.16510
C         -5.34150      -10.96790        6.25970
C         -6.27250      -12.11160        5.92700
C         -6.54650      -12.04510        4.63040
C         -5.80490      -10.85550        4.06480
C         -4.55060      -10.88220        4.94780
C         -6.56360       -9.63970        4.63780
C         -2.36580       -2.42150        3.87230
C         -1.09770       -1.83300        3.78780
C         -0.82490       -0.99340        2.72630
N          0.33090       -0.31910        2.41390
C          1.58080       -0.42520        3.11780
C          2.42870       -1.57620        2.57890
C          0.13160        0.36360        1.23920
C         -1.20080        0.16140        0.79660
C         -1.81730       -0.70340        1.75190
C         -3.09340       -1.24300        1.88060
C         -3.35830       -2.09180        2.92910
C         -1.63670        0.76020       -0.38070
C         -0.75750        1.54240       -1.09320
C          0.56260        1.74410       -0.65450
C          1.01360        1.15310        0.52070
C          1.47140        2.56920       -1.45430
C          1.06740        3.75840       -2.02790
F         -0.16900        4.23600       -1.80570
C          1.91330        4.54370       -2.82310
F          1.41930        5.69650       -3.28750
C          3.22430        4.17780       -3.08380
C          3.68730        2.97010       -2.48730
N          4.95180        2.56930       -2.70010
C          5.37650        1.44640       -2.17570
C          6.78260        1.05460       -2.51570
C          6.79720        0.25470       -3.82120
C          4.50410        0.64280       -1.39030
N          3.27000        1.02000       -1.17160
C          2.81970        2.17640       -1.69060
C          4.92800       -0.63670       -0.73390
C          5.54970       -0.34870        0.63520
C          4.06540        4.96710       -3.94830
C          5.44450        5.00530       -4.11100
C          5.69200        5.97160       -5.08210
C          4.44930        6.45900       -5.48340
O          3.48650        5.84480       -4.77390
C          4.15700        7.44770       -6.45200
C          2.93030        7.76980       -6.94710
C          1.65350        7.03990       -6.72140
O          1.49960        5.89700       -6.37400
C          0.59400        7.99580       -7.13550
C         -0.77290        7.89900       -6.94400
Cl        -1.47520        6.51260       -6.24360
C         -1.57110        8.98940       -7.32030
Cl        -3.26650        8.91080       -7.12430
C         -0.98130       10.15200       -7.81580
Cl        -1.96890       11.49930       -8.18390
C          0.40670       10.24380       -8.00400
Cl         1.07330       11.75790       -8.45660
C          1.18920        9.13120       -7.71990
C          2.62700        8.89410       -7.82250
C          3.49250        9.47350       -8.70880
C          3.12700       10.29910       -9.79570
N          2.92540       10.88410      -10.76180
C          4.87500        9.18770       -8.77190
N          6.00610        9.02200       -8.87570
H         -1.98840       -3.09800        5.84730
H         -5.60280       -7.18890        2.78500
H         -4.63760       -7.49640        7.74780
H         -7.07090       -9.73760        6.87190
H         -4.77450      -11.05090        7.18280
H         -6.66710      -12.79520        6.65560
H         -7.21570      -12.66150        4.05950
H         -5.65990      -10.83560        2.98800
H         -3.92800       -9.99350        4.86140
H         -3.94420      -11.76960        4.77440
H         -7.60550       -9.60110        4.32550
H         -0.34900       -2.06950        4.52960
H          1.36990       -0.57470        4.17980
H          2.11890        0.52030        3.01020
H          1.90070       -2.51960        2.69700
H          3.37180       -1.63330        3.11570
H          2.63130       -1.42390        1.52180
H         -3.86260       -0.99860        1.16470
H         -4.34880       -2.49550        3.04750
H         -2.64580        0.60740       -0.73050
H         -1.07900        1.99130       -2.01950
H          2.02420        1.32130        0.85300
H          7.36750        1.96470       -2.65330
H          7.22870        0.46750       -1.71390
H          6.38170        0.85410       -4.62720
H          7.81660       -0.02040       -4.07960
H          6.20520       -0.65330       -3.72800
H          4.04000       -1.25620       -0.60170
H          5.64010       -1.17370       -1.35970
H          6.43960        0.26950        0.53810
H          5.82640       -1.27980        1.12320
H          4.83720        0.17650        1.26630
H          6.14940        4.40240       -3.58020
H          6.64210        6.28030       -5.46890
H          5.01950        8.01460       -6.77500
