234

C          5.62120        2.18940        6.04650
C          5.09260        1.95460        7.28200
C          5.96210        2.00640        8.48360
O          7.08350        2.46120        8.54850
C          5.18900        1.34020        9.55150
C          5.62480        1.01190       10.83280
C          4.68730        0.35390       11.59280
C          3.40730        0.04060       11.11650
C          2.95860        0.36770        9.85890
C          3.89620        1.03990        9.07290
C          3.77230        1.56000        7.71320
C          2.58800        1.87200        7.09150
C          2.50880        2.62900        5.90700
N          2.39650        3.29430        4.97670
C          1.31760        1.58440        7.62470
N          0.25740        1.38160        8.01710
C          3.00960       -0.64410       12.39980
C          3.00750       -2.19280       12.42080
C          4.00920       -2.63760       11.38430
C          5.21970       -2.33950       11.83710
C          5.05820       -1.68740       13.18790
C          3.81870       -2.43620       13.70340
C          4.43450       -0.29280       12.93230
C          5.08170        1.80150        4.80330
C          5.24970        2.41200        3.55480
N          5.99410        3.53410        3.28850
C          7.25500        3.72880        3.86960
C          7.65990        5.00290        4.26000
C          8.90980        5.18700        4.81920
C          9.76420        4.11090        4.99740
C          9.36410        2.84300        4.60870
C          8.11840        2.64800        4.04360
C          5.47570        4.48250        2.38310
C          6.30980        5.10660        1.45980
C          5.78080        6.00550        0.55230
C          4.42400        6.28440        0.55010
C          3.59870        5.67600        1.48090
C          4.11570        4.78580        2.40220
C          4.44050        1.78110        2.57970
S          4.13420        2.06900        0.90560
C          3.02070        0.71600        0.85240
C          2.89970        0.08380        2.06900
N          1.94250       -0.89430        2.37560
C          2.11250       -2.22720        2.00530
C          3.38270       -2.74270        1.76100
C          3.53630       -4.07160        1.41180
C          2.43590       -4.90240        1.29640
C          1.16980       -4.39110        1.53150
C          1.00370       -3.06560        1.87870
C          1.00280       -0.51060        3.35090
C          0.63310       -1.37070        4.38230
C         -0.28470       -0.95940        5.32950
C         -0.83470        0.31070        5.27330
C         -0.45380        1.17420        4.26040
C          0.45580        0.77030        3.30190
C          3.72940        0.68860        3.04240
S          4.02000        0.39260        4.71230
C          2.16890        0.51610       -0.29520
C          2.16590       -0.47700       -1.25040
N          3.18440       -1.39850       -1.42500
C          4.50680       -0.99770       -1.18290
C          5.42510       -1.87490       -0.60450
C          6.67670       -1.43010       -0.24030
C          7.04930       -0.10780       -0.46650
S          8.61700        0.42670        0.15360
C          8.34400        2.20950        0.38620
C          6.18650        0.73320       -1.15370
C          4.92620        0.29060       -1.50450
C          2.89560       -2.68600       -1.89410
C          1.72500       -3.33380       -1.50380
C          1.43440       -4.59480       -1.97330
C          2.31320       -5.24380       -2.83510
S          1.87450       -6.87790       -3.33430
C          2.95190       -7.18790       -4.76570
C          3.48460       -4.60630       -3.22320
C          3.76640       -3.33500       -2.76500
C          1.01950       -0.35750       -2.08630
S          0.28330       -1.35650       -3.28850
C         -1.06280       -0.22890       -3.42710
C         -0.92540        0.88110       -2.61440
N         -1.76630        1.97860       -2.51840
C         -1.18370        3.21480       -2.18920
C         -1.78250        4.05220       -1.25330
C         -1.17640        5.23520       -0.87710
C          0.04740        5.59530       -1.42540
S          0.94080        7.05220       -0.98350
C          0.04740        7.69020        0.46310
C          0.63170        4.77920       -2.39160
C          0.02070        3.60720       -2.77580
C         -3.15120        1.88480       -2.69440
C         -3.86000        2.89370       -3.34090
C         -5.21070        2.74900       -3.59940
C         -5.86780        1.57450       -3.24990
S         -7.53040        1.17600       -3.70410
C         -8.06060        2.56320       -4.74690
C         -5.18050        0.60620       -2.52130
C         -3.84700        0.77160       -2.22590
C          0.25310        0.76540       -1.83030
S          0.87180        1.68350       -0.50940
C         -2.22540       -0.67240       -4.14800
C         -2.95810       -1.79170       -3.81080
N         -2.57400       -2.68340       -2.79260
C         -2.23890       -3.99040       -3.11710
C         -1.88670       -4.32370       -4.42500
C         -1.52730       -5.61840       -4.74110
C         -1.50430       -6.60210       -3.76760
C         -1.83720       -6.27200       -2.46510
C         -2.20150       -4.98100       -2.13590
C         -2.94800       -2.34280       -1.45960
C         -4.27510       -2.44070       -1.05540
C         -4.63710       -2.04860        0.22140
C         -3.68400       -1.55420        1.09650
C         -2.35860       -1.47540        0.70290
C         -1.98760       -1.88030       -0.56740
C         -4.15040       -1.86580       -4.56270
S         -5.53360       -2.88370       -4.45490
C         -6.35460       -1.89150       -5.65850
C         -5.48390       -0.92910       -6.24190
N         -5.78470       -0.23990       -7.38090
C         -6.68260       -0.76670       -8.34130
C         -7.60980        0.07940       -8.94160
C         -8.49560       -0.42370       -9.87630
C         -8.45990       -1.76380      -10.22190
C         -7.51960       -2.60080       -9.64160
C         -6.62760       -2.10830       -8.70910
C         -5.10770        0.94130       -7.73580
C         -4.88100        1.93400       -6.79040
C         -4.23210        3.10060       -7.15010
C         -3.81190        3.29120       -8.45440
C         -4.04240        2.30490       -9.40080
C         -4.68480        1.13410       -9.04930
C         -4.27440       -0.86620       -5.52510
S         -2.91620        0.21890       -5.48230
C         -7.72910       -1.89350       -5.87000
C         -8.70000       -2.73920       -5.37970
C         -8.47610       -3.98480       -4.65370
O         -7.41910       -4.46870       -4.25160
C         -9.78700       -4.60580       -4.49920
C        -10.06940       -5.81990       -3.88560
O         -9.10620       -6.57570       -3.34450
C        -11.41230       -6.22070       -3.85540
C        -12.38710       -5.42270       -4.42020
C        -12.09710       -4.20300       -5.03350
C        -10.77890       -3.79160       -5.07120
C        -10.12020       -2.59470       -5.60140
C        -10.76950       -1.52100       -6.16100
C        -12.16110       -1.47040       -6.37800
N        -13.28430       -1.36600       -6.59400
C        -10.16740       -0.31460       -6.56000
N         -9.76940        0.71520       -6.88460
H          6.59100        2.67650        6.04260
H          6.61940        1.26790       11.16310
H          1.97540        0.11610        9.49600
H          2.15210       -0.22120       12.91950
H          2.02050       -2.64350       12.35920
H          3.74050       -3.05670       10.43230
H          6.16380       -2.46020       11.33880
H          5.93860       -1.67880       13.82520
H          3.37560       -1.98360       14.58940
H          4.01060       -3.49240       13.88650
H          4.50700        0.35970       13.80020
H          6.98650        5.83680        4.12940
H          9.21430        6.17600        5.12660
H         10.73690        4.25930        5.44010
H         10.02580        2.00050        4.74090
H          7.80740        1.66120        3.73240
H          7.36670        4.88230        1.45490
H          6.43360        6.48250       -0.16370
H          4.00910        6.97260       -0.17030
H          2.54320        5.89820        1.49200
H          3.47510        4.32740        3.14090
H          4.24510       -2.09950        1.86370
H          4.52800       -4.46870        1.24860
H          2.56220       -5.93880        1.02490
H          0.30270       -5.02760        1.43560
H          0.01460       -2.67220        2.05900
H          1.07480       -2.35460        4.44090
H         -0.56190       -1.63180        6.12760
H         -1.54100        0.62910        6.02330
H         -0.86640        2.17070        4.21280
H          0.74380        1.44710        2.51050
H          5.13500       -2.89600       -0.41780
H          7.37160       -2.09640        0.24760
H          7.34880        2.36670        0.79080
H          8.46770        2.73920       -0.55420
H          9.09620        2.53940        1.09680
H          6.47580        1.74080       -1.40610
H          4.25360        0.96280       -2.01650
H          1.05710       -2.85400       -0.80670
H          0.52450       -5.09070       -1.67500
H          2.85870       -6.36930       -5.47280
H          3.98190       -7.31930       -4.44680
H          2.58860       -8.10780       -5.21280
H          4.18630       -5.08710       -3.88570
H          4.67310       -2.84100       -3.08230
H         -2.72300        3.76410       -0.80740
H         -1.66380        5.85780       -0.14440
H         -0.03970        6.91160        1.21510
H          0.65240        8.50710        0.84460
H         -0.92890        8.06400        0.16780
H          1.57150        5.07580       -2.83140
H          0.47830        2.97890       -3.52580
H         -3.34560        3.78910       -3.65700
H         -5.73580        3.54970       -4.09620
H         -9.01470        2.25810       -5.16740
H         -7.34960        2.71980       -5.55230
H         -8.18270        3.45840       -4.14380
H         -5.70430       -0.27740       -2.19110
H         -3.32600        0.03720       -1.63590
H         -1.89110       -3.56180       -5.19120
H         -1.26000       -5.85960       -5.75990
H         -1.22120       -7.61250       -4.01720
H         -1.81480       -7.02940       -1.69490
H         -2.46220       -4.73490       -1.11680
H         -5.01130       -2.82870       -1.74380
H         -5.66850       -2.12520        0.53200
H         -3.97050       -1.23460        2.08720
H         -1.61530       -1.08460        1.38310
H         -0.95570       -1.83280       -0.87620
H         -7.64470        1.12010       -8.65920
H         -9.22310        0.23450      -10.32550
H         -9.15870       -2.15580      -10.94500
H         -7.47540       -3.64270       -9.92150
H         -5.89150       -2.75860       -8.25990
H         -5.21940        1.78640       -5.77840
H         -4.06060        3.86300       -6.40540
H         -3.30890        4.20380       -8.73520
H         -3.71500        2.44620      -10.41980
H         -4.85850        0.36380       -9.78600
H         -8.08480       -1.08430       -6.49330
H         -8.24800       -6.12400       -3.46930
H        -11.66360       -7.15780       -3.38490
H        -13.41460       -5.75250       -4.38630
H        -12.89190       -3.61500       -5.46080
