195

C          2.64730      -10.30400        0.87920
C          2.54190      -10.48520        2.23050
C          2.47400       -9.40920        3.22800
O          2.59780       -8.21300        3.02970
C          2.21970      -10.05840        4.52230
C          2.03190       -9.43030        5.75200
C          1.78260      -10.29720        6.78860
C          1.72980      -11.68720        6.61630
C          1.92260      -12.31950        5.41080
C          2.17290      -11.45600        4.33930
C          2.40530      -11.75230        2.92670
C          2.48670      -13.00690        2.38160
C          2.72640      -13.29950        1.02230
N          2.91760      -13.62850       -0.06160
C          2.35280      -14.20730        3.11150
N          2.25120      -15.22500        3.63330
C          1.41980      -11.93610        8.07130
C         -0.04830      -12.26700        8.41480
C         -0.14580      -11.98360        9.89660
C         -0.09530      -10.66780       10.05990
C          0.03710      -10.03960        8.69130
C         -0.78220      -11.03780        7.86300
C          1.47930      -10.38660        8.26320
C          2.70690       -9.11260        0.13250
C          2.69870       -9.11520       -1.25970
C          2.69300       -7.84570       -1.81680
Cl         2.69010       -7.59910       -3.51820
C          2.72080       -6.82840       -0.86890
S          2.74520       -7.47720        0.73860
C          2.66380       -5.41810       -1.05910
C          2.20820       -4.72090       -2.14320
C          2.17740       -3.32100       -1.94240
C          1.67040       -2.33920       -2.81150
C          1.07480       -2.69210       -4.10490
C          1.48750       -2.05470       -5.27380
C          0.95580       -2.41390       -6.49320
C         -0.01380       -3.41020       -6.57270
S         -0.63830       -3.79030       -8.18100
C         -1.23200       -5.51270       -8.03120
C         -0.10730       -6.48190       -7.72360
C         -0.46140       -4.02090       -5.40830
C          0.08540       -3.66820       -4.19060
C          1.72690       -1.03140       -2.36070
C          2.27260       -0.65530       -1.10800
C          2.76600       -1.63710       -0.23420
C          3.26880       -1.33190        1.11110
C          2.50860       -0.59880        2.01730
C          2.94760       -0.39500        3.31150
C          4.16920       -0.91340        3.72200
S          4.82150       -0.75520        5.35010
C          3.75590        0.50690        6.13790
C          4.38580        0.93360        7.44980
C          4.94360       -1.63470        2.81440
C          4.49720       -1.84400        1.52930
C          2.69630       -2.95160       -0.67650
S          3.13640       -4.35780        0.25780
C          2.15090        0.74150       -0.87380
C          1.48680        1.40130       -1.85920
S          1.03230        0.33920       -3.18430
C          0.90210        2.71780       -1.84440
C          1.39830        3.98030       -1.59690
N          2.74280        4.29510       -1.40820
C          3.26660        5.37510       -2.12400
C          2.78880        5.64800       -3.40380
C          3.27140        6.72010       -4.12890
C          4.25400        7.53710       -3.58930
S          4.95880        8.92920       -4.41700
C          4.05820        9.00530       -5.99120
C          4.73910        7.26530       -2.31120
C          4.25020        6.20480       -1.58340
C          3.41020        3.74130       -0.30760
C          2.73030        3.53360        0.89350
C          3.38960        3.00620        1.98190
C          4.74000        2.67740        1.89640
S          5.51240        2.08870        3.36790
C          6.98070        1.21480        2.76450
C          5.41640        2.86860        0.69840
C          4.75470        3.39160       -0.39490
C          0.34870        4.93500       -1.51650
S          0.25700        6.60630       -1.08500
C         -1.50200        6.52110       -0.97260
C         -1.98620        5.24910       -1.29700
N         -3.22080        4.71640       -0.93300
C         -4.42510        4.97050       -1.60520
C         -5.60740        5.05970       -0.87360
C         -6.79710        5.31540       -1.51720
C         -6.82750        5.47890       -2.90160
S         -8.40830        5.81550       -3.61020
C         -8.06160        6.03030       -5.37970
C         -5.65460        5.36530       -3.63360
C         -4.45990        5.10840       -2.98790
C         -3.07300        3.52330       -0.19310
C         -2.18250        3.52470        0.88390
C         -1.74710        2.33620        1.42380
C         -2.20760        1.12910        0.90600
S         -1.42720       -0.35870        1.46330
C         -1.40300       -1.34760       -0.06360
C         -3.21870        1.13160       -0.04640
C         -3.65230        2.32340       -0.59540
C         -0.91560        4.38910       -1.64320
S         -0.84600        2.70700       -2.02040
C         -2.20070        7.53560       -0.28640
C         -3.49710        7.89400       -0.54130
C         -4.08360        7.90040       -1.89650
O         -3.55190        7.53560       -2.92570
C         -5.38230        8.58650       -1.76290
C         -6.30630        8.83870       -2.77400
C         -7.43990        9.49070       -2.35140
C         -7.63090        9.88950       -1.02160
C         -6.72280        9.66140       -0.01520
C         -5.57190        8.98170       -0.42300
C         -4.41940        8.54330        0.35580
C         -4.28760        8.57820        1.72170
C         -5.20890        9.18170        2.59890
N         -5.91970        9.66740        3.35910
C         -3.22890        7.94570        2.40470
N         -2.41280        7.40540        3.00600
C         -8.97620       10.50500       -1.31360
C        -10.21370        9.69250       -0.87760
C        -11.33930       10.27990       -1.69760
C        -11.16280        9.89780       -2.95590
C         -9.91610        9.04500       -3.00700
C         -9.99770        8.37400       -1.63060
C         -8.76770       10.05410       -2.79520
H          2.64910      -11.19160        0.25810
H          2.08340       -8.35630        5.83820
H          1.88080      -13.38970        5.29830
H          2.13320      -12.55680        8.60960
H         -0.38470      -13.24440        8.08000
H         -0.18470      -12.74640       10.65180
H         -0.08350      -10.11160       10.97880
H         -0.22180       -8.98750        8.60830
H         -1.83610      -11.03130        8.13620
H         -0.68470      -10.90770        6.78670
H          2.23280       -9.97210        8.93010
H          2.68560      -10.02000       -1.84090
H          1.87860       -5.18870       -3.05120
H          2.25380       -1.29560       -5.22620
H          1.28960       -1.93360       -7.40010
H         -2.02370       -5.54670       -7.28340
H         -1.66890       -5.71860       -9.00820
H          0.35680       -6.24950       -6.76700
H         -0.49510       -7.49800       -7.68330
H          0.65580       -6.43020       -8.49670
H         -1.23990       -4.76730       -5.43660
H         -0.27990       -4.13830       -3.28880
H          1.53940       -0.22200        1.72490
H          2.31950        0.15350        3.99460
H          3.69170        1.34790        5.44820
H          2.77170        0.06630        6.30070
H          5.36530        1.37060        7.27150
H          3.75590        1.67430        7.93760
H          4.50240        0.08060        8.11450
H          5.89290       -2.03480        3.13710
H          5.11050       -2.39790        0.83380
H          2.49940        1.21710        0.02340
H          2.03350        5.01110       -3.84070
H          2.87400        6.89870       -5.11490
H          2.99640        9.13850       -5.80550
H          4.45310        9.87270       -6.51110
H          4.24950        8.10890       -6.57410
H          5.49820        7.90780       -1.89200
H          4.61980        6.02150       -0.58620
H          1.68490        3.79500        0.96960
H          2.86840        2.85760        2.91470
H          6.69380        0.55500        1.95110
H          7.33790        0.63060        3.60710
H          7.74420        1.92310        2.45520
H          6.46170        2.61940        0.60870
H          5.28300        3.54270       -1.32420
H         -5.57820        4.93360        0.19880
H         -7.71650        5.39610       -0.95720
H         -7.36910        6.85390       -5.52650
H         -9.01720        6.26500       -5.83860
H         -7.67190        5.10750       -5.79910
H         -5.64990        5.47420       -4.70560
H         -3.54630        5.02380       -3.55580
H         -1.79330        4.46360        1.24980
H         -1.01700        2.32840        2.21820
H         -1.16480       -0.70050       -0.90240
H         -2.35830       -1.84190       -0.21350
H         -0.62130       -2.08950        0.06980
H         -3.63690        0.20320       -0.40250
H         -4.38990        2.32150       -1.38400
H         -1.66050        8.01810        0.51980
H         -6.10900        8.53190       -3.78910
H         -6.87330        9.98640        1.00120
H         -9.06700       11.56850       -1.10080
H        -10.36650        9.63900        0.19680
H        -12.09140       10.93660       -1.30120
H        -11.73890       10.17190       -3.82040
H         -9.80190        8.39520       -3.86920
H         -9.09270        7.84090       -1.34750
H        -10.85220        7.70480       -1.55140
H         -8.72300       10.81730       -3.57030
