
  xtb     02152208103D
 energy: -346.360282174929 gnorm: 0.000908399753 xtb: 6.4.1 (unknown)
214237  0     0  0            999 V2000
  -11.7380    0.2634   -6.2781 C   0  0  0  0  0  0  0  0  0  0  0  0
  -12.6603    0.6635   -5.3658 C   0  0  0  0  0  0  0  0  0  0  0  0
  -12.5275    0.5741   -3.8873 C   0  0  0  0  0  0  0  0  0  0  0  0
  -11.5201    0.4994   -3.2163 O   0  0  0  0  0  0  0  0  0  0  0  0
  -13.9106    0.5409   -3.3745 C   0  0  0  0  0  0  0  0  0  0  0  0
  -14.3020    0.3119   -2.0563 C   0  0  0  0  0  0  0  0  0  0  0  0
  -15.6630    0.3050   -1.8706 C   0  0  0  0  0  0  0  0  0  0  0  0
  -16.5730    0.5176   -2.9161 C   0  0  0  0  0  0  0  0  0  0  0  0
  -16.2020    0.7536   -4.2181 C   0  0  0  0  0  0  0  0  0  0  0  0
  -14.8193    0.7559   -4.4301 C   0  0  0  0  0  0  0  0  0  0  0  0
  -14.0604    0.9336   -5.6606 C   0  0  0  0  0  0  0  0  0  0  0  0
  -14.5516    1.3593   -6.8643 C   0  0  0  0  0  0  0  0  0  0  0  0
  -15.9091    1.6515   -7.1108 C   0  0  0  0  0  0  0  0  0  0  0  0
  -16.9995    1.9005   -7.3689 N   0  0  0  0  0  0  0  0  0  0  0  0
  -13.7511    1.6158   -7.9988 C   0  0  0  0  0  0  0  0  0  0  0  0
  -13.1596    1.8699   -8.9493 N   0  0  0  0  0  0  0  0  0  0  0  0
  -17.7705    0.3479   -2.0147 C   0  0  0  0  0  0  0  0  0  0  0  0
  -18.5112   -1.0033   -2.1042 C   0  0  0  0  0  0  0  0  0  0  0  0
  -19.2977   -1.0718   -0.8150 C   0  0  0  0  0  0  0  0  0  0  0  0
  -18.4358   -1.2745    0.1733 C   0  0  0  0  0  0  0  0  0  0  0  0
  -17.0522   -1.3459   -0.4314 C   0  0  0  0  0  0  0  0  0  0  0  0
  -17.3875   -1.9963   -1.7799 C   0  0  0  0  0  0  0  0  0  0  0  0
  -16.7564    0.1105   -0.8500 C   0  0  0  0  0  0  0  0  0  0  0  0
  -10.3593   -0.0628   -6.0251 C   0  0  0  0  0  0  0  0  0  0  0  0
   -9.5816    0.6754   -5.1329 C   0  0  0  0  0  0  0  0  0  0  0  0
   -8.2896    0.2502   -4.8847 C   0  0  0  0  0  0  0  0  0  0  0  0
   -7.3379    0.7954   -4.0572 N   0  0  0  0  0  0  0  0  0  0  0  0
   -7.5837    1.8962   -3.1631 C   0  0  0  0  0  0  0  0  0  0  0  0
   -8.4466    1.4694   -1.9777 C   0  0  0  0  0  0  0  0  0  0  0  0
   -6.2218   -0.0028   -4.0924 C   0  0  0  0  0  0  0  0  0  0  0  0
   -6.4435   -1.0748   -4.9960 C   0  0  0  0  0  0  0  0  0  0  0  0
   -7.7623   -0.9080   -5.5121 C   0  0  0  0  0  0  0  0  0  0  0  0
   -8.5304   -1.6058   -6.4418 C   0  0  0  0  0  0  0  0  0  0  0  0
   -9.8054   -1.1691   -6.7045 C   0  0  0  0  0  0  0  0  0  0  0  0
   -5.4457   -2.0232   -5.1981 C   0  0  0  0  0  0  0  0  0  0  0  0
   -4.2674   -1.8993   -4.5063 C   0  0  0  0  0  0  0  0  0  0  0  0
   -4.0282   -0.8298   -3.6182 C   0  0  0  0  0  0  0  0  0  0  0  0
   -5.0156    0.1363   -3.4240 C   0  0  0  0  0  0  0  0  0  0  0  0
   -2.7394   -0.7528   -2.9655 C   0  0  0  0  0  0  0  0  0  0  0  0
   -2.2942    0.0238   -1.9079 C   0  0  0  0  0  0  0  0  0  0  0  0
   -3.0337    0.9115   -1.1207 N   0  0  0  0  0  0  0  0  0  0  0  0
   -4.2061    0.5117   -0.4756 C   0  0  0  0  0  0  0  0  0  0  0  0
   -5.0975    1.4720    0.0016 C   0  0  0  0  0  0  0  0  0  0  0  0
   -6.2635    1.1032    0.6426 C   0  0  0  0  0  0  0  0  0  0  0  0
   -6.5794   -0.2402    0.7953 C   0  0  0  0  0  0  0  0  0  0  0  0
   -8.0453   -0.8388    1.5785 S   0  0  0  0  0  0  0  0  0  0  0  0
   -8.9641    0.6676    2.0050 C   0  0  0  0  0  0  0  0  0  0  0  0
   -5.7019   -1.2036    0.3031 C   0  0  0  0  0  0  0  0  0  0  0  0
   -4.5297   -0.8365   -0.3179 C   0  0  0  0  0  0  0  0  0  0  0  0
   -2.3452    2.0685   -0.7172 C   0  0  0  0  0  0  0  0  0  0  0  0
   -1.6432    2.7994   -1.6732 C   0  0  0  0  0  0  0  0  0  0  0  0
   -0.8842    3.8940   -1.3105 C   0  0  0  0  0  0  0  0  0  0  0  0
   -0.8158    4.2743    0.0218 C   0  0  0  0  0  0  0  0  0  0  0  0
    0.1440    5.6448    0.5911 S   0  0  0  0  0  0  0  0  0  0  0  0
    1.3489    5.9022   -0.7431 C   0  0  0  0  0  0  0  0  0  0  0  0
   -1.5376    3.5663    0.9790 C   0  0  0  0  0  0  0  0  0  0  0  0
   -2.2940    2.4742    0.6165 C   0  0  0  0  0  0  0  0  0  0  0  0
   -0.9168   -0.1940   -1.6517 C   0  0  0  0  0  0  0  0  0  0  0  0
    0.1977    0.4280   -0.4872 S   0  0  0  0  0  0  0  0  0  0  0  0
    1.4792   -0.6205   -1.1053 C   0  0  0  0  0  0  0  0  0  0  0  0
    1.0312   -1.4335   -2.1416 C   0  0  0  0  0  0  0  0  0  0  0  0
    1.7393   -2.4117   -2.8244 N   0  0  0  0  0  0  0  0  0  0  0  0
    1.4715   -2.5480   -4.1971 C   0  0  0  0  0  0  0  0  0  0  0  0
    1.3781   -1.4144   -4.9992 C   0  0  0  0  0  0  0  0  0  0  0  0
    1.0706   -1.5204   -6.3417 C   0  0  0  0  0  0  0  0  0  0  0  0
    0.8583   -2.7700   -6.9066 C   0  0  0  0  0  0  0  0  0  0  0  0
    0.4530   -3.0396   -8.6024 S   0  0  0  0  0  0  0  0  0  0  0  0
    0.3199   -1.3672   -9.2951 C   0  0  0  0  0  0  0  0  0  0  0  0
    0.9654   -3.9092   -6.1093 C   0  0  0  0  0  0  0  0  0  0  0  0
    1.2643   -3.8026   -4.7707 C   0  0  0  0  0  0  0  0  0  0  0  0
    2.5226   -3.3603   -2.1641 C   0  0  0  0  0  0  0  0  0  0  0  0
    2.2544   -3.7189   -0.8445 C   0  0  0  0  0  0  0  0  0  0  0  0
    3.0843   -4.5922   -0.1710 C   0  0  0  0  0  0  0  0  0  0  0  0
    4.1929   -5.1294   -0.8093 C   0  0  0  0  0  0  0  0  0  0  0  0
    5.3184   -6.2265   -0.0031 S   0  0  0  0  0  0  0  0  0  0  0  0
    5.1915   -5.7067    1.7339 C   0  0  0  0  0  0  0  0  0  0  0  0
    4.4372   -4.8188   -2.1435 C   0  0  0  0  0  0  0  0  0  0  0  0
    3.6139   -3.9433   -2.8138 C   0  0  0  0  0  0  0  0  0  0  0  0
   -0.3228   -1.1463   -2.4551 C   0  0  0  0  0  0  0  0  0  0  0  0
   -1.4552   -1.7896   -3.5875 S   0  0  0  0  0  0  0  0  0  0  0  0
    2.7496   -0.4744   -0.4836 C   0  0  0  0  0  0  0  0  0  0  0  0
    3.0212    0.3547    0.5752 C   0  0  0  0  0  0  0  0  0  0  0  0
    4.3613    0.3105    1.0189 C   0  0  0  0  0  0  0  0  0  0  0  0
    4.9408    0.9810    2.1132 C   0  0  0  0  0  0  0  0  0  0  0  0
    4.1902    2.0003    2.8538 C   0  0  0  0  0  0  0  0  0  0  0  0
    4.1681    2.0142    4.2482 C   0  0  0  0  0  0  0  0  0  0  0  0
    3.4602    2.9792    4.9292 C   0  0  0  0  0  0  0  0  0  0  0  0
    2.7489    3.9570    4.2366 C   0  0  0  0  0  0  0  0  0  0  0  0
    1.8523    5.1135    5.2241 S   0  0  0  0  0  0  0  0  0  0  0  0
    1.3935    6.4629    4.0832 C   0  0  0  0  0  0  0  0  0  0  0  0
    2.5919    7.2843    3.6483 C   0  0  0  0  0  0  0  0  0  0  0  0
    2.7598    3.9510    2.8482 C   0  0  0  0  0  0  0  0  0  0  0  0
    3.4788    2.9852    2.1715 C   0  0  0  0  0  0  0  0  0  0  0  0
    6.2440    0.6289    2.4403 C   0  0  0  0  0  0  0  0  0  0  0  0
    6.9762   -0.3584    1.7231 C   0  0  0  0  0  0  0  0  0  0  0  0
    6.4017   -1.0177    0.6138 C   0  0  0  0  0  0  0  0  0  0  0  0
    7.0548   -2.1320   -0.0758 C   0  0  0  0  0  0  0  0  0  0  0  0
    7.5828   -3.1939    0.6550 C   0  0  0  0  0  0  0  0  0  0  0  0
    8.0886   -4.3132    0.0248 C   0  0  0  0  0  0  0  0  0  0  0  0
    8.0786   -4.3929   -1.3615 C   0  0  0  0  0  0  0  0  0  0  0  0
    8.6354   -5.7816   -2.2914 S   0  0  0  0  0  0  0  0  0  0  0  0
    8.9169   -7.1019   -1.0619 C   0  0  0  0  0  0  0  0  0  0  0  0
   10.2948   -7.0350   -0.4294 C   0  0  0  0  0  0  0  0  0  0  0  0
    7.5839   -3.3201   -2.1015 C   0  0  0  0  0  0  0  0  0  0  0  0
    7.0742   -2.2096   -1.4683 C   0  0  0  0  0  0  0  0  0  0  0  0
    5.1233   -0.6241    0.2699 C   0  0  0  0  0  0  0  0  0  0  0  0
    4.1854   -1.3181   -1.0272 S   0  0  0  0  0  0  0  0  0  0  0  0
    8.2687   -0.5180    2.2397 C   0  0  0  0  0  0  0  0  0  0  0  0
    8.5487    0.2903    3.3275 C   0  0  0  0  0  0  0  0  0  0  0  0
    7.1883    1.3184    3.7352 S   0  0  0  0  0  0  0  0  0  0  0  0
    9.7832    0.2058    4.0017 C   0  0  0  0  0  0  0  0  0  0  0  0
   10.2503    0.8722    5.0996 C   0  0  0  0  0  0  0  0  0  0  0  0
    9.5654    1.9624    5.8165 C   0  0  0  0  0  0  0  0  0  0  0  0
    8.4576    2.4142    5.5999 O   0  0  0  0  0  0  0  0  0  0  0  0
   10.5024    2.4177    6.8593 C   0  0  0  0  0  0  0  0  0  0  0  0
   10.2969    3.4457    7.7773 C   0  0  0  0  0  0  0  0  0  0  0  0
   11.3515    3.6489    8.6345 C   0  0  0  0  0  0  0  0  0  0  0  0
   12.5243    2.8835    8.5841 C   0  0  0  0  0  0  0  0  0  0  0  0
   12.7383    1.8648    7.6868 C   0  0  0  0  0  0  0  0  0  0  0  0
   11.6776    1.6419    6.8026 C   0  0  0  0  0  0  0  0  0  0  0  0
   11.5358    0.6539    5.7356 C   0  0  0  0  0  0  0  0  0  0  0  0
   12.4493   -0.3263    5.4389 C   0  0  0  0  0  0  0  0  0  0  0  0
   12.2956   -1.3341    4.4643 C   0  0  0  0  0  0  0  0  0  0  0  0
   12.2542   -2.2011    3.7108 N   0  0  0  0  0  0  0  0  0  0  0  0
   13.6874   -0.4919    6.0939 C   0  0  0  0  0  0  0  0  0  0  0  0
   14.7130   -0.6926    6.5704 N   0  0  0  0  0  0  0  0  0  0  0  0
   13.1588    3.6325    9.7292 C   0  0  0  0  0  0  0  0  0  0  0  0
   14.2337    4.6763    9.3595 C   0  0  0  0  0  0  0  0  0  0  0  0
   14.3161    5.5589   10.5840 C   0  0  0  0  0  0  0  0  0  0  0  0
   13.2059    6.2840   10.6339 C   0  0  0  0  0  0  0  0  0  0  0  0
   12.3548    5.9044    9.4435 C   0  0  0  0  0  0  0  0  0  0  0  0
   13.4553    5.6040    8.4176 C   0  0  0  0  0  0  0  0  0  0  0  0
   11.8513    4.4861    9.7861 C   0  0  0  0  0  0  0  0  0  0  0  0
  -12.0806    0.0722   -7.2893 H   0  0  0  0  0  0  0  0  0  0  0  0
  -13.5692    0.1529   -1.2806 H   0  0  0  0  0  0  0  0  0  0  0  0
  -16.9100    0.9104   -5.0150 H   0  0  0  0  0  0  0  0  0  0  0  0
  -18.4445    1.2000   -1.9541 H   0  0  0  0  0  0  0  0  0  0  0  0
  -19.0667   -1.1574   -3.0253 H   0  0  0  0  0  0  0  0  0  0  0  0
  -20.3585   -0.9162   -0.7506 H   0  0  0  0  0  0  0  0  0  0  0  0
  -18.6326   -1.3223    1.2282 H   0  0  0  0  0  0  0  0  0  0  0  0
  -16.2779   -1.8131    0.1713 H   0  0  0  0  0  0  0  0  0  0  0  0
  -16.5661   -1.9876   -2.4941 H   0  0  0  0  0  0  0  0  0  0  0  0
  -17.7582   -3.0135   -1.6648 H   0  0  0  0  0  0  0  0  0  0  0  0
  -16.7549    0.8030   -0.0103 H   0  0  0  0  0  0  0  0  0  0  0  0
   -9.9797    1.5683   -4.6820 H   0  0  0  0  0  0  0  0  0  0  0  0
   -6.6218    2.2743   -2.8101 H   0  0  0  0  0  0  0  0  0  0  0  0
   -8.0812    2.6953   -3.7223 H   0  0  0  0  0  0  0  0  0  0  0  0
   -7.9502    0.6724   -1.4293 H   0  0  0  0  0  0  0  0  0  0  0  0
   -9.4135    1.1069   -2.3166 H   0  0  0  0  0  0  0  0  0  0  0  0
   -8.6000    2.3163   -1.3132 H   0  0  0  0  0  0  0  0  0  0  0  0
   -8.1265   -2.4713   -6.9448 H   0  0  0  0  0  0  0  0  0  0  0  0
  -10.4229   -1.7011   -7.4132 H   0  0  0  0  0  0  0  0  0  0  0  0
   -5.6005   -2.8445   -5.8806 H   0  0  0  0  0  0  0  0  0  0  0  0
   -3.4940   -2.6404   -4.6442 H   0  0  0  0  0  0  0  0  0  0  0  0
   -4.8366    0.9828   -2.7843 H   0  0  0  0  0  0  0  0  0  0  0  0
   -4.8731    2.5211   -0.1274 H   0  0  0  0  0  0  0  0  0  0  0  0
   -6.9203    1.8760    1.0076 H   0  0  0  0  0  0  0  0  0  0  0  0
   -9.8758    0.3240    2.4832 H   0  0  0  0  0  0  0  0  0  0  0  0
   -9.2071    1.2210    1.1028 H   0  0  0  0  0  0  0  0  0  0  0  0
   -8.3898    1.2711    2.7014 H   0  0  0  0  0  0  0  0  0  0  0  0
   -5.9486   -2.2473    0.4226 H   0  0  0  0  0  0  0  0  0  0  0  0
   -3.8557   -1.5984   -0.6768 H   0  0  0  0  0  0  0  0  0  0  0  0
   -1.6865    2.4959   -2.7095 H   0  0  0  0  0  0  0  0  0  0  0  0
   -0.3533    4.4395   -2.0744 H   0  0  0  0  0  0  0  0  0  0  0  0
    1.8051    4.9521   -1.0049 H   0  0  0  0  0  0  0  0  0  0  0  0
    2.0981    6.5780   -0.3414 H   0  0  0  0  0  0  0  0  0  0  0  0
    0.8688    6.3601   -1.6034 H   0  0  0  0  0  0  0  0  0  0  0  0
   -1.4795    3.8682    2.0135 H   0  0  0  0  0  0  0  0  0  0  0  0
   -2.8241    1.9108    1.3692 H   0  0  0  0  0  0  0  0  0  0  0  0
    1.5464   -0.4398   -4.5639 H   0  0  0  0  0  0  0  0  0  0  0  0
    1.0038   -0.6212   -6.9324 H   0  0  0  0  0  0  0  0  0  0  0  0
    0.0368   -1.5045  -10.3340 H   0  0  0  0  0  0  0  0  0  0  0  0
    1.2800   -0.8625   -9.2399 H   0  0  0  0  0  0  0  0  0  0  0  0
   -0.4524   -0.8100   -8.7729 H   0  0  0  0  0  0  0  0  0  0  0  0
    0.7964   -4.8774   -6.5547 H   0  0  0  0  0  0  0  0  0  0  0  0
    1.3271   -4.6880   -4.1565 H   0  0  0  0  0  0  0  0  0  0  0  0
    1.3973   -3.3005   -0.3375 H   0  0  0  0  0  0  0  0  0  0  0  0
    2.8549   -4.8480    0.8515 H   0  0  0  0  0  0  0  0  0  0  0  0
    4.2894   -6.1073    2.1870 H   0  0  0  0  0  0  0  0  0  0  0  0
    6.0625   -6.1140    2.2373 H   0  0  0  0  0  0  0  0  0  0  0  0
    5.2071   -4.6218    1.7783 H   0  0  0  0  0  0  0  0  0  0  0  0
    5.2908   -5.2537   -2.6392 H   0  0  0  0  0  0  0  0  0  0  0  0
    3.8283   -3.6781   -3.8376 H   0  0  0  0  0  0  0  0  0  0  0  0
    2.2597    0.9447    1.0544 H   0  0  0  0  0  0  0  0  0  0  0  0
    4.6961    1.2530    4.8014 H   0  0  0  0  0  0  0  0  0  0  0  0
    3.4452    2.9865    6.0084 H   0  0  0  0  0  0  0  0  0  0  0  0
    0.8550    6.0386    3.2373 H   0  0  0  0  0  0  0  0  0  0  0  0
    0.7005    7.0683    4.6674 H   0  0  0  0  0  0  0  0  0  0  0  0
    3.0794    7.7281    4.5131 H   0  0  0  0  0  0  0  0  0  0  0  0
    3.3190    6.6663    3.1261 H   0  0  0  0  0  0  0  0  0  0  0  0
    2.2673    8.0808    2.9816 H   0  0  0  0  0  0  0  0  0  0  0  0
    2.2081    4.6849    2.2832 H   0  0  0  0  0  0  0  0  0  0  0  0
    3.5049    3.0081    1.0914 H   0  0  0  0  0  0  0  0  0  0  0  0
    7.5649   -3.1591    1.7352 H   0  0  0  0  0  0  0  0  0  0  0  0
    8.4698   -5.1205    0.6283 H   0  0  0  0  0  0  0  0  0  0  0  0
    8.8029   -8.0221   -1.6353 H   0  0  0  0  0  0  0  0  0  0  0  0
    8.1095   -7.0465   -0.3331 H   0  0  0  0  0  0  0  0  0  0  0  0
   11.0631   -7.1342   -1.1927 H   0  0  0  0  0  0  0  0  0  0  0  0
   10.4512   -6.0905    0.0867 H   0  0  0  0  0  0  0  0  0  0  0  0
   10.4104   -7.8463    0.2872 H   0  0  0  0  0  0  0  0  0  0  0  0
    7.5952   -3.3782   -3.1792 H   0  0  0  0  0  0  0  0  0  0  0  0
    6.6989   -1.3852   -2.0556 H   0  0  0  0  0  0  0  0  0  0  0  0
    8.9951   -1.1967    1.8276 H   0  0  0  0  0  0  0  0  0  0  0  0
   10.4472   -0.5272    3.5588 H   0  0  0  0  0  0  0  0  0  0  0  0
    9.3747    4.0054    7.7831 H   0  0  0  0  0  0  0  0  0  0  0  0
   13.6454    1.2848    7.6656 H   0  0  0  0  0  0  0  0  0  0  0  0
   13.4284    3.0330   10.5966 H   0  0  0  0  0  0  0  0  0  0  0  0
   15.1672    4.2580    8.9933 H   0  0  0  0  0  0  0  0  0  0  0  0
   15.1209    5.5252   11.2946 H   0  0  0  0  0  0  0  0  0  0  0  0
   12.8983    6.9770   11.3949 H   0  0  0  0  0  0  0  0  0  0  0  0
   11.5775    6.6065    9.1541 H   0  0  0  0  0  0  0  0  0  0  0  0
   14.0248    6.4933    8.1528 H   0  0  0  0  0  0  0  0  0  0  0  0
   13.0969    5.1181    7.5119 H   0  0  0  0  0  0  0  0  0  0  0  0
   11.2486    4.4556   10.6919 H   0  0  0  0  0  0  0  0  0  0  0  0
  1  2  2  0  0  0  0
  2  3  1  0  0  0  0
  3  4  2  0  0  0  0
  3  5  1  0  0  0  0
  5  6  2  0  0  0  0
  6  7  1  0  0  0  0
  7  8  2  0  0  0  0
  8  9  1  0  0  0  0
  9 10  2  0  0  0  0
 10 11  1  0  0  0  0
 11 12  2  0  0  0  0
 12 13  1  0  0  0  0
 13 14  3  0  0  0  0
 12 15  1  0  0  0  0
 15 16  3  0  0  0  0
  8 17  1  0  0  0  0
 17 18  1  0  0  0  0
 18 19  1  0  0  0  0
 19 20  2  0  0  0  0
 20 21  1  0  0  0  0
 21 22  1  0  0  0  0
 21 23  1  0  0  0  0
  1 24  1  0  0  0  0
 24 25  2  0  0  0  0
 25 26  1  0  0  0  0
 26 27  1  0  0  0  0
 27 28  1  0  0  0  0
 28 29  1  0  0  0  0
 27 30  1  0  0  0  0
 30 31  2  0  0  0  0
 31 32  1  0  0  0  0
 32 33  1  0  0  0  0
 33 34  2  0  0  0  0
 31 35  1  0  0  0  0
 35 36  2  0  0  0  0
 36 37  1  0  0  0  0
 37 38  2  0  0  0  0
 37 39  1  0  0  0  0
 39 40  2  0  0  0  0
 40 41  1  0  0  0  0
 41 42  1  0  0  0  0
 42 43  2  0  0  0  0
 43 44  1  0  0  0  0
 44 45  2  0  0  0  0
 45 46  1  0  0  0  0
 46 47  1  0  0  0  0
 45 48  1  0  0  0  0
 48 49  2  0  0  0  0
 41 50  1  0  0  0  0
 50 51  2  0  0  0  0
 51 52  1  0  0  0  0
 52 53  2  0  0  0  0
 53 54  1  0  0  0  0
 54 55  1  0  0  0  0
 53 56  1  0  0  0  0
 56 57  2  0  0  0  0
 40 58  1  0  0  0  0
 58 59  1  0  0  0  0
 59 60  1  0  0  0  0
 60 61  2  0  0  0  0
 61 62  1  0  0  0  0
 62 63  1  0  0  0  0
 63 64  2  0  0  0  0
 64 65  1  0  0  0  0
 65 66  2  0  0  0  0
 66 67  1  0  0  0  0
 67 68  1  0  0  0  0
 66 69  1  0  0  0  0
 69 70  2  0  0  0  0
 62 71  1  0  0  0  0
 71 72  2  0  0  0  0
 72 73  1  0  0  0  0
 73 74  2  0  0  0  0
 74 75  1  0  0  0  0
 75 76  1  0  0  0  0
 74 77  1  0  0  0  0
 77 78  2  0  0  0  0
 61 79  1  0  0  0  0
 79 80  1  0  0  0  0
 60 81  1  0  0  0  0
 81 82  2  0  0  0  0
 82 83  1  0  0  0  0
 83 84  2  0  0  0  0
 84 85  1  0  0  0  0
 85 86  2  0  0  0  0
 86 87  1  0  0  0  0
 87 88  2  0  0  0  0
 88 89  1  0  0  0  0
 89 90  1  0  0  0  0
 90 91  1  0  0  0  0
 88 92  1  0  0  0  0
 92 93  2  0  0  0  0
 84 94  1  0  0  0  0
 94 95  2  0  0  0  0
 95 96  1  0  0  0  0
 96 97  1  0  0  0  0
 97 98  2  0  0  0  0
 98 99  1  0  0  0  0
 99100  2  0  0  0  0
100101  1  0  0  0  0
101102  1  0  0  0  0
102103  1  0  0  0  0
100104  1  0  0  0  0
104105  2  0  0  0  0
 96106  2  0  0  0  0
106107  1  0  0  0  0
 95108  1  0  0  0  0
108109  2  0  0  0  0
109110  1  0  0  0  0
109111  1  0  0  0  0
111112  2  0  0  0  0
112113  1  0  0  0  0
113114  2  0  0  0  0
113115  1  0  0  0  0
115116  2  0  0  0  0
116117  1  0  0  0  0
117118  2  0  0  0  0
118119  1  0  0  0  0
119120  2  0  0  0  0
120121  1  0  0  0  0
121122  2  0  0  0  0
122123  1  0  0  0  0
123124  3  0  0  0  0
122125  1  0  0  0  0
125126  3  0  0  0  0
118127  1  0  0  0  0
127128  1  0  0  0  0
128129  1  0  0  0  0
129130  2  0  0  0  0
130131  1  0  0  0  0
131132  1  0  0  0  0
131133  1  0  0  0  0
 11  2  1  0  0  0  0
 23 17  1  0  0  0  0
 34 24  1  0  0  0  0
 80 39  1  0  0  0  0
107 81  1  0  0  0  0
121112  1  0  0  0  0
133127  1  0  0  0  0
 10  5  1  0  0  0  0
 22 18  1  0  0  0  0
 32 26  2  0  0  0  0
 49 42  1  0  0  0  0
 57 50  1  0  0  0  0
 79 58  2  0  0  0  0
106 83  1  0  0  0  0
120115  1  0  0  0  0
132128  1  0  0  0  0
 23  7  1  0  0  0  0
 38 30  1  0  0  0  0
 70 63  1  0  0  0  0
 78 71  1  0  0  0  0
 93 85  1  0  0  0  0
110 94  1  0  0  0  0
133117  1  0  0  0  0
105 97  1  0  0  0  0
  1134  1  0  0  0  0
  6135  1  0  0  0  0
  9136  1  0  0  0  0
 17137  1  0  0  0  0
 18138  1  0  0  0  0
 19139  1  0  0  0  0
 20140  1  0  0  0  0
 21141  1  0  0  0  0
 22142  1  0  0  0  0
 22143  1  0  0  0  0
 23144  1  0  0  0  0
 25145  1  0  0  0  0
 28146  1  0  0  0  0
 28147  1  0  0  0  0
 29148  1  0  0  0  0
 29149  1  0  0  0  0
 29150  1  0  0  0  0
 33151  1  0  0  0  0
 34152  1  0  0  0  0
 35153  1  0  0  0  0
 36154  1  0  0  0  0
 38155  1  0  0  0  0
 43156  1  0  0  0  0
 44157  1  0  0  0  0
 47158  1  0  0  0  0
 47159  1  0  0  0  0
 47160  1  0  0  0  0
 48161  1  0  0  0  0
 49162  1  0  0  0  0
 51163  1  0  0  0  0
 52164  1  0  0  0  0
 55165  1  0  0  0  0
 55166  1  0  0  0  0
 55167  1  0  0  0  0
 56168  1  0  0  0  0
 57169  1  0  0  0  0
 64170  1  0  0  0  0
 65171  1  0  0  0  0
 68172  1  0  0  0  0
 68173  1  0  0  0  0
 68174  1  0  0  0  0
 69175  1  0  0  0  0
 70176  1  0  0  0  0
 72177  1  0  0  0  0
 73178  1  0  0  0  0
 76179  1  0  0  0  0
 76180  1  0  0  0  0
 76181  1  0  0  0  0
 77182  1  0  0  0  0
 78183  1  0  0  0  0
 82184  1  0  0  0  0
 86185  1  0  0  0  0
 87186  1  0  0  0  0
 90187  1  0  0  0  0
 90188  1  0  0  0  0
 91189  1  0  0  0  0
 91190  1  0  0  0  0
 91191  1  0  0  0  0
 92192  1  0  0  0  0
 93193  1  0  0  0  0
 98194  1  0  0  0  0
 99195  1  0  0  0  0
102196  1  0  0  0  0
102197  1  0  0  0  0
103198  1  0  0  0  0
103199  1  0  0  0  0
103200  1  0  0  0  0
104201  1  0  0  0  0
105202  1  0  0  0  0
108203  1  0  0  0  0
111204  1  0  0  0  0
116205  1  0  0  0  0
119206  1  0  0  0  0
127207  1  0  0  0  0
128208  1  0  0  0  0
129209  1  0  0  0  0
130210  1  0  0  0  0
131211  1  0  0  0  0
132212  1  0  0  0  0
132213  1  0  0  0  0
133214  1  0  0  0  0
M  END
