218

C          9.55650       -3.00240        0.54130
C          8.77570       -3.50220       -0.45570
C          7.57040       -2.85370       -1.04190
O          7.24420       -1.68470       -1.03510
C          6.77720       -3.94810       -1.62640
C          5.51200       -3.83040       -2.19790
C          4.99230       -5.01720       -2.65230
C          5.67630       -6.23610       -2.53730
C          6.93180       -6.36230       -1.99000
C          7.48370       -5.16250       -1.52820
C          8.76880       -4.89260       -0.89280
C          9.81700       -5.76620       -0.79000
C         11.08190       -5.43250       -0.25930
N         12.13930       -5.22660        0.13750
C          9.78700       -7.10050       -1.24580
N          9.82180       -8.19490       -1.59090
C          4.54870       -7.01440       -3.16930
C          3.61110       -7.81950       -2.23510
C          3.63170       -7.12470       -0.89620
C          2.98820       -5.97220       -1.02720
C          2.52280       -5.86360       -2.45810
C          2.24820       -7.34440       -2.76490
C          3.79660       -5.65370       -3.31390
C          9.46000       -1.67250        1.07980
C          9.18090       -0.57470        0.26540
C          8.72430        0.58160        0.86850
N          8.15240        1.67950        0.27800
C          8.01340        1.86310       -1.14290
C          9.25250        2.52520       -1.74180
C          7.57540        2.43820        1.26190
C          7.89340        1.89220        2.53410
C          8.62240        0.69090        2.28060
C          9.08660       -0.35130        3.08420
C          9.49760       -1.51680        2.48370
C          7.35660        2.47830        3.68010
C          6.40910        3.46530        3.54670
C          5.98320        3.90470        2.27600
C          6.65080        3.45840        1.13750
C          4.70960        4.57020        2.10520
C          3.68510        4.64140        3.00300
C          2.41130        4.85050        2.41510
C          1.15390        4.76450        3.05050
C          1.01090        4.82820        4.48710
C          0.10150        4.20580        5.29380
C          0.18830        4.57150        6.65700
C         -0.75020        4.01030        7.68160
C         -2.15940        4.57510        7.49540
C          1.16550        5.49680        6.88890
C          1.60100        6.11060        8.17680
C          2.68280        5.26510        8.85390
S          2.01090        5.90170        5.42960
C          0.06650        4.57090        2.20310
C          0.16130        4.62890        0.79260
C          1.38460        4.94610        0.17010
C          1.48610        5.20070       -1.25000
C          2.46310        4.82620       -2.12530
C          2.31990        5.37750       -3.41910
C          3.31920        5.11530       -4.50510
C          4.50330        6.07670       -4.39180
C          1.23450        6.20080       -3.52310
S          0.33580        6.24780       -2.03860
C          0.79280        7.00870       -4.69690
C          0.23390        8.36780       -4.28770
C          2.49370        4.96380        1.00800
S          4.15190        4.95240        0.48260
C         -1.00930        4.16270        0.14770
C         -1.98020        3.74870        1.01430
S         -1.53540        4.08230        2.68540
C         -3.09080        2.88170        0.80970
C         -3.28200        1.96320       -0.21660
N         -2.56770        1.90620       -1.41300
C         -2.11210        0.63270       -1.79140
C         -1.53070       -0.18240       -0.82090
C         -1.14020       -1.46820       -1.12770
C         -1.32450       -1.95780       -2.41230
S         -0.87980       -3.62610       -2.82150
C         -1.67270       -4.50460       -1.43690
C         -1.86960       -1.14180       -3.39340
C         -2.26710        0.14290       -3.08660
C         -2.60000        2.97100       -2.31350
C         -1.61100        3.09950       -3.29320
C         -1.65260        4.14120       -4.19160
C         -2.66680        5.09420       -4.12610
S         -2.66370        6.36490       -5.35550
C         -3.77790        7.62350       -4.67190
C         -3.63550        4.98750       -3.13940
C         -3.60260        3.93600       -2.24520
C         -4.25750        0.99960        0.13130
S         -4.71830       -0.50660       -0.57360
C         -5.81500       -0.81210        0.77580
C         -5.72950        0.19520        1.77070
N         -6.34490        0.17280        2.99370
C         -6.67050       -1.01110        3.68060
C         -7.83990       -1.06530        4.43770
C         -8.20290       -2.23510        5.06820
C         -7.41620       -3.37680        4.94380
S         -8.00350       -4.84730        5.72190
C         -7.15120       -6.16640        4.80920
C         -6.21900       -3.30850        4.23950
C         -5.84310       -2.13130        3.62580
C         -6.53730        1.39740        3.66600
C         -6.13880        1.54050        4.99040
C         -6.29120        2.74780        5.64250
C         -6.85120        3.83140        4.97710
S         -7.07830        5.42340        5.69540
C         -6.27860        5.29150        7.31980
C         -7.27720        3.68090        3.65780
C         -7.12240        2.47810        3.00700
C         -4.84370        1.21040        1.37390
S         -4.20490        2.62960        2.14230
C         -6.69390       -1.89200        0.84210
C         -6.70600       -3.07660        0.14050
C         -5.70310       -3.52350       -0.82680
O         -4.77020       -2.88640       -1.29220
C         -6.00070       -4.93950       -1.10810
C         -5.31520       -5.78530       -1.97580
C         -5.82250       -7.06170       -2.02920
C         -6.93270       -7.46520       -1.27730
C         -7.62180       -6.63740       -0.42170
C         -7.12010       -5.33580       -0.34930
C         -7.59160       -4.18220        0.41820
C         -8.67370       -4.18260        1.26680
C         -9.39340       -5.33690        1.63240
N         -9.99170       -6.24340        2.00730
C         -9.22300       -3.04820        1.89460
N         -9.75480       -2.17290        2.41760
C         -6.90140       -8.86640       -1.83430
C         -7.93850       -9.23300       -2.92420
C         -8.29860       -7.94630       -3.62460
C         -7.24690       -7.56470       -4.33680
C         -6.15620       -8.58660       -4.13070
C         -7.00380       -9.85900       -3.97170
C         -5.66320       -8.41660       -2.67250
H         10.19310       -3.69240        1.08370
H          5.01770       -2.87350       -2.25800
H          7.44790       -7.30500       -1.91140
H          4.79660       -7.56220       -4.07630
H          3.79920       -8.88990       -2.22250
H          4.14630       -7.50530       -0.03300
H          2.85930       -5.19690       -0.29450
H          1.72250       -5.15510       -2.65540
H          1.41180       -7.74400       -2.19320
H          2.09890       -7.54630       -3.82440
H          3.56650       -5.30360       -4.31790
H          9.29360       -0.65140       -0.80200
H          7.84160        0.88460       -1.59970
H          7.13350        2.48230       -1.32930
H         10.13460        1.91650       -1.55730
H          9.13020        2.64620       -2.81470
H          9.41010        3.50460       -1.29550
H          9.07070       -0.26140        4.15980
H          9.78590       -2.36320        3.08950
H          7.63550        2.11640        4.65830
H          5.94440        3.87930        4.42750
H          6.35720        3.82980        0.16770
H          3.80660        4.43180        4.04950
H         -0.59540        3.46840        4.93950
H         -0.39430        4.23730        8.68690
H         -0.78290        2.92340        7.57260
H         -2.15140        5.65700        7.61190
H         -2.83560        4.15040        8.23510
H         -2.53290        4.34080        6.50060
H          0.74190        6.21020        8.84370
H          1.99650        7.10990        7.98380
H          3.55470        5.18510        8.20870
H          2.98650        5.72140        9.79280
H          2.31150        4.26290        9.05600
H          3.25750        4.14950       -1.86640
H          2.85080        5.21890       -5.48510
H          3.67930        4.08860       -4.41120
H          5.24010        5.86720       -5.16400
H          4.97830        5.97510       -3.41850
H          4.16900        7.10590       -4.50100
H          1.64310        7.15080       -5.36630
H          0.02010        6.46700       -5.25070
H         -0.63800        8.23950       -3.65070
H          0.97920        8.93900       -3.73860
H         -0.06140        8.93180       -5.16890
H         -1.08610        4.08700       -0.91930
H         -1.39220        0.20060        0.18000
H         -0.69340       -2.08750       -0.36510
H         -1.79340       -5.53650       -1.75160
H         -2.63860       -4.04310       -1.25240
H         -1.04480       -4.46400       -0.55140
H         -2.00630       -1.53040       -4.39060
H         -2.72920        0.75920       -3.84280
H         -0.80660        2.38090       -3.33850
H         -0.89240        4.22510       -4.95290
H         -3.64290        8.50370       -5.29290
H         -4.80960        7.28850       -4.73090
H         -3.49210        7.84340       -3.64760
H         -4.43520        5.70650       -3.06410
H         -4.37290        3.85660       -1.49300
H         -8.47640       -0.19680        4.50040
H         -9.12000       -2.28690        5.63250
H         -6.10820       -6.22700        5.10690
H         -7.24830       -5.99010        3.74210
H         -7.66360       -7.08500        5.07650
H         -5.56790       -4.16570        4.17100
H         -4.91110       -2.08540        3.08180
H         -5.69640        0.70150        5.50690
H         -5.96200        2.83100        6.66520
H         -6.80650        4.57320        7.94040
H         -6.35270        6.28060        7.76110
H         -5.23440        5.02060        7.19520
H         -7.72870        4.52120        3.15370
H         -7.45410        2.36380        1.98580
H         -7.45480       -1.79160        1.60460
H         -4.47100       -5.43200       -2.54700
H         -8.47890       -6.96340        0.14360
H         -6.76300       -9.66550       -1.10850
H         -8.77050       -9.83600       -2.57050
H         -9.23180       -7.43180       -3.48880
H         -7.12530       -6.66740       -4.91490
H         -5.36510       -8.60170       -4.87590
H         -7.52330      -10.13630       -4.88760
H         -6.44010      -10.71180       -3.59570
H         -4.71600       -8.92220       -2.49320
