134

C          7.40750       -2.80670       -3.05770
C          7.37880       -3.84340       -2.17940
C          6.32430       -4.12210       -1.16640
O          5.17900       -3.72520       -1.12380
C          6.97210       -4.97100       -0.14940
C          6.40770       -5.39680        1.05130
C          7.24700       -6.16170        1.82330
C          8.55560       -6.48010        1.43300
C          9.12060       -6.07650        0.24700
C          8.28100       -5.29690       -0.55520
C          8.52450       -4.68380       -1.85500
C          9.60250       -4.91410       -2.66530
C         10.68650       -5.75160       -2.32830
N         11.59870       -6.41360       -2.11040
C          9.75390       -4.38530       -3.96590
N          9.93530       -4.01470       -5.03720
C          8.83120       -7.24640        2.70240
C          9.68420       -6.55100        3.79270
C          9.48970       -5.06620        3.61010
C          8.24970       -4.77170        3.97720
C          7.58290       -6.05280        4.41410
C          8.78730       -6.79260        5.01750
C          7.37160       -6.89780        3.13330
C          6.33650       -1.89280       -3.35140
C          5.00420       -2.30290       -3.39570
C          4.02550       -1.33220       -3.49830
N          2.66210       -1.47320       -3.44480
C          1.97090       -2.73280       -3.37030
C          1.79590       -3.35620       -4.75440
C          2.09690       -0.22400       -3.45000
C          3.11780        0.75590       -3.56610
C          4.35620        0.04470       -3.59520
C          5.69360        0.43120       -3.65580
C          6.66570       -0.53310       -3.54590
C          2.78430        2.10670       -3.56520
C          1.46850        2.46760       -3.38430
C          0.46830        1.49800       -3.20740
C          0.77290        0.14430       -3.28110
C         -0.88450        1.90290       -2.81340
C         -1.56920        2.96050       -3.37480
F         -1.04300        3.63310       -4.41340
C         -2.81440        3.39390       -2.89320
F         -3.33670        4.50820       -3.42740
C         -3.45450        2.76000       -1.84530
C         -2.77180        1.66750       -1.23870
N         -3.35500        1.02200       -0.21470
C         -2.70780        0.07170        0.40360
C         -3.39990       -0.66440        1.50740
C         -4.80960       -0.15450        1.76930
C         -1.36890       -0.25230        0.01670
N         -0.82270        0.31330       -1.02460
C         -1.49900        1.25990       -1.70310
C         -0.55230       -1.25080        0.77980
C          0.88760       -1.32940        0.29100
C         -4.69550        3.21020       -1.26810
S         -4.81680        3.22660        0.45140
C         -6.40870        3.95620        0.41880
C         -6.80610        4.10870       -0.91130
S         -8.26490        4.68940       -1.62610
C         -7.65020        4.28830       -3.21540
C         -8.56320        4.56820       -4.32630
O         -9.67180        5.01860       -4.16020
O         -8.04030        4.28210       -5.51930
C         -8.87310        4.55190       -6.64860
C         -8.06100        4.30650       -7.90560
C         -6.39010        3.75080       -3.19350
C         -5.86100        3.67140       -1.87200
Cl        -5.59710        3.14120       -4.57020
C         -7.20310        4.34220        1.50810
C         -6.98030        4.18200        2.85080
C         -5.83620        3.48370        3.44720
O         -4.87370        3.00180        2.86730
C         -6.07750        3.46140        4.89200
C         -5.29840        2.89570        5.88810
C         -5.72340        2.99420        7.20380
O         -5.06820        2.49250        8.27360
C         -3.85420        1.81170        8.05890
C         -6.94190        3.66850        7.50380
O         -7.26010        3.70430        8.81350
C         -8.44720        4.35530        9.20950
C         -7.70920        4.22970        6.49130
C         -7.27660        4.12720        5.17540
C         -7.85630        4.61060        3.92740
C         -9.00240        5.35590        3.82190
C         -9.54840        5.86690        2.62580
N        -10.05500        6.32880        1.70450
C         -9.79310        5.73400        4.92640
N        -10.47500        6.06810        5.78820
H          8.36230       -2.55810       -3.50790
H          5.39770       -5.12420        1.31510
H         10.12870       -6.32600       -0.03970
H          9.09110       -8.29580        2.58010
H         10.71280       -6.89670        3.84890
H         10.23230       -4.41180        3.19250
H          7.74920       -3.82230        3.92670
H          6.69790       -5.94560        5.03600
H          9.16720       -6.31340        5.91850
H          8.59540       -7.84640        5.21420
H          6.67610       -7.72040        3.28800
H          4.75800       -3.34950       -3.35410
H          0.99250       -2.56590       -2.91440
H          2.54310       -3.40160       -2.72070
H          2.76410       -3.52550       -5.21940
H          1.21750       -2.69440       -5.39520
H          1.27630       -4.30720       -4.67420
H          5.95740        1.47160       -3.76900
H          7.70810       -0.25110       -3.55630
H          3.55060        2.85880       -3.67380
H          1.20380        3.51210       -3.33560
H         -0.01230       -0.58750       -3.18590
H         -2.79850       -0.57190        2.41640
H         -3.42300       -1.72790        1.24700
H         -5.28680       -0.75570        2.53970
H         -5.40470       -0.20660        0.86210
H         -4.77510        0.88010        2.09620
H         -0.57190       -0.97620        1.83820
H         -1.03170       -2.23130        0.69560
H          0.91920       -1.62610       -0.75170
H          1.44750       -2.05140        0.87950
H          1.36690       -0.35810        0.37300
H         -9.75030        3.89640       -6.60290
H         -9.22130        5.58910       -6.58940
H         -8.67350        4.50500       -8.78010
H         -7.19230        4.95920       -7.92280
H         -7.72000        3.27510       -7.93530
H         -8.12530        4.82520        1.20540
H         -4.38280        2.39690        5.61550
H         -3.99650        0.92720        7.43010
H         -3.51420        1.50260        9.04560
H         -3.10300        2.46480        7.60410
H         -8.43470        5.41490        8.93830
H         -9.33080        3.88020        8.77330
H         -8.48230        4.25910       10.29300
H         -8.62840        4.73510        6.72890
