199

C         -8.00400       -7.46490       -3.71310
C         -8.08040       -8.49350       -4.59460
C         -7.05530       -8.85520       -5.61400
O         -6.10210       -8.20860       -5.98680
C         -7.38480      -10.23200       -6.03090
C         -6.65970      -11.02290       -6.91990
C         -7.18420      -12.27820       -7.10870
C         -8.34470      -12.71990       -6.45730
C         -9.07230      -11.94970       -5.58270
C         -8.55610      -10.66560       -5.37840
C         -9.04230       -9.58440       -4.53110
C        -10.23640       -9.56210       -3.86100
C        -11.16290      -10.62570       -3.84450
N        -11.95560      -11.45400       -3.78330
C        -10.72710       -8.46210       -3.12530
N        -11.20160       -7.60770       -2.52180
C         -8.27770      -14.08530       -7.09350
C         -7.75310      -15.25810       -6.22830
C         -6.83720      -14.65300       -5.19340
C         -5.74250      -14.23600       -5.81540
C         -5.89910      -14.55010       -7.28280
C         -6.71540      -15.84960       -7.19570
C         -6.98900      -13.59170       -7.82380
C         -7.10860       -6.33750       -3.75150
C         -6.63960       -5.83500       -2.53250
C         -5.74230       -4.78570       -2.55410
N         -5.10620       -4.14930       -1.51310
C         -5.28780       -4.42920       -0.11330
C         -6.41980       -3.59710        0.48830
C         -4.32800       -3.14280       -2.03030
C         -4.43410       -3.14300       -3.44400
C         -5.34530       -4.18980       -3.78140
C         -5.87700       -4.64960       -4.98140
C         -6.74240       -5.71770       -4.96050
C         -3.70510       -2.22800       -4.19580
C         -2.93240       -1.30010       -3.54020
C         -2.88390       -1.25350       -2.13580
C         -3.55420       -2.20220       -1.37240
C         -2.15730       -0.18170       -1.47860
C         -2.17770        1.16610       -1.78550
N         -2.98660        1.76250       -2.74240
C         -2.50480        2.87490       -3.44460
C         -3.36290        3.91930       -3.77730
C         -2.89600        5.02740       -4.45590
C         -1.55530        5.11390       -4.80820
S         -0.83800        6.48070       -5.66460
C         -2.23060        7.61350       -5.93200
C         -0.69400        4.06850       -4.48300
C         -1.16190        2.95930       -3.81500
C         -4.22820        1.20200       -3.07160
C         -5.03670        0.63280       -2.09110
C         -6.18080       -0.06000       -2.43280
C         -6.54620       -0.18470       -3.76600
S         -7.92580       -1.13250       -4.32720
C         -8.35230       -2.15430       -2.88970
C         -5.79380        0.46580       -4.74110
C         -4.64920        1.14980       -4.40130
C         -1.30420        1.89210       -0.93050
S         -0.79260        3.54610       -0.83050
C          0.24270        3.15620        0.52390
C          0.22670        1.81420        0.84440
N          1.06200        1.23790        1.80030
C          0.49540        0.43700        2.79000
C         -0.82760        0.64860        3.18550
C         -1.40020       -0.13910        4.15750
C         -0.66710       -1.15430        4.76740
S         -1.50770       -2.09610        6.00400
C         -0.20680       -3.14220        6.71630
C          0.64550       -1.37500        4.37370
C          1.21770       -0.59060        3.39140
C          2.43350        1.52350        1.74180
C          3.06590        1.63960        0.50250
C          4.40230        1.96350        0.42450
C          5.14480        2.18020        1.58190
S          6.85100        2.59480        1.38600
C          7.27330        3.36170        2.97480
C          4.52850        2.04360        2.81800
C          3.18860        1.72070        2.89480
C         -0.67560        1.10420        0.01980
S         -1.15120       -0.54910       -0.09070
C          1.08580        4.09040        1.22480
C          1.06610        4.29900        2.56870
C          2.20230        4.99090        3.05340
C          2.51000        5.34260        4.38000
C          1.55890        5.22540        5.47740
S          1.23240        6.65300        6.42560
C          0.09700        5.83010        7.43570
C         -0.63740        6.54780        8.51310
C         -1.80030        7.36030        7.93880
C         -0.01900        4.53000        7.04670
Cl        -1.05180        3.38660        7.80600
C          0.80810        4.18230        5.94280
Cl         0.85470        2.56660        5.36130
C          3.77020        5.88740        4.59900
C          4.70030        6.13470        3.55570
C          4.32690        5.92470        2.20920
C          5.21080        6.29260        1.12450
S          5.49380        5.21870       -0.21000
C          6.60940        6.30170       -0.94980
C          7.31510        5.96260       -2.21750
C          7.03290        4.53840       -2.67420
C          6.72640        7.44550       -0.21030
C          5.93800        7.44680        0.96530
Cl         5.84180        8.81420        1.99910
Cl         7.73900        8.75740       -0.65580
C          3.09930        5.31360        2.00170
S          2.46460        4.84100        0.45160
C          5.96400        6.51740        4.04450
C          6.02290        6.60840        5.41400
S          4.46260        6.24050        6.15150
C          7.07140        6.98120        6.28350
C          8.41840        7.07090        6.05920
C          9.18240        6.55750        4.89820
O          8.76760        6.09050        3.85680
C         10.60450        6.66410        5.27660
C         11.69940        6.27590        4.55960
C         12.98390        6.45730        5.11800
C         14.14730        6.07350        4.42340
C         15.37760        6.25430        4.99040
F         16.48390        5.88640        4.32940
C         15.49790        6.82660        6.27260
F         16.71680        6.99090        6.80360
C         14.38720        7.21020        6.97040
C         13.10370        7.03710        6.41430
C         11.94990        7.43150        7.12980
C         10.71370        7.24990        6.56680
C          9.36990        7.55350        7.04810
C          9.08380        8.24050        8.19910
C          7.79890        8.62840        8.63610
N          6.79910        9.00330        9.05920
C         10.06320        8.69310        9.10860
N         10.80840        9.08210        9.89040
H         -8.64470       -7.50540       -2.83900
H         -5.76930      -10.64390       -7.39690
H         -9.95980      -12.30410       -5.08560
H         -9.13280      -14.37060       -7.70300
H         -8.52650      -15.92350       -5.85410
H         -7.09520      -14.54310       -4.15630
H         -4.90330      -13.70750       -5.40220
H         -4.98460      -14.57170       -7.86960
H         -7.13900      -16.16110       -8.14940
H         -6.15200      -16.67190       -6.75720
H         -7.00370      -13.55060       -8.91110
H         -6.95240       -6.29590       -1.60690
H         -4.34950       -4.21500        0.40550
H         -5.50300       -5.49450        0.00190
H         -6.52350       -3.81800        1.54700
H         -7.36130       -3.82050       -0.00900
H         -6.20780       -2.53640        0.37300
H         -5.61120       -4.17340       -5.91180
H         -7.17660       -6.07150       -5.88020
H         -3.75220       -2.24610       -5.27320
H         -2.34820       -0.58950       -4.10420
H         -3.48930       -2.16670       -0.29520
H         -4.40440        3.86000       -3.49790
H         -3.58800        5.81870       -4.69410
H         -2.63100        7.94280       -4.97760
H         -2.99270        7.13050       -6.53660
H         -1.81720        8.46110       -6.46980
H          0.34470        4.13610       -4.76760
H         -0.48990        2.14560       -3.58480
H         -4.75370        0.71490       -1.05220
H         -6.77670       -0.50290       -1.65090
H         -8.81460       -1.54700       -2.11650
H         -9.06260       -2.89120       -3.25180
H         -7.45900       -2.65120       -2.52570
H         -6.10270        0.39820       -5.77280
H         -4.05100        1.61660       -5.16950
H         -1.39950        1.44640        2.73470
H         -2.41980        0.03150        4.46770
H          0.14290       -3.86030        5.98010
H          0.60610       -2.52100        7.08050
H         -0.67320       -3.66420        7.54600
H          1.23540       -2.16160        4.81630
H          2.23450       -0.78060        3.08220
H          2.49900        1.48050       -0.40270
H          4.88470        2.05800       -0.53550
H          7.46490        2.59840        3.72400
H          8.16990        3.94970        2.80750
H          6.46600        4.01840        3.28160
H          5.08040        2.18910        3.73310
H          2.72400        1.62810        3.86250
H          0.27590        3.93530        3.19750
H         -1.01780        5.81340        9.22500
H          0.04900        7.21790        9.03390
H         -2.50250        6.70610        7.42800
H         -1.43070        8.09670        7.22910
H         -2.32390        7.87740        8.73800
H          7.00910        6.67260       -2.99250
H          8.38910        6.10200       -2.06280
H          7.33650        3.82820       -1.90830
H          7.57920        4.32120       -3.58820
H          5.97030        4.40570       -2.86500
H          6.81590        6.69280        3.41640
H          6.73330        7.20200        7.28930
H         11.58630        5.83640        3.58020
H         14.07170        5.63410        3.44110
H         14.49760        7.64810        7.95010
H         12.07560        7.86260        8.10950
