178

C          9.55240        3.07000        3.58610
C         10.10070        1.88140        3.96430
C          9.48140        0.53420        3.91020
O          8.47680        0.17770        3.32320
C         10.29680       -0.32050        4.78860
C         10.05290       -1.65640        5.10230
C         10.97310       -2.20640        5.96030
C         12.05670       -1.48020        6.47450
C         12.31200       -0.16490        6.16890
C         11.38770        0.41370        5.29350
C         11.32640        1.76310        4.74460
C         12.29660        2.72040        4.87220
C         12.28460        3.98380        4.24140
N         12.37130        5.01730        3.74840
C         13.47950        2.56080        5.62470
N         14.45750        2.50220        6.22310
C         12.55760       -2.64930        7.28450
C         12.27140       -2.64810        8.80680
C         11.02200       -1.82720        9.00920
C         10.00040       -2.51690        8.51960
C         10.54070       -3.81680        7.97660
C         11.69330       -4.06380        8.96290
C         11.35400       -3.45960        6.70780
C          8.37310        3.32900        2.81220
C          7.90240        2.44500        1.83750
C          6.71290        2.74140        1.20260
N          6.00950        1.99030        0.29410
C          6.43290        0.72320       -0.23970
C          7.28680        0.90200       -1.49390
C          4.84210        2.64530        0.00440
C          4.80570        3.88150        0.70150
C          5.99850        3.93630        1.48250
C          6.51110        4.84450        2.40640
C          7.68360        4.54000        3.05220
C          3.70720        4.72490        0.56050
C          2.62860        4.28900       -0.17190
C          2.61860        3.01400       -0.76220
C          3.75640        2.21430       -0.73760
C          1.37270        2.45630       -1.25560
C          0.86390        1.21480       -0.92530
N          1.46580        0.27800       -0.09000
C          2.17000        0.69350        1.04550
C          3.32560        0.03010        1.45120
C          4.08740        0.50620        2.50120
C          3.70310        1.66030        3.16890
S          4.63410        2.41590        4.46310
C          5.90490        1.18680        4.86060
C          2.51800        2.29620        2.80410
C          1.75700        1.81700        1.76410
C          1.34270       -1.07760       -0.41500
C          1.19520       -2.03980        0.58030
C          1.06110       -3.37550        0.25680
C          1.05930       -3.77400       -1.07330
S          0.89360       -5.44780       -1.61150
C          0.61230       -6.37670       -0.07770
C          1.20550       -2.81540       -2.07340
C          1.35160       -1.48540       -1.75040
C         -0.42660        1.03010       -1.48220
S         -1.56340       -0.26640       -1.44220
C         -2.72260        0.71090       -2.33150
C         -2.21570        1.94570       -2.70470
N         -2.85120        2.85960       -3.52390
C         -3.73910        2.44380       -4.52630
C         -3.54950        1.24610       -5.21230
C         -4.48520        0.79200       -6.12070
C         -5.61720        1.54970       -6.39270
S         -6.91370        1.05240       -7.47760
C         -6.31330       -0.48670       -8.22310
C         -5.77190        2.78580       -5.76670
C         -4.85430        3.22260       -4.83580
C         -2.57710        4.22570       -3.35080
C         -2.39350        5.05890       -4.45450
C         -2.09750        6.39030       -4.27390
C         -1.97180        6.92150       -2.99070
S         -1.57490        8.63800       -2.88470
C         -1.17370        8.87960       -1.13020
C         -2.17260        6.10080       -1.89020
C         -2.47610        4.76510       -2.07180
C         -0.90390        2.12080       -2.18870
S          0.24630        3.41520       -2.19470
C         -4.01530        0.15540       -2.59380
C         -5.24140        0.75980       -2.47570
C         -6.32240       -0.09330       -2.75880
S         -7.98590        0.38740       -2.76910
C         -7.86680        2.19920       -3.05730
C         -9.12860        2.66430       -3.75850
C         -5.91480       -1.38270       -3.11730
S         -4.16930       -1.49580       -3.09900
C         -6.64060       -2.48970       -3.58170
C         -7.92120       -2.84100       -3.23890
C         -8.58430       -2.45150       -1.98630
O         -8.20630       -1.62030       -1.18060
C         -9.73820       -3.36200       -1.84450
C        -10.62250       -3.43380       -0.77250
C        -11.57370       -4.41900       -0.89580
C        -11.63910       -5.27740       -2.00080
C        -10.77170       -5.21890       -3.06630
C         -9.80000       -4.22080       -2.96130
C         -8.71700       -3.86640       -3.87250
C         -8.53760       -4.32710       -5.15240
C         -9.33960       -5.30750       -5.76850
N         -9.95330       -6.10730       -6.31850
C         -7.55720       -3.81740       -6.02600
N         -6.80310       -3.41320       -6.79350
C        -12.83030       -6.02280       -1.45210
C        -14.22140       -5.70660       -2.05410
C        -14.15010       -4.29350       -2.57710
C        -14.08960       -3.47790       -1.53300
C        -14.11890       -4.32480       -0.28490
C        -15.01860       -5.47680       -0.76010
C        -12.75930       -5.06360       -0.22220
H         10.02840        3.96440        3.97260
H          9.20520       -2.17740        4.68510
H         13.14780        0.38020        6.57450
H         13.56330       -2.99380        7.05250
H         13.12450       -2.38390        9.42560
H         11.01740       -0.83610        9.42360
H          8.97150       -2.21690        8.44300
H          9.81840       -4.61740        7.83990
H         11.34530       -4.26740        9.97440
H         12.37680       -4.84940        8.64380
H         11.57420       -4.33220        6.09600
H          8.46370        1.56160        1.58890
H          5.54450        0.13200       -0.47280
H          7.00030        0.19630        0.53200
H          8.17540        1.48630       -1.26690
H          6.72060        1.42100       -2.26410
H          7.59430       -0.06660       -1.87870
H          5.98560        5.76260        2.61820
H          8.08260        5.22160        3.78860
H          3.69020        5.68520        1.05220
H          1.74290        4.90120       -0.25720
H          3.76000        1.26530       -1.25100
H          3.64170       -0.85880        0.92440
H          4.99110       -0.01630        2.77040
H          5.43170        0.24960        5.13900
H          6.44710        1.59190        5.70990
H          6.58370        1.05340        4.02330
H          2.20770        3.17530        3.34720
H          0.84080        2.31810        1.49130
H          1.17970       -1.73480        1.61620
H          0.94810       -4.09240        1.05390
H         -0.27940       -6.00680        0.42000
H          1.48380       -6.30820        0.56700
H          0.46280       -7.40720       -0.38470
H          1.20830       -3.12990       -3.10560
H          1.47570       -0.75160       -2.53330
H         -2.66610        0.65440       -5.02480
H         -4.32210       -0.15620       -6.60650
H         -6.25450       -1.27630       -7.47900
H         -5.35480       -0.31160       -8.70260
H         -7.05450       -0.75230       -8.97090
H         -6.63460        3.38890       -6.00620
H         -5.00240        4.16790       -4.33420
H         -2.47500        4.64980       -5.45020
H         -1.94590        7.03580       -5.12520
H         -0.79090        9.89250       -1.05470
H         -2.06740        8.77970       -0.52090
H         -0.40770        8.17080       -0.83000
H         -2.10400        6.48640       -0.88590
H         -2.64080        4.13280       -1.21120
H         -5.35050        1.77660       -2.14570
H         -6.99160        2.38010       -3.67710
H         -7.75290        2.68600       -2.08840
H         -9.09250        3.74140       -3.90760
H        -10.00810        2.42400       -3.16600
H         -9.21970        2.18010       -4.72780
H         -6.09200       -3.15140       -4.24260
H        -10.53470       -2.75890        0.06450
H        -10.82230       -5.89150       -3.90690
H        -12.68660       -7.08730       -1.27630
H        -14.59480       -6.45650       -2.74630
H        -14.09290       -4.04360       -3.62030
H        -13.97130       -2.41010       -1.52970
H        -14.39950       -3.81670        0.63410
H        -15.01430       -6.33530       -0.08970
H        -16.04400       -5.16120       -0.94700
H        -12.57110       -5.50260        0.75600
