223

C         -6.56920        4.62950        7.70670
C         -7.76120        4.77540        7.05870
C         -8.09930        5.51600        5.81920
O         -7.35920        5.96880        4.96980
C         -9.57000        5.65370        5.82730
C        -10.34470        6.33920        4.89310
C        -11.69380        6.30310        5.15080
C        -12.23760        5.63820        6.25870
C        -11.48750        4.95230        7.18360
C        -10.11130        4.97400        6.93610
C         -9.01570        4.33850        7.65400
C         -9.13840        3.36670        8.61360
C        -10.36460        2.95140        9.17180
N        -11.32820        2.58550        9.67760
C         -8.06480        2.59460        9.10610
N         -7.25150        1.89150        9.51270
C        -13.65070        6.02150        5.89660
C        -14.28410        7.17330        6.70520
C        -15.43380        7.63340        5.83830
C        -14.92090        8.25950        4.78680
C        -13.41580        8.23380        4.92570
C        -13.29020        8.31440        6.45260
C        -13.04530        6.75930        4.65950
C         -5.20780        4.75870        7.29510
C         -4.81610        4.89800        5.95920
C         -3.47730        4.76500        5.65250
N         -2.86950        4.75240        4.42080
C         -3.51970        5.00840        3.16060
C         -4.05620        3.73450        2.51320
C         -1.57040        4.35560        4.58790
C         -1.28990        4.21630        5.97320
C         -2.50950        4.48910        6.65530
C         -2.89520        4.43630        7.99370
C         -4.22510        4.56760        8.29850
C         -0.04060        3.76950        6.39340
C          0.86040        3.35190        5.44450
C          0.54670        3.40740        4.07590
C         -0.63780        3.98360        3.63420
C          1.37960        2.70090        3.11850
C          1.73910        1.37050        3.20560
N          1.37750        0.52110        4.24710
C          2.27930       -0.45350        4.67490
C          1.83440       -1.69360        5.12650
C          2.73110       -2.65860        5.54040
C          4.09540       -2.40540        5.50110
S          5.33770       -3.55740        6.00270
C          4.39880       -5.03470        6.48360
C          4.54660       -1.16860        5.04600
C          3.65280       -0.20300        4.64240
C          0.07230        0.59530        4.76010
C         -1.00610        0.82820        3.90600
C         -2.27450        0.98930        4.41320
C         -2.50540        0.92970        5.78590
S         -4.16250        1.25180        6.30780
C         -4.12620        1.01690        8.10400
C         -1.44540        0.64490        6.63560
C         -0.17170        0.47660        6.12530
C          2.39430        0.94430        2.02210
S          3.01210       -0.56590        1.45210
C          3.30390        0.12550       -0.13760
C          2.98230        1.46920       -0.19900
N          2.94070        2.25910       -1.34720
C          1.74920        2.99600       -1.48030
C          1.74250        4.36380       -1.73300
C          0.55980        5.07860       -1.70590
C         -0.63690        4.43780       -1.41730
S         -2.19210        5.25730       -1.24360
C         -1.83120        6.98440       -1.66800
C         -0.64230        3.05890       -1.21480
C          0.53340        2.34610       -1.25380
C          4.09360        2.62890       -2.03810
C          5.34230        2.62990       -1.41700
C          6.44220        3.13160       -2.07700
C          6.32370        3.63710       -3.36930
S          7.77150        4.37240       -4.06940
C          7.19750        5.00820       -5.66760
C          5.10030        3.56140       -4.02020
C          3.99800        3.05870       -3.35930
C          2.47410        1.92100        1.04530
S          1.78690        3.41640        1.57660
C          3.60040       -0.79100       -1.19370
C          3.14170       -2.08030       -1.28430
C          3.53630       -2.56060       -2.55210
C          3.29600       -3.77300       -3.22730
C          2.49630       -4.85660       -2.72010
C          2.52860       -6.17640       -3.10120
C          1.55650       -6.95830       -2.46070
C          0.76050       -6.26270       -1.59440
Si        -0.71590       -6.87630       -0.59150
C         -0.26940       -8.57480        0.17720
C          1.16080       -8.68740        0.69870
C         -2.18380       -7.05200       -1.80230
C         -3.39840       -7.74090       -1.19000
C         -1.12730       -5.54360        0.72190
C         -0.06320       -5.34550        1.79730
S          1.23230       -4.60170       -1.55670
C          3.85120       -3.81310       -4.49950
C          4.61180       -2.77220       -5.09580
C          4.89110       -1.57410       -4.39270
C          5.79680       -0.56530       -4.86950
C          6.56850        0.27640       -4.10300
C          7.47780        1.02940       -4.85680
C          7.39750        0.81950       -6.20620
Si         8.47410        1.48360       -7.60520
C          9.94150        2.41310       -6.81380
C         10.88140        3.01640       -7.85100
C          7.47050        2.63920       -8.76410
C          5.98220        2.30830       -8.82060
C          9.04280       -0.04110       -8.61420
C          9.79220       -1.07420       -7.77790
S          6.18220       -0.36260       -6.55130
C          4.28400       -1.50580       -3.13940
O          4.29870       -0.43300       -2.30330
C          4.92130       -3.24320       -6.39030
C          4.32400       -4.48120       -6.52350
O          3.70390       -4.83750       -5.36430
C          4.29450       -5.36660       -7.62360
C          3.54440       -6.50120       -7.73300
C          3.93350       -7.56000       -8.69950
O          4.70230       -7.45620       -9.62800
C          3.22980       -8.77700       -8.23730
C          3.33290      -10.07440       -8.70220
C          2.59780      -11.06600       -8.07080
C          1.78590      -10.73780       -6.99340
Br         0.81040      -12.11910       -6.12630
C          1.65920       -9.43780       -6.51960
C          2.38850       -8.45000       -7.15760
C          2.44640       -7.00500       -6.93540
C          1.47790       -6.27130       -6.30260
C          0.40580       -6.83520       -5.58380
N         -0.47760       -7.24450       -4.97480
C          1.37830       -4.86540       -6.38720
N          1.20730       -3.73570       -6.49540
H         -6.65710        4.30040        8.73760
H         -9.88740        6.83510        4.05120
H        -11.91580        4.44280        8.03080
H        -14.33660        5.19390        5.72630
H        -14.51680        6.93000        7.73830
H        -16.46510        7.41390        6.04350
H        -15.43820        8.66750        3.93830
H        -12.85760        8.95740        4.33770
H        -13.64680        9.26520        6.84530
H        -12.28650        8.11970        6.82610
H        -13.32710        6.42230        3.66360
H         -5.55330        5.05420        5.19210
H         -4.34020        5.70730        3.34020
H         -2.79840        5.48800        2.49260
H         -4.57010        3.98100        1.58830
H         -4.75240        3.23610        3.18380
H         -3.24010        3.05360        2.28560
H         -2.16130        4.26010        8.76630
H         -4.54740        4.48650        9.32660
H          0.19260        3.70330        7.44500
H          1.81500        2.94480        5.74130
H         -0.85000        4.03630        2.57690
H          0.77570       -1.90470        5.14620
H          2.34900       -3.60710        5.88160
H          3.83360       -5.40770        5.63440
H          5.14200       -5.76750        6.78240
H          3.74870       -4.80670        7.32350
H          5.60790       -0.97410        5.02150
H          4.01380        0.75750        4.30570
H         -0.83950        0.88520        2.84030
H         -3.10950        1.16450        3.75350
H         -3.84070       -0.00500        8.33540
H         -3.44510        1.73410        8.55210
H         -5.13920        1.20590        8.44940
H         -1.59390        0.56820        7.70070
H          0.64980        0.27250        6.79600
H          2.67250        4.88030       -1.91730
H          0.59460        6.14130       -1.88340
H         -1.44800        7.04310       -2.68260
H         -1.12900        7.40600       -0.95440
H         -2.78090        7.50610       -1.60200
H         -1.57870        2.55980       -1.01740
H          0.52440        1.27910       -1.08580
H          5.43750        2.26770       -0.40390
H          7.40320        3.16440       -1.58640
H          6.87280        4.18280       -6.29390
H          6.40150        5.73100       -5.51300
H          8.05670        5.49750       -6.11620
H          4.98620        3.89760       -5.03800
H          3.04370        3.01620       -3.86280
H          2.56810       -2.59150       -0.54010
H          3.24940       -6.56860       -3.79640
H          1.43300       -8.01230       -2.63610
H         -0.96060       -8.79140        0.99300
H         -0.42820       -9.35260       -0.57130
H          1.34680       -7.96200        1.48570
H          1.87530       -8.50430       -0.09970
H          1.34520       -9.68210        1.10160
H         -2.47910       -6.06420       -2.15870
H         -1.86450       -7.60710       -2.68420
H         -3.14360       -8.74330       -0.85570
H         -4.20390       -7.81990       -1.91760
H         -3.76880       -7.18150       -0.33410
H         -1.28250       -4.59310        0.20790
H         -2.07320       -5.78820        1.20730
H         -0.32910       -4.51890        2.45470
H          0.90110       -5.12230        1.34710
H          0.03880       -6.24080        2.40520
H          6.50010        0.31860       -3.03170
H          8.19080        1.70400       -4.42050
H          9.58070        3.20660       -6.15920
H         10.50640        1.73020       -6.17920
H         10.35050        3.71800       -8.48990
H         11.70070        3.54720       -7.36950
H         11.30570        2.23970       -8.48200
H          7.88080        2.57000       -9.77250
H          7.59130        3.67980       -8.45980
H          5.52590        2.40370       -7.83770
H          5.82920        1.28680       -9.15890
H          5.46210        2.97650       -9.50470
H          8.16920       -0.51880       -9.06180
H          9.67910        0.27430       -9.44220
H         10.69900       -0.64530       -7.35890
H         10.07120       -1.93430       -8.38380
H          9.17210       -1.42380       -6.95560
H          5.47970       -2.74520       -7.15530
H          5.00100       -5.17130       -8.42010
H          3.97550      -10.30310       -9.53800
H          2.65510      -12.09000       -8.40620
H          1.01970       -9.22360       -5.67840
