
  xtb     02092205293D
 energy: -363.707089559201 gnorm: 0.000400411434 xtb: 6.4.1 (unknown)
221245  0     0  0            999 V2000
    2.2281   -0.0504    8.2593 C   0  0  0  0  0  0  0  0  0  0  0  0
    2.9222   -0.8926    9.0930 C   0  0  0  0  0  0  0  0  0  0  0  0
    3.7447   -2.0336    8.6814 C   0  0  0  0  0  0  0  0  0  0  0  0
    4.0938   -2.3314    7.5518 O   0  0  0  0  0  0  0  0  0  0  0  0
    4.0612   -2.7774    9.9139 C   0  0  0  0  0  0  0  0  0  0  0  0
    4.7853   -3.9629   10.0162 C   0  0  0  0  0  0  0  0  0  0  0  0
    4.9072   -4.4337   11.3018 C   0  0  0  0  0  0  0  0  0  0  0  0
    4.3543   -3.7707   12.4048 C   0  0  0  0  0  0  0  0  0  0  0  0
    3.6443   -2.5963   12.3182 C   0  0  0  0  0  0  0  0  0  0  0  0
    3.5029   -2.1027   11.0182 C   0  0  0  0  0  0  0  0  0  0  0  0
    2.8258   -0.8996   10.5347 C   0  0  0  0  0  0  0  0  0  0  0  0
    2.2304    0.0524   11.3260 C   0  0  0  0  0  0  0  0  0  0  0  0
    1.6798    1.2655   10.8694 C   0  0  0  0  0  0  0  0  0  0  0  0
    1.2383    2.2893   10.5875 N   0  0  0  0  0  0  0  0  0  0  0  0
    2.1145   -0.0326   12.7278 C   0  0  0  0  0  0  0  0  0  0  0  0
    1.9680   -0.0393   13.8671 N   0  0  0  0  0  0  0  0  0  0  0  0
    4.8531   -4.8075   13.3804 C   0  0  0  0  0  0  0  0  0  0  0  0
    3.8121   -5.8211   13.9012 C   0  0  0  0  0  0  0  0  0  0  0  0
    4.6516   -6.9624   14.4279 C   0  0  0  0  0  0  0  0  0  0  0  0
    5.1779   -7.5910   13.3846 C   0  0  0  0  0  0  0  0  0  0  0  0
    4.7025   -6.8853   12.1350 C   0  0  0  0  0  0  0  0  0  0  0  0
    3.3062   -6.4468   12.5949 C   0  0  0  0  0  0  0  0  0  0  0  0
    5.4711   -5.5468   12.1505 C   0  0  0  0  0  0  0  0  0  0  0  0
    2.1910    0.0168    6.8650 C   0  0  0  0  0  0  0  0  0  0  0  0
    1.2933    0.8520    6.1581 C   0  0  0  0  0  0  0  0  0  0  0  0
    0.2861    1.6074    6.7069 N   0  0  0  0  0  0  0  0  0  0  0  0
   -0.5014    1.1651    7.7842 C   0  0  0  0  0  0  0  0  0  0  0  0
   -0.8292   -0.1836    7.9170 C   0  0  0  0  0  0  0  0  0  0  0  0
   -1.5904   -0.6046    8.9889 C   0  0  0  0  0  0  0  0  0  0  0  0
   -2.0488    0.3091    9.9256 C   0  0  0  0  0  0  0  0  0  0  0  0
   -1.7464    1.6519    9.7799 C   0  0  0  0  0  0  0  0  0  0  0  0
   -0.9733    2.0836    8.7183 C   0  0  0  0  0  0  0  0  0  0  0  0
   -0.0470    2.8189    6.0691 C   0  0  0  0  0  0  0  0  0  0  0  0
   -1.3764    3.1540    5.8298 C   0  0  0  0  0  0  0  0  0  0  0  0
   -1.6829    4.3332    5.1781 C   0  0  0  0  0  0  0  0  0  0  0  0
   -0.6743    5.1857    4.7596 C   0  0  0  0  0  0  0  0  0  0  0  0
    0.6489    4.8597    5.0075 C   0  0  0  0  0  0  0  0  0  0  0  0
    0.9654    3.6849    5.6619 C   0  0  0  0  0  0  0  0  0  0  0  0
    1.5602    0.8185    4.7798 C   0  0  0  0  0  0  0  0  0  0  0  0
    0.8074    1.5445    3.3938 S   0  0  0  0  0  0  0  0  0  0  0  0
    1.9578    0.7450    2.3407 C   0  0  0  0  0  0  0  0  0  0  0  0
    2.8620   -0.0359    3.0341 C   0  0  0  0  0  0  0  0  0  0  0  0
    3.9099   -0.7104    2.4137 N   0  0  0  0  0  0  0  0  0  0  0  0
    4.1728   -2.0429    2.7352 C   0  0  0  0  0  0  0  0  0  0  0  0
    5.4516   -2.5712    2.5656 C   0  0  0  0  0  0  0  0  0  0  0  0
    5.7078   -3.8869    2.8933 C   0  0  0  0  0  0  0  0  0  0  0  0
    4.7045   -4.6921    3.4079 C   0  0  0  0  0  0  0  0  0  0  0  0
    3.4344   -4.1713    3.5824 C   0  0  0  0  0  0  0  0  0  0  0  0
    3.1631   -2.8605    3.2409 C   0  0  0  0  0  0  0  0  0  0  0  0
    4.5881   -0.0435    1.3814 C   0  0  0  0  0  0  0  0  0  0  0  0
    4.9341    1.2962    1.5481 C   0  0  0  0  0  0  0  0  0  0  0  0
    5.5644    1.9849    0.5311 C   0  0  0  0  0  0  0  0  0  0  0  0
    5.8577    1.3493   -0.6637 C   0  0  0  0  0  0  0  0  0  0  0  0
    5.5276    0.0145   -0.8269 C   0  0  0  0  0  0  0  0  0  0  0  0
    4.8972   -0.6840    0.1845 C   0  0  0  0  0  0  0  0  0  0  0  0
    2.6274   -0.0002    4.4299 C   0  0  0  0  0  0  0  0  0  0  0  0
    3.3039   -0.8289    5.7836 S   0  0  0  0  0  0  0  0  0  0  0  0
    1.7893    0.7242    0.8946 C   0  0  0  0  0  0  0  0  0  0  0  0
    1.7224   -0.5503    0.3108 C   0  0  0  0  0  0  0  0  0  0  0  0
    1.3680   -0.7465   -1.0007 C   0  0  0  0  0  0  0  0  0  0  0  0
    1.0808    0.3296   -1.8408 C   0  0  0  0  0  0  0  0  0  0  0  0
    1.2349    1.6114   -1.3089 C   0  0  0  0  0  0  0  0  0  0  0  0
    0.9833    2.9185   -1.8928 C   0  0  0  0  0  0  0  0  0  0  0  0
    0.8605    3.1498   -3.2231 C   0  0  0  0  0  0  0  0  0  0  0  0
    0.4862    4.3040   -3.9798 C   0  0  0  0  0  0  0  0  0  0  0  0
    0.1597    5.6165   -3.5234 C   0  0  0  0  0  0  0  0  0  0  0  0
   -0.2264    6.4371   -4.5232 C   0  0  0  0  0  0  0  0  0  0  0  0
   -0.2133    5.6531   -6.0640 S   0  0  0  0  0  0  0  0  0  0  0  0
    0.3261    4.2049   -5.3466 C   0  0  0  0  0  0  0  0  0  0  0  0
    1.0713    3.8716   -0.7632 C   0  0  0  0  0  0  0  0  0  0  0  0
    0.7980    5.0579   -0.7223 O   0  0  0  0  0  0  0  0  0  0  0  0
    1.5584    3.1668    0.3145 N   0  0  0  0  0  0  0  0  0  0  0  0
    2.0479    3.8229    1.5081 C   0  0  0  0  0  0  0  0  0  0  0  0
    3.0446    4.9288    1.1761 C   0  0  0  0  0  0  0  0  0  0  0  0
    1.5770    1.8075    0.0461 C   0  0  0  0  0  0  0  0  0  0  0  0
    0.4235    0.1318   -3.1295 C   0  0  0  0  0  0  0  0  0  0  0  0
    0.7693   -0.5173   -4.2974 C   0  0  0  0  0  0  0  0  0  0  0  0
    1.9839   -1.1337   -4.5849 N   0  0  0  0  0  0  0  0  0  0  0  0
    2.6243   -0.8023   -5.7855 C   0  0  0  0  0  0  0  0  0  0  0  0
    3.3449   -1.7585   -6.4954 C   0  0  0  0  0  0  0  0  0  0  0  0
    3.9623   -1.4366   -7.6880 C   0  0  0  0  0  0  0  0  0  0  0  0
    3.8584   -0.1517   -8.2040 C   0  0  0  0  0  0  0  0  0  0  0  0
    4.5997    0.3765   -9.7158 S   0  0  0  0  0  0  0  0  0  0  0  0
    5.2061   -1.1616  -10.4644 C   0  0  0  0  0  0  0  0  0  0  0  0
    3.1420    0.8105   -7.4956 C   0  0  0  0  0  0  0  0  0  0  0  0
    2.5397    0.4923   -6.3001 C   0  0  0  0  0  0  0  0  0  0  0  0
    2.5360   -2.0897   -3.7255 C   0  0  0  0  0  0  0  0  0  0  0  0
    3.9014   -2.0759   -3.4396 C   0  0  0  0  0  0  0  0  0  0  0  0
    4.4276   -2.9681   -2.5342 C   0  0  0  0  0  0  0  0  0  0  0  0
    3.6062   -3.8916   -1.8891 C   0  0  0  0  0  0  0  0  0  0  0  0
    4.3732   -4.9096   -0.6638 S   0  0  0  0  0  0  0  0  0  0  0  0
    2.9667   -5.5688    0.2731 C   0  0  0  0  0  0  0  0  0  0  0  0
    2.2622   -3.9612   -2.2282 C   0  0  0  0  0  0  0  0  0  0  0  0
    1.7339   -3.0671   -3.1428 C   0  0  0  0  0  0  0  0  0  0  0  0
   -0.2477   -0.3592   -5.2817 C   0  0  0  0  0  0  0  0  0  0  0  0
   -0.4185   -0.8871   -6.9155 S   0  0  0  0  0  0  0  0  0  0  0  0
   -2.0022   -0.0907   -7.0321 C   0  0  0  0  0  0  0  0  0  0  0  0
   -2.2865    0.6726   -5.8790 C   0  0  0  0  0  0  0  0  0  0  0  0
   -3.2186    1.6516   -5.7537 N   0  0  0  0  0  0  0  0  0  0  0  0
   -3.4301    2.2184   -4.4693 C   0  0  0  0  0  0  0  0  0  0  0  0
   -4.0091    1.4728   -3.4464 C   0  0  0  0  0  0  0  0  0  0  0  0
   -4.0830    2.0044   -2.1765 C   0  0  0  0  0  0  0  0  0  0  0  0
   -3.5650    3.2723   -1.9099 C   0  0  0  0  0  0  0  0  0  0  0  0
   -3.5962    3.8018   -0.2315 S   0  0  0  0  0  0  0  0  0  0  0  0
   -2.6043    5.3221   -0.2187 C   0  0  0  0  0  0  0  0  0  0  0  0
   -3.0564    4.0412   -2.9501 C   0  0  0  0  0  0  0  0  0  0  0  0
   -3.0015    3.5172   -4.2263 C   0  0  0  0  0  0  0  0  0  0  0  0
   -3.8668    2.2611   -6.8374 C   0  0  0  0  0  0  0  0  0  0  0  0
   -3.1795    2.6157   -7.9994 C   0  0  0  0  0  0  0  0  0  0  0  0
   -3.8618    3.1393   -9.0721 C   0  0  0  0  0  0  0  0  0  0  0  0
   -5.2463    3.3148   -9.0150 C   0  0  0  0  0  0  0  0  0  0  0  0
   -6.0286    3.8768  -10.4868 S   0  0  0  0  0  0  0  0  0  0  0  0
   -7.7934    3.5991  -10.1647 C   0  0  0  0  0  0  0  0  0  0  0  0
   -5.9188    3.0412   -7.8311 C   0  0  0  0  0  0  0  0  0  0  0  0
   -5.2307    2.5253   -6.7497 C   0  0  0  0  0  0  0  0  0  0  0  0
   -1.3216    0.4145   -4.8751 C   0  0  0  0  0  0  0  0  0  0  0  0
   -1.1670    0.8689   -3.2156 S   0  0  0  0  0  0  0  0  0  0  0  0
   -2.7520   -0.3093   -8.1863 C   0  0  0  0  0  0  0  0  0  0  0  0
   -4.1226   -0.1710   -8.2839 C   0  0  0  0  0  0  0  0  0  0  0  0
   -5.0449   -0.2827   -7.1465 C   0  0  0  0  0  0  0  0  0  0  0  0
   -4.7685   -0.4632   -5.9722 O   0  0  0  0  0  0  0  0  0  0  0  0
   -6.4047   -0.2576   -7.7272 C   0  0  0  0  0  0  0  0  0  0  0  0
   -7.6118   -0.3382   -7.0393 C   0  0  0  0  0  0  0  0  0  0  0  0
   -8.7227   -0.2783   -7.8474 C   0  0  0  0  0  0  0  0  0  0  0  0
   -8.6391   -0.1596   -9.2395 C   0  0  0  0  0  0  0  0  0  0  0  0
   -7.4520   -0.0825   -9.9315 C   0  0  0  0  0  0  0  0  0  0  0  0
   -6.3117   -0.1326   -9.1259 C   0  0  0  0  0  0  0  0  0  0  0  0
   -4.8969   -0.0480   -9.4878 C   0  0  0  0  0  0  0  0  0  0  0  0
   -4.4048    0.2580  -10.7333 C   0  0  0  0  0  0  0  0  0  0  0  0
   -3.0412    0.4840  -11.0051 C   0  0  0  0  0  0  0  0  0  0  0  0
   -1.9507    0.7111  -11.2865 N   0  0  0  0  0  0  0  0  0  0  0  0
   -5.2004    0.4437  -11.8792 C   0  0  0  0  0  0  0  0  0  0  0  0
   -5.8015    0.5992  -12.8459 N   0  0  0  0  0  0  0  0  0  0  0  0
  -10.1387   -0.1748   -9.4125 C   0  0  0  0  0  0  0  0  0  0  0  0
  -10.7634   -1.4974   -9.9035 C   0  0  0  0  0  0  0  0  0  0  0  0
  -12.2204   -1.3741   -9.5193 C   0  0  0  0  0  0  0  0  0  0  0  0
  -12.3002   -1.4838   -8.1994 C   0  0  0  0  0  0  0  0  0  0  0  0
  -10.8986   -1.6835   -7.6694 C   0  0  0  0  0  0  0  0  0  0  0  0
  -10.2897   -2.4837   -8.8281 C   0  0  0  0  0  0  0  0  0  0  0  0
  -10.2319   -0.3047   -7.8580 C   0  0  0  0  0  0  0  0  0  0  0  0
    1.5789    0.6651    8.7470 H   0  0  0  0  0  0  0  0  0  0  0  0
    5.1983   -4.4365    9.1392 H   0  0  0  0  0  0  0  0  0  0  0  0
    3.2293   -2.0973   13.1778 H   0  0  0  0  0  0  0  0  0  0  0  0
    5.5203   -4.4446   14.1598 H   0  0  0  0  0  0  0  0  0  0  0  0
    3.0708   -5.4049   14.5779 H   0  0  0  0  0  0  0  0  0  0  0  0
    4.8159   -7.1542   15.4720 H   0  0  0  0  0  0  0  0  0  0  0  0
    5.8698   -8.4127   13.3833 H   0  0  0  0  0  0  0  0  0  0  0  0
    4.7721   -7.4405   11.2034 H   0  0  0  0  0  0  0  0  0  0  0  0
    2.8195   -5.7412   11.9242 H   0  0  0  0  0  0  0  0  0  0  0  0
    2.6465   -7.2945   12.7733 H   0  0  0  0  0  0  0  0  0  0  0  0
    6.5512   -5.6755   12.1097 H   0  0  0  0  0  0  0  0  0  0  0  0
   -0.4781   -0.8941    7.1828 H   0  0  0  0  0  0  0  0  0  0  0  0
   -1.8347   -1.6518    9.0892 H   0  0  0  0  0  0  0  0  0  0  0  0
   -2.6404   -0.0266   10.7635 H   0  0  0  0  0  0  0  0  0  0  0  0
   -2.0970    2.3690   10.5055 H   0  0  0  0  0  0  0  0  0  0  0  0
   -0.7189    3.1268    8.6166 H   0  0  0  0  0  0  0  0  0  0  0  0
   -2.1604    2.4829    6.1477 H   0  0  0  0  0  0  0  0  0  0  0  0
   -2.7160    4.5823    4.9875 H   0  0  0  0  0  0  0  0  0  0  0  0
   -0.9180    6.1031    4.2457 H   0  0  0  0  0  0  0  0  0  0  0  0
    1.4391    5.5264    4.6958 H   0  0  0  0  0  0  0  0  0  0  0  0
    1.9954    3.4314    5.8663 H   0  0  0  0  0  0  0  0  0  0  0  0
    6.2404   -1.9414    2.1826 H   0  0  0  0  0  0  0  0  0  0  0  0
    6.7018   -4.2847    2.7547 H   0  0  0  0  0  0  0  0  0  0  0  0
    4.9138   -5.7175    3.6736 H   0  0  0  0  0  0  0  0  0  0  0  0
    2.6433   -4.7904    3.9803 H   0  0  0  0  0  0  0  0  0  0  0  0
    2.1635   -2.4683    3.3638 H   0  0  0  0  0  0  0  0  0  0  0  0
    4.7160    1.7872    2.4859 H   0  0  0  0  0  0  0  0  0  0  0  0
    5.8412    3.0188    0.6771 H   0  0  0  0  0  0  0  0  0  0  0  0
    6.3469    1.8894   -1.4601 H   0  0  0  0  0  0  0  0  0  0  0  0
    5.7558   -0.4867   -1.7545 H   0  0  0  0  0  0  0  0  0  0  0  0
    4.6366   -1.7225    0.0486 H   0  0  0  0  0  0  0  0  0  0  0  0
    1.8755   -1.4127    0.9408 H   0  0  0  0  0  0  0  0  0  0  0  0
    1.2370   -1.7497   -1.3644 H   0  0  0  0  0  0  0  0  0  0  0  0
    1.0485    2.2894   -3.8548 H   0  0  0  0  0  0  0  0  0  0  0  0
    0.2331    5.9087   -2.4928 H   0  0  0  0  0  0  0  0  0  0  0  0
   -0.5218    7.4659   -4.4664 H   0  0  0  0  0  0  0  0  0  0  0  0
    0.4893    3.3411   -5.9622 H   0  0  0  0  0  0  0  0  0  0  0  0
    1.2036    4.2333    2.0740 H   0  0  0  0  0  0  0  0  0  0  0  0
    2.5473    3.0686    2.1143 H   0  0  0  0  0  0  0  0  0  0  0  0
    3.8577    4.5300    0.5735 H   0  0  0  0  0  0  0  0  0  0  0  0
    2.5604    5.7292    0.6252 H   0  0  0  0  0  0  0  0  0  0  0  0
    3.4536    5.3332    2.0981 H   0  0  0  0  0  0  0  0  0  0  0  0
    3.4185   -2.7646   -6.1102 H   0  0  0  0  0  0  0  0  0  0  0  0
    4.5139   -2.2025   -8.2087 H   0  0  0  0  0  0  0  0  0  0  0  0
    4.3874   -1.8678  -10.5656 H   0  0  0  0  0  0  0  0  0  0  0  0
    6.0165   -1.5756   -9.8710 H   0  0  0  0  0  0  0  0  0  0  0  0
    5.5761   -0.8819  -11.4458 H   0  0  0  0  0  0  0  0  0  0  0  0
    3.0715    1.8107   -7.8947 H   0  0  0  0  0  0  0  0  0  0  0  0
    2.0015    1.2519   -5.7522 H   0  0  0  0  0  0  0  0  0  0  0  0
    4.5345   -1.3464   -3.9221 H   0  0  0  0  0  0  0  0  0  0  0  0
    5.4800   -2.9538   -2.2950 H   0  0  0  0  0  0  0  0  0  0  0  0
    2.4395   -6.3184   -0.3102 H   0  0  0  0  0  0  0  0  0  0  0  0
    2.3089   -4.7542    0.5611 H   0  0  0  0  0  0  0  0  0  0  0  0
    3.3954   -6.0231    1.1607 H   0  0  0  0  0  0  0  0  0  0  0  0
    1.6146   -4.7014   -1.7855 H   0  0  0  0  0  0  0  0  0  0  0  0
    0.6847   -3.1149   -3.3989 H   0  0  0  0  0  0  0  0  0  0  0  0
   -4.3742    0.4812   -3.6657 H   0  0  0  0  0  0  0  0  0  0  0  0
   -4.5144    1.4346   -1.3681 H   0  0  0  0  0  0  0  0  0  0  0  0
   -1.6076    5.1263   -0.6032 H   0  0  0  0  0  0  0  0  0  0  0  0
   -2.5419    5.6129    0.8255 H   0  0  0  0  0  0  0  0  0  0  0  0
   -3.1045    6.1018   -0.7855 H   0  0  0  0  0  0  0  0  0  0  0  0
   -2.6809    5.0362   -2.7765 H   0  0  0  0  0  0  0  0  0  0  0  0
   -2.5950    4.1041   -5.0367 H   0  0  0  0  0  0  0  0  0  0  0  0
   -2.1127    2.4661   -8.0657 H   0  0  0  0  0  0  0  0  0  0  0  0
   -3.3351    3.3991   -9.9774 H   0  0  0  0  0  0  0  0  0  0  0  0
   -7.9458    2.5762   -9.8315 H   0  0  0  0  0  0  0  0  0  0  0  0
   -8.2887    3.7559  -11.1178 H   0  0  0  0  0  0  0  0  0  0  0  0
   -8.1624    4.3146   -9.4354 H   0  0  0  0  0  0  0  0  0  0  0  0
   -6.9799    3.2088   -7.7426 H   0  0  0  0  0  0  0  0  0  0  0  0
   -5.7560    2.2967   -5.8347 H   0  0  0  0  0  0  0  0  0  0  0  0
   -2.2022   -0.6634   -9.0497 H   0  0  0  0  0  0  0  0  0  0  0  0
   -7.6336   -0.4318   -5.9646 H   0  0  0  0  0  0  0  0  0  0  0  0
   -7.4006    0.0033  -11.0044 H   0  0  0  0  0  0  0  0  0  0  0  0
  -10.5733    0.7026   -9.8891 H   0  0  0  0  0  0  0  0  0  0  0  0
  -10.5496   -1.7447  -10.9398 H   0  0  0  0  0  0  0  0  0  0  0  0
  -13.0102   -1.1709  -10.2185 H   0  0  0  0  0  0  0  0  0  0  0  0
  -13.1700   -1.3906   -7.5757 H   0  0  0  0  0  0  0  0  0  0  0  0
  -10.8081   -2.1009   -6.6701 H   0  0  0  0  0  0  0  0  0  0  0  0
   -9.2084   -2.5931   -8.7715 H   0  0  0  0  0  0  0  0  0  0  0  0
  -10.7499   -3.4644   -8.9377 H   0  0  0  0  0  0  0  0  0  0  0  0
  -10.7275    0.4875   -7.2988 H   0  0  0  0  0  0  0  0  0  0  0  0
  1  2  2  0  0  0  0
  2  3  1  0  0  0  0
  3  4  2  0  0  0  0
  3  5  1  0  0  0  0
  5  6  2  0  0  0  0
  6  7  1  0  0  0  0
  7  8  2  0  0  0  0
  8  9  1  0  0  0  0
  9 10  2  0  0  0  0
 10 11  1  0  0  0  0
 11 12  2  0  0  0  0
 12 13  1  0  0  0  0
 13 14  3  0  0  0  0
 12 15  1  0  0  0  0
 15 16  3  0  0  0  0
  8 17  1  0  0  0  0
 17 18  1  0  0  0  0
 18 19  1  0  0  0  0
 19 20  2  0  0  0  0
 20 21  1  0  0  0  0
 21 22  1  0  0  0  0
 21 23  1  0  0  0  0
  1 24  1  0  0  0  0
 24 25  2  0  0  0  0
 25 26  1  0  0  0  0
 26 27  1  0  0  0  0
 27 28  2  0  0  0  0
 28 29  1  0  0  0  0
 29 30  2  0  0  0  0
 30 31  1  0  0  0  0
 31 32  2  0  0  0  0
 26 33  1  0  0  0  0
 33 34  2  0  0  0  0
 34 35  1  0  0  0  0
 35 36  2  0  0  0  0
 36 37  1  0  0  0  0
 37 38  2  0  0  0  0
 25 39  1  0  0  0  0
 39 40  1  0  0  0  0
 40 41  1  0  0  0  0
 41 42  2  0  0  0  0
 42 43  1  0  0  0  0
 43 44  1  0  0  0  0
 44 45  2  0  0  0  0
 45 46  1  0  0  0  0
 46 47  2  0  0  0  0
 47 48  1  0  0  0  0
 48 49  2  0  0  0  0
 43 50  1  0  0  0  0
 50 51  2  0  0  0  0
 51 52  1  0  0  0  0
 52 53  2  0  0  0  0
 53 54  1  0  0  0  0
 54 55  2  0  0  0  0
 42 56  1  0  0  0  0
 56 57  1  0  0  0  0
 41 58  1  0  0  0  0
 58 59  2  0  0  0  0
 59 60  1  0  0  0  0
 60 61  2  0  0  0  0
 61 62  1  0  0  0  0
 62 63  1  0  0  0  0
 63 64  2  0  0  0  0
 64 65  1  0  0  0  0
 65 66  1  0  0  0  0
 66 67  2  0  0  0  0
 67 68  1  0  0  0  0
 68 69  1  0  0  0  0
 63 70  1  0  0  0  0
 70 71  2  0  0  0  0
 70 72  1  0  0  0  0
 72 73  1  0  0  0  0
 73 74  1  0  0  0  0
 72 75  1  0  0  0  0
 61 76  1  0  0  0  0
 76 77  2  0  0  0  0
 77 78  1  0  0  0  0
 78 79  1  0  0  0  0
 79 80  2  0  0  0  0
 80 81  1  0  0  0  0
 81 82  2  0  0  0  0
 82 83  1  0  0  0  0
 83 84  1  0  0  0  0
 82 85  1  0  0  0  0
 85 86  2  0  0  0  0
 78 87  1  0  0  0  0
 87 88  2  0  0  0  0
 88 89  1  0  0  0  0
 89 90  2  0  0  0  0
 90 91  1  0  0  0  0
 91 92  1  0  0  0  0
 90 93  1  0  0  0  0
 93 94  2  0  0  0  0
 77 95  1  0  0  0  0
 95 96  1  0  0  0  0
 96 97  1  0  0  0  0
 97 98  2  0  0  0  0
 98 99  1  0  0  0  0
 99100  1  0  0  0  0
100101  2  0  0  0  0
101102  1  0  0  0  0
102103  2  0  0  0  0
103104  1  0  0  0  0
104105  1  0  0  0  0
103106  1  0  0  0  0
106107  2  0  0  0  0
 99108  1  0  0  0  0
108109  2  0  0  0  0
109110  1  0  0  0  0
110111  2  0  0  0  0
111112  1  0  0  0  0
112113  1  0  0  0  0
111114  1  0  0  0  0
114115  2  0  0  0  0
 98116  1  0  0  0  0
116117  1  0  0  0  0
 97118  1  0  0  0  0
118119  2  0  0  0  0
119120  1  0  0  0  0
120121  2  0  0  0  0
120122  1  0  0  0  0
122123  2  0  0  0  0
123124  1  0  0  0  0
124125  2  0  0  0  0
125126  1  0  0  0  0
126127  2  0  0  0  0
127128  1  0  0  0  0
128129  2  0  0  0  0
129130  1  0  0  0  0
130131  3  0  0  0  0
129132  1  0  0  0  0
132133  3  0  0  0  0
125134  1  0  0  0  0
134135  1  0  0  0  0
135136  1  0  0  0  0
136137  2  0  0  0  0
137138  1  0  0  0  0
138139  1  0  0  0  0
138140  1  0  0  0  0
 11  2  1  0  0  0  0
 23 17  1  0  0  0  0
 57 24  1  0  0  0  0
 75 58  1  0  0  0  0
117 76  1  0  0  0  0
128119  1  0  0  0  0
140134  1  0  0  0  0
 10  5  1  0  0  0  0
 22 18  1  0  0  0  0
 32 27  1  0  0  0  0
 38 33  1  0  0  0  0
 56 39  2  0  0  0  0
 75 62  2  0  0  0  0
 86 79  1  0  0  0  0
 94 87  1  0  0  0  0
116 95  2  0  0  0  0
127122  1  0  0  0  0
139135  1  0  0  0  0
 23  7  1  0  0  0  0
 49 44  1  0  0  0  0
 55 50  1  0  0  0  0
 69 65  2  0  0  0  0
107100  1  0  0  0  0
115108  1  0  0  0  0
140124  1  0  0  0  0
  1141  1  0  0  0  0
  6142  1  0  0  0  0
  9143  1  0  0  0  0
 17144  1  0  0  0  0
 18145  1  0  0  0  0
 19146  1  0  0  0  0
 20147  1  0  0  0  0
 21148  1  0  0  0  0
 22149  1  0  0  0  0
 22150  1  0  0  0  0
 23151  1  0  0  0  0
 28152  1  0  0  0  0
 29153  1  0  0  0  0
 30154  1  0  0  0  0
 31155  1  0  0  0  0
 32156  1  0  0  0  0
 34157  1  0  0  0  0
 35158  1  0  0  0  0
 36159  1  0  0  0  0
 37160  1  0  0  0  0
 38161  1  0  0  0  0
 45162  1  0  0  0  0
 46163  1  0  0  0  0
 47164  1  0  0  0  0
 48165  1  0  0  0  0
 49166  1  0  0  0  0
 51167  1  0  0  0  0
 52168  1  0  0  0  0
 53169  1  0  0  0  0
 54170  1  0  0  0  0
 55171  1  0  0  0  0
 59172  1  0  0  0  0
 60173  1  0  0  0  0
 64174  1  0  0  0  0
 66175  1  0  0  0  0
 67176  1  0  0  0  0
 69177  1  0  0  0  0
 73178  1  0  0  0  0
 73179  1  0  0  0  0
 74180  1  0  0  0  0
 74181  1  0  0  0  0
 74182  1  0  0  0  0
 80183  1  0  0  0  0
 81184  1  0  0  0  0
 84185  1  0  0  0  0
 84186  1  0  0  0  0
 84187  1  0  0  0  0
 85188  1  0  0  0  0
 86189  1  0  0  0  0
 88190  1  0  0  0  0
 89191  1  0  0  0  0
 92192  1  0  0  0  0
 92193  1  0  0  0  0
 92194  1  0  0  0  0
 93195  1  0  0  0  0
 94196  1  0  0  0  0
101197  1  0  0  0  0
102198  1  0  0  0  0
105199  1  0  0  0  0
105200  1  0  0  0  0
105201  1  0  0  0  0
106202  1  0  0  0  0
107203  1  0  0  0  0
109204  1  0  0  0  0
110205  1  0  0  0  0
113206  1  0  0  0  0
113207  1  0  0  0  0
113208  1  0  0  0  0
114209  1  0  0  0  0
115210  1  0  0  0  0
118211  1  0  0  0  0
123212  1  0  0  0  0
126213  1  0  0  0  0
134214  1  0  0  0  0
135215  1  0  0  0  0
136216  1  0  0  0  0
137217  1  0  0  0  0
138218  1  0  0  0  0
139219  1  0  0  0  0
139220  1  0  0  0  0
140221  1  0  0  0  0
M  END
