215

C         -8.02050        2.65510       -3.14540
C         -8.03150        3.65890       -4.06960
C         -7.85950        5.11180       -3.85070
O         -7.68720        5.70050       -2.80080
C         -7.95310        5.73400       -5.18280
C         -7.83710        7.09180       -5.47520
C         -7.93560        7.38690       -6.81270
C         -8.13640        6.40250       -7.79060
C         -8.25150        5.06120       -7.51630
C         -8.15300        4.73820       -6.15970
C         -8.17470        3.43670       -5.50040
C         -8.20240        2.22610       -6.14320
C         -8.06270        0.95590       -5.54620
N         -7.93680       -0.12210       -5.16680
C         -8.33040        2.06670       -7.53980
N         -8.45660        1.84600       -8.65940
C         -8.13760        7.40740       -8.91500
C         -9.50310        7.80590       -9.52690
C        -10.53450        7.59870       -8.44570
C        -10.34440        8.53000       -7.52070
C         -9.18060        9.38400       -7.95970
C         -9.36980        9.33660       -9.48440
C         -7.91330        8.50380       -7.82610
C         -7.57280        2.63440       -1.80820
C         -7.18270        3.59440       -0.89430
C         -6.41930        3.06860        0.14730
Cl        -5.72580        4.05060        1.37070
C         -6.16350        1.70280        0.03670
S         -7.09280        1.04200       -1.25760
C         -5.06400        0.97230        0.58030
C         -4.22090        0.15810       -0.17640
N         -4.48330       -0.25710       -1.49910
C         -4.38170        0.67550       -2.53080
C         -4.51310        0.29950       -3.87210
C         -4.60810        1.25070       -4.86250
C         -4.53930        2.60770       -4.55650
S         -4.84870        3.74850       -5.87640
C         -4.52040        5.37150       -5.13590
C         -4.24310        2.98260       -3.25670
C         -4.14690        2.02680       -2.26380
C         -5.16580       -1.48990       -1.62430
C         -4.83780       -2.53950       -0.76450
C         -5.51700       -3.73660       -0.82430
C         -6.53530       -3.93030       -1.75280
S         -7.32010       -5.51110       -1.74620
C         -8.51970       -5.40150       -3.10480
C         -6.87520       -2.88920       -2.60360
C         -6.20750       -1.68260       -2.52930
C         -3.03900       -0.12820        0.52640
S         -1.55700       -0.92820        0.13300
C         -0.87510       -0.50220        1.70130
C         -1.76820        0.22600        2.47460
N         -1.54850        0.65740        3.79510
C         -0.91680        1.88070        4.03980
C         -0.37140        2.13200        5.30140
C          0.16130        3.36470        5.59600
C          0.18130        4.36980        4.63240
S          0.75320        5.96120        5.14430
C          0.02130        7.07820        3.91390
C         -0.25760        4.09340        3.34720
C         -0.80840        2.85950        3.05590
C         -2.42800        0.10380        4.74010
C         -2.70500       -1.26310        4.68080
C         -3.56140       -1.84060        5.58990
C         -4.17380       -1.07180        6.57670
S         -5.24760       -1.93180        7.68450
C         -5.81430       -0.64710        8.83310
C         -3.91930        0.29150        6.62650
C         -3.05910        0.87190        5.71450
C         -2.99100        0.42010        1.80340
S         -4.41450        1.32390        2.16650
C          0.48320       -0.80700        1.98340
C          1.27130       -1.81710        1.42930
N          0.78630       -2.88050        0.69600
C          1.62980       -3.49010       -0.24790
C          1.72100       -4.87920       -0.32650
C          2.57790       -5.46540       -1.23000
C          3.36810       -4.67720       -2.06000
S          4.47850       -5.49560       -3.16150
C          5.86150       -4.31550       -3.19130
C          3.25990       -3.29460       -2.00610
C          2.39480       -2.70600       -1.10650
C         -0.40190       -3.53440        1.05860
C         -1.18750       -4.13080        0.06980
C         -2.33620       -4.80710        0.40770
C         -2.74160       -4.89280        1.73970
S         -4.22350       -5.79670        2.05760
C         -4.60660       -5.41780        3.79000
C         -1.96380       -4.30120        2.72590
C         -0.80340       -3.63050        2.38680
C          2.63310       -1.65350        1.78620
S          4.10990       -2.44040        1.35850
C          5.02090       -1.38110        2.43370
C          4.17760       -0.45000        3.07630
N          4.58990        0.55350        3.93660
C          4.19480        1.86580        3.66220
C          3.98060        2.79270        4.68010
C          3.67240        4.10480        4.38300
C          3.55560        4.50960        3.06000
S          3.22340        6.17670        2.58050
C          3.90150        7.13720        3.96530
C          3.70810        3.57570        2.04010
C          4.03260        2.27170        2.33540
C          5.28660        0.21970        5.10750
C          4.94900       -0.94330        5.80040
C          5.61290       -1.27780        6.95850
C          6.63170       -0.46380        7.44400
S          7.43830       -0.96140        8.92880
C          9.11360       -0.30240        8.68640
C          6.96610        0.69940        6.76030
C          6.30270        1.03560        5.59870
C          2.84930       -0.58930        2.65400
S          1.39270        0.25530        3.05190
C          6.41530       -1.39780        2.58190
C          7.38270       -1.90130        1.74610
C          7.18270       -2.44420        0.39390
O          6.15050       -2.85850       -0.10530
C          8.50170       -2.38580       -0.26740
C          8.79860       -2.68050       -1.59590
C         10.12500       -2.53100       -1.92290
C         11.09130       -2.11270       -0.99990
C         10.81280       -1.81330        0.31280
C          9.46950       -1.96320        0.66570
C          8.80660       -1.74300        1.94800
C          9.44600       -1.50530        3.13810
C         10.83720       -1.32870        3.28110
N         11.95510       -1.15870        3.48350
C          8.83120       -1.48620        4.40350
N          8.44680       -1.50370        5.48650
C         12.20660       -2.18820       -2.01240
C         13.16380       -3.40330       -1.93920
C         12.38220       -4.52690       -1.30450
C         11.46630       -4.92620       -2.17660
C         11.61230       -4.08020       -3.41740
C         13.13180       -3.84870       -3.41000
C         11.12910       -2.65760       -3.04060
H         -8.24710        1.66380       -3.51810
H         -7.67580        7.81530       -4.69090
H         -8.40090        4.31800       -8.28090
H         -7.36700        7.27420       -9.67160
H         -9.71710        7.34780      -10.48870
H        -11.23750        6.78650       -8.43690
H        -10.85680        8.65160       -6.58430
H         -9.10130       10.36350       -7.49530
H        -10.27360        9.84770       -9.81250
H         -8.51190        9.71300      -10.04000
H         -6.99600        9.08820       -7.87280
H         -7.39540        4.64110       -1.01260
H         -4.54680       -0.74380       -4.13920
H         -4.75010        0.94770       -5.88860
H         -3.48310        5.42790       -4.81860
H         -4.70890        6.09480       -5.92360
H         -5.19700        5.54970       -4.30490
H         -4.09960        4.01670       -2.98840
H         -3.90540        2.35560       -1.26530
H         -4.04460       -2.42750       -0.04180
H         -5.26790       -4.53820       -0.14710
H         -8.00430       -5.19720       -4.03870
H         -9.26040       -4.63720       -2.88770
H         -8.99780       -6.37500       -3.15220
H         -7.66860       -2.98420       -3.32610
H         -6.52740       -0.89020       -3.18630
H         -0.39260        1.35670        6.05190
H          0.55330        3.56970        6.58050
H          0.12470        8.07910        4.32150
H          0.56140        7.00560        2.97400
H         -1.02880        6.83260        3.78900
H         -0.19380        4.83620        2.56820
H         -1.17620        2.66540        2.05910
H         -2.23980       -1.86580        3.91590
H         -3.76540       -2.90010        5.55780
H         -6.38240        0.10760        8.29690
H         -4.96420       -0.21100        9.34990
H         -6.45750       -1.15530        9.54480
H         -4.39170        0.92070        7.36340
H         -2.88650        1.93660        5.75540
H          1.13290       -5.49430        0.33770
H          2.66160       -6.53970       -1.28580
H          6.74460       -4.89010       -3.45510
H          5.95700       -3.89100       -2.19550
H          5.68720       -3.54450       -3.93760
H          3.84250       -2.66960       -2.66330
H          2.30280       -1.63030       -1.07080
H         -0.88590       -4.05720       -0.96360
H         -2.93570       -5.27300       -0.35830
H         -4.67720       -4.34190        3.92010
H         -3.86000       -5.85270        4.44840
H         -5.57240       -5.87540        3.98080
H         -2.23630       -4.37430        3.76660
H         -0.19330       -3.19530        3.16540
H          4.05870        2.48310        5.71120
H          3.51130        4.80250        5.18890
H          3.23560        7.08480        4.82170
H          3.97070        8.16120        3.61170
H          4.88890        6.75790        4.20930
H          3.59780        3.89150        1.01400
H          4.19080        1.56450        1.53460
H          4.16160       -1.57780        5.42080
H          5.35540       -2.17670        7.49620
H          9.14310        0.76140        8.90390
H          9.75130       -0.83620        9.38360
H          9.41650       -0.50900        7.66460
H          7.75020        1.34470        7.12250
H          6.57370        1.93290        5.06120
H          6.77090       -0.84150        3.44420
H          8.03230       -2.99160       -2.28690
H         11.56300       -1.48260        1.01140
H         12.73190       -1.25670       -2.21380
H         14.13470       -3.18700       -1.50180
H         12.53330       -4.86580       -0.29640
H         10.69920       -5.66630       -2.04270
H         11.17140       -4.48070       -4.32650
H         13.69770       -4.76220       -3.58570
H         13.45630       -3.07530       -4.10490
H         10.95300       -2.03410       -3.91530
