
  xtb     02172217043D
 energy: -353.705418826708 gnorm: 0.000570875578 xtb: 6.4.1 (unknown)
223243  0     0  0            999 V2000
   -6.5692    4.6295    7.7067 C   0  0  0  0  0  0  0  0  0  0  0  0
   -7.7612    4.7754    7.0587 C   0  0  0  0  0  0  0  0  0  0  0  0
   -8.0993    5.5160    5.8192 C   0  0  0  0  0  0  0  0  0  0  0  0
   -7.3592    5.9688    4.9698 O   0  0  0  0  0  0  0  0  0  0  0  0
   -9.5700    5.6537    5.8273 C   0  0  0  0  0  0  0  0  0  0  0  0
  -10.3447    6.3392    4.8931 C   0  0  0  0  0  0  0  0  0  0  0  0
  -11.6938    6.3031    5.1508 C   0  0  0  0  0  0  0  0  0  0  0  0
  -12.2376    5.6382    6.2587 C   0  0  0  0  0  0  0  0  0  0  0  0
  -11.4875    4.9523    7.1836 C   0  0  0  0  0  0  0  0  0  0  0  0
  -10.1113    4.9740    6.9361 C   0  0  0  0  0  0  0  0  0  0  0  0
   -9.0157    4.3385    7.6540 C   0  0  0  0  0  0  0  0  0  0  0  0
   -9.1384    3.3667    8.6136 C   0  0  0  0  0  0  0  0  0  0  0  0
  -10.3646    2.9514    9.1718 C   0  0  0  0  0  0  0  0  0  0  0  0
  -11.3282    2.5855    9.6776 N   0  0  0  0  0  0  0  0  0  0  0  0
   -8.0648    2.5946    9.1061 C   0  0  0  0  0  0  0  0  0  0  0  0
   -7.2515    1.8915    9.5127 N   0  0  0  0  0  0  0  0  0  0  0  0
  -13.6507    6.0215    5.8966 C   0  0  0  0  0  0  0  0  0  0  0  0
  -14.2841    7.1733    6.7052 C   0  0  0  0  0  0  0  0  0  0  0  0
  -15.4338    7.6334    5.8383 C   0  0  0  0  0  0  0  0  0  0  0  0
  -14.9209    8.2595    4.7868 C   0  0  0  0  0  0  0  0  0  0  0  0
  -13.4158    8.2338    4.9257 C   0  0  0  0  0  0  0  0  0  0  0  0
  -13.2902    8.3144    6.4526 C   0  0  0  0  0  0  0  0  0  0  0  0
  -13.0453    6.7593    4.6595 C   0  0  0  0  0  0  0  0  0  0  0  0
   -5.2078    4.7587    7.2951 C   0  0  0  0  0  0  0  0  0  0  0  0
   -4.8161    4.8980    5.9592 C   0  0  0  0  0  0  0  0  0  0  0  0
   -3.4773    4.7650    5.6525 C   0  0  0  0  0  0  0  0  0  0  0  0
   -2.8695    4.7524    4.4208 N   0  0  0  0  0  0  0  0  0  0  0  0
   -3.5197    5.0084    3.1606 C   0  0  0  0  0  0  0  0  0  0  0  0
   -4.0562    3.7345    2.5132 C   0  0  0  0  0  0  0  0  0  0  0  0
   -1.5704    4.3556    4.5879 C   0  0  0  0  0  0  0  0  0  0  0  0
   -1.2899    4.2163    5.9732 C   0  0  0  0  0  0  0  0  0  0  0  0
   -2.5095    4.4891    6.6553 C   0  0  0  0  0  0  0  0  0  0  0  0
   -2.8952    4.4363    7.9937 C   0  0  0  0  0  0  0  0  0  0  0  0
   -4.2251    4.5676    8.2985 C   0  0  0  0  0  0  0  0  0  0  0  0
   -0.0406    3.7695    6.3934 C   0  0  0  0  0  0  0  0  0  0  0  0
    0.8604    3.3519    5.4445 C   0  0  0  0  0  0  0  0  0  0  0  0
    0.5467    3.4074    4.0759 C   0  0  0  0  0  0  0  0  0  0  0  0
   -0.6378    3.9836    3.6342 C   0  0  0  0  0  0  0  0  0  0  0  0
    1.3796    2.7009    3.1185 C   0  0  0  0  0  0  0  0  0  0  0  0
    1.7391    1.3705    3.2056 C   0  0  0  0  0  0  0  0  0  0  0  0
    1.3775    0.5211    4.2471 N   0  0  0  0  0  0  0  0  0  0  0  0
    2.2793   -0.4535    4.6749 C   0  0  0  0  0  0  0  0  0  0  0  0
    1.8344   -1.6936    5.1265 C   0  0  0  0  0  0  0  0  0  0  0  0
    2.7311   -2.6586    5.5404 C   0  0  0  0  0  0  0  0  0  0  0  0
    4.0954   -2.4054    5.5011 C   0  0  0  0  0  0  0  0  0  0  0  0
    5.3377   -3.5574    6.0027 S   0  0  0  0  0  0  0  0  0  0  0  0
    4.3988   -5.0347    6.4836 C   0  0  0  0  0  0  0  0  0  0  0  0
    4.5466   -1.1686    5.0460 C   0  0  0  0  0  0  0  0  0  0  0  0
    3.6528   -0.2030    4.6424 C   0  0  0  0  0  0  0  0  0  0  0  0
    0.0723    0.5953    4.7601 C   0  0  0  0  0  0  0  0  0  0  0  0
   -1.0061    0.8282    3.9060 C   0  0  0  0  0  0  0  0  0  0  0  0
   -2.2745    0.9893    4.4132 C   0  0  0  0  0  0  0  0  0  0  0  0
   -2.5054    0.9297    5.7859 C   0  0  0  0  0  0  0  0  0  0  0  0
   -4.1625    1.2518    6.3078 S   0  0  0  0  0  0  0  0  0  0  0  0
   -4.1262    1.0169    8.1040 C   0  0  0  0  0  0  0  0  0  0  0  0
   -1.4454    0.6449    6.6356 C   0  0  0  0  0  0  0  0  0  0  0  0
   -0.1717    0.4766    6.1253 C   0  0  0  0  0  0  0  0  0  0  0  0
    2.3943    0.9443    2.0221 C   0  0  0  0  0  0  0  0  0  0  0  0
    3.0121   -0.5659    1.4521 S   0  0  0  0  0  0  0  0  0  0  0  0
    3.3039    0.1255   -0.1376 C   0  0  0  0  0  0  0  0  0  0  0  0
    2.9823    1.4692   -0.1990 C   0  0  0  0  0  0  0  0  0  0  0  0
    2.9407    2.2591   -1.3472 N   0  0  0  0  0  0  0  0  0  0  0  0
    1.7492    2.9960   -1.4803 C   0  0  0  0  0  0  0  0  0  0  0  0
    1.7425    4.3638   -1.7330 C   0  0  0  0  0  0  0  0  0  0  0  0
    0.5598    5.0786   -1.7059 C   0  0  0  0  0  0  0  0  0  0  0  0
   -0.6369    4.4378   -1.4173 C   0  0  0  0  0  0  0  0  0  0  0  0
   -2.1921    5.2573   -1.2436 S   0  0  0  0  0  0  0  0  0  0  0  0
   -1.8312    6.9844   -1.6680 C   0  0  0  0  0  0  0  0  0  0  0  0
   -0.6423    3.0589   -1.2148 C   0  0  0  0  0  0  0  0  0  0  0  0
    0.5334    2.3461   -1.2538 C   0  0  0  0  0  0  0  0  0  0  0  0
    4.0936    2.6289   -2.0381 C   0  0  0  0  0  0  0  0  0  0  0  0
    5.3423    2.6299   -1.4170 C   0  0  0  0  0  0  0  0  0  0  0  0
    6.4422    3.1316   -2.0770 C   0  0  0  0  0  0  0  0  0  0  0  0
    6.3237    3.6371   -3.3693 C   0  0  0  0  0  0  0  0  0  0  0  0
    7.7715    4.3724   -4.0694 S   0  0  0  0  0  0  0  0  0  0  0  0
    7.1975    5.0082   -5.6676 C   0  0  0  0  0  0  0  0  0  0  0  0
    5.1003    3.5614   -4.0202 C   0  0  0  0  0  0  0  0  0  0  0  0
    3.9980    3.0587   -3.3593 C   0  0  0  0  0  0  0  0  0  0  0  0
    2.4741    1.9210    1.0453 C   0  0  0  0  0  0  0  0  0  0  0  0
    1.7869    3.4164    1.5766 S   0  0  0  0  0  0  0  0  0  0  0  0
    3.6004   -0.7910   -1.1937 C   0  0  0  0  0  0  0  0  0  0  0  0
    3.1417   -2.0803   -1.2843 C   0  0  0  0  0  0  0  0  0  0  0  0
    3.5363   -2.5606   -2.5521 C   0  0  0  0  0  0  0  0  0  0  0  0
    3.2960   -3.7730   -3.2273 C   0  0  0  0  0  0  0  0  0  0  0  0
    2.4963   -4.8566   -2.7201 C   0  0  0  0  0  0  0  0  0  0  0  0
    2.5286   -6.1764   -3.1012 C   0  0  0  0  0  0  0  0  0  0  0  0
    1.5565   -6.9583   -2.4607 C   0  0  0  0  0  0  0  0  0  0  0  0
    0.7605   -6.2627   -1.5944 C   0  0  0  0  0  0  0  0  0  0  0  0
   -0.7159   -6.8763   -0.5915 Si  0  0  0  0  0  4  0  0  0  0  0  0
   -0.2694   -8.5748    0.1772 C   0  0  0  0  0  0  0  0  0  0  0  0
    1.1608   -8.6874    0.6987 C   0  0  0  0  0  0  0  0  0  0  0  0
   -2.1838   -7.0520   -1.8023 C   0  0  0  0  0  0  0  0  0  0  0  0
   -3.3984   -7.7409   -1.1900 C   0  0  0  0  0  0  0  0  0  0  0  0
   -1.1273   -5.5436    0.7219 C   0  0  0  0  0  0  0  0  0  0  0  0
   -0.0632   -5.3455    1.7973 C   0  0  0  0  0  0  0  0  0  0  0  0
    1.2323   -4.6017   -1.5567 S   0  0  0  0  0  0  0  0  0  0  0  0
    3.8512   -3.8131   -4.4995 C   0  0  0  0  0  0  0  0  0  0  0  0
    4.6118   -2.7722   -5.0958 C   0  0  0  0  0  0  0  0  0  0  0  0
    4.8911   -1.5741   -4.3927 C   0  0  0  0  0  0  0  0  0  0  0  0
    5.7968   -0.5653   -4.8695 C   0  0  0  0  0  0  0  0  0  0  0  0
    6.5685    0.2764   -4.1030 C   0  0  0  0  0  0  0  0  0  0  0  0
    7.4778    1.0294   -4.8568 C   0  0  0  0  0  0  0  0  0  0  0  0
    7.3975    0.8195   -6.2062 C   0  0  0  0  0  0  0  0  0  0  0  0
    8.4741    1.4836   -7.6052 Si  0  0  0  0  0  4  0  0  0  0  0  0
    9.9415    2.4131   -6.8138 C   0  0  0  0  0  0  0  0  0  0  0  0
   10.8814    3.0164   -7.8510 C   0  0  0  0  0  0  0  0  0  0  0  0
    7.4705    2.6392   -8.7641 C   0  0  0  0  0  0  0  0  0  0  0  0
    5.9822    2.3083   -8.8206 C   0  0  0  0  0  0  0  0  0  0  0  0
    9.0428   -0.0411   -8.6142 C   0  0  0  0  0  0  0  0  0  0  0  0
    9.7922   -1.0742   -7.7779 C   0  0  0  0  0  0  0  0  0  0  0  0
    6.1822   -0.3626   -6.5513 S   0  0  0  0  0  0  0  0  0  0  0  0
    4.2840   -1.5058   -3.1394 C   0  0  0  0  0  0  0  0  0  0  0  0
    4.2987   -0.4330   -2.3033 O   0  0  0  0  0  0  0  0  0  0  0  0
    4.9213   -3.2432   -6.3903 C   0  0  0  0  0  0  0  0  0  0  0  0
    4.3240   -4.4812   -6.5235 C   0  0  0  0  0  0  0  0  0  0  0  0
    3.7039   -4.8375   -5.3643 O   0  0  0  0  0  0  0  0  0  0  0  0
    4.2945   -5.3666   -7.6236 C   0  0  0  0  0  0  0  0  0  0  0  0
    3.5444   -6.5012   -7.7330 C   0  0  0  0  0  0  0  0  0  0  0  0
    3.9335   -7.5600   -8.6995 C   0  0  0  0  0  0  0  0  0  0  0  0
    4.7023   -7.4562   -9.6280 O   0  0  0  0  0  0  0  0  0  0  0  0
    3.2298   -8.7770   -8.2373 C   0  0  0  0  0  0  0  0  0  0  0  0
    3.3329  -10.0744   -8.7022 C   0  0  0  0  0  0  0  0  0  0  0  0
    2.5978  -11.0660   -8.0708 C   0  0  0  0  0  0  0  0  0  0  0  0
    1.7859  -10.7378   -6.9934 C   0  0  0  0  0  0  0  0  0  0  0  0
    0.8104  -12.1191   -6.1263 Br  0  0  0  0  0  0  0  0  0  0  0  0
    1.6592   -9.4378   -6.5196 C   0  0  0  0  0  0  0  0  0  0  0  0
    2.3885   -8.4500   -7.1576 C   0  0  0  0  0  0  0  0  0  0  0  0
    2.4464   -7.0050   -6.9354 C   0  0  0  0  0  0  0  0  0  0  0  0
    1.4779   -6.2713   -6.3026 C   0  0  0  0  0  0  0  0  0  0  0  0
    0.4058   -6.8352   -5.5838 C   0  0  0  0  0  0  0  0  0  0  0  0
   -0.4776   -7.2445   -4.9748 N   0  0  0  0  0  0  0  0  0  0  0  0
    1.3783   -4.8654   -6.3872 C   0  0  0  0  0  0  0  0  0  0  0  0
    1.2073   -3.7357   -6.4954 N   0  0  0  0  0  0  0  0  0  0  0  0
   -6.6571    4.3004    8.7376 H   0  0  0  0  0  0  0  0  0  0  0  0
   -9.8874    6.8351    4.0512 H   0  0  0  0  0  0  0  0  0  0  0  0
  -11.9158    4.4428    8.0308 H   0  0  0  0  0  0  0  0  0  0  0  0
  -14.3366    5.1939    5.7263 H   0  0  0  0  0  0  0  0  0  0  0  0
  -14.5168    6.9300    7.7383 H   0  0  0  0  0  0  0  0  0  0  0  0
  -16.4651    7.4139    6.0435 H   0  0  0  0  0  0  0  0  0  0  0  0
  -15.4382    8.6675    3.9383 H   0  0  0  0  0  0  0  0  0  0  0  0
  -12.8576    8.9574    4.3377 H   0  0  0  0  0  0  0  0  0  0  0  0
  -13.6468    9.2652    6.8453 H   0  0  0  0  0  0  0  0  0  0  0  0
  -12.2865    8.1197    6.8261 H   0  0  0  0  0  0  0  0  0  0  0  0
  -13.3271    6.4223    3.6636 H   0  0  0  0  0  0  0  0  0  0  0  0
   -5.5533    5.0542    5.1921 H   0  0  0  0  0  0  0  0  0  0  0  0
   -4.3402    5.7073    3.3402 H   0  0  0  0  0  0  0  0  0  0  0  0
   -2.7984    5.4880    2.4926 H   0  0  0  0  0  0  0  0  0  0  0  0
   -4.5701    3.9810    1.5883 H   0  0  0  0  0  0  0  0  0  0  0  0
   -4.7524    3.2361    3.1838 H   0  0  0  0  0  0  0  0  0  0  0  0
   -3.2401    3.0536    2.2856 H   0  0  0  0  0  0  0  0  0  0  0  0
   -2.1613    4.2601    8.7663 H   0  0  0  0  0  0  0  0  0  0  0  0
   -4.5474    4.4865    9.3266 H   0  0  0  0  0  0  0  0  0  0  0  0
    0.1926    3.7033    7.4450 H   0  0  0  0  0  0  0  0  0  0  0  0
    1.8150    2.9448    5.7413 H   0  0  0  0  0  0  0  0  0  0  0  0
   -0.8500    4.0363    2.5769 H   0  0  0  0  0  0  0  0  0  0  0  0
    0.7757   -1.9047    5.1462 H   0  0  0  0  0  0  0  0  0  0  0  0
    2.3490   -3.6071    5.8816 H   0  0  0  0  0  0  0  0  0  0  0  0
    3.8336   -5.4077    5.6344 H   0  0  0  0  0  0  0  0  0  0  0  0
    5.1420   -5.7675    6.7824 H   0  0  0  0  0  0  0  0  0  0  0  0
    3.7487   -4.8067    7.3235 H   0  0  0  0  0  0  0  0  0  0  0  0
    5.6079   -0.9741    5.0215 H   0  0  0  0  0  0  0  0  0  0  0  0
    4.0138    0.7575    4.3057 H   0  0  0  0  0  0  0  0  0  0  0  0
   -0.8395    0.8852    2.8403 H   0  0  0  0  0  0  0  0  0  0  0  0
   -3.1095    1.1645    3.7535 H   0  0  0  0  0  0  0  0  0  0  0  0
   -3.8407   -0.0050    8.3354 H   0  0  0  0  0  0  0  0  0  0  0  0
   -3.4451    1.7341    8.5521 H   0  0  0  0  0  0  0  0  0  0  0  0
   -5.1392    1.2059    8.4494 H   0  0  0  0  0  0  0  0  0  0  0  0
   -1.5939    0.5682    7.7007 H   0  0  0  0  0  0  0  0  0  0  0  0
    0.6498    0.2725    6.7960 H   0  0  0  0  0  0  0  0  0  0  0  0
    2.6725    4.8803   -1.9173 H   0  0  0  0  0  0  0  0  0  0  0  0
    0.5946    6.1413   -1.8834 H   0  0  0  0  0  0  0  0  0  0  0  0
   -1.4480    7.0431   -2.6826 H   0  0  0  0  0  0  0  0  0  0  0  0
   -1.1290    7.4060   -0.9544 H   0  0  0  0  0  0  0  0  0  0  0  0
   -2.7809    7.5061   -1.6020 H   0  0  0  0  0  0  0  0  0  0  0  0
   -1.5787    2.5598   -1.0174 H   0  0  0  0  0  0  0  0  0  0  0  0
    0.5244    1.2791   -1.0858 H   0  0  0  0  0  0  0  0  0  0  0  0
    5.4375    2.2677   -0.4039 H   0  0  0  0  0  0  0  0  0  0  0  0
    7.4032    3.1644   -1.5864 H   0  0  0  0  0  0  0  0  0  0  0  0
    6.8728    4.1828   -6.2939 H   0  0  0  0  0  0  0  0  0  0  0  0
    6.4015    5.7310   -5.5130 H   0  0  0  0  0  0  0  0  0  0  0  0
    8.0567    5.4975   -6.1162 H   0  0  0  0  0  0  0  0  0  0  0  0
    4.9862    3.8976   -5.0380 H   0  0  0  0  0  0  0  0  0  0  0  0
    3.0437    3.0162   -3.8628 H   0  0  0  0  0  0  0  0  0  0  0  0
    2.5681   -2.5915   -0.5401 H   0  0  0  0  0  0  0  0  0  0  0  0
    3.2494   -6.5686   -3.7964 H   0  0  0  0  0  0  0  0  0  0  0  0
    1.4330   -8.0123   -2.6361 H   0  0  0  0  0  0  0  0  0  0  0  0
   -0.9606   -8.7914    0.9930 H   0  0  0  0  0  0  0  0  0  0  0  0
   -0.4282   -9.3526   -0.5713 H   0  0  0  0  0  0  0  0  0  0  0  0
    1.3468   -7.9620    1.4857 H   0  0  0  0  0  0  0  0  0  0  0  0
    1.8753   -8.5043   -0.0997 H   0  0  0  0  0  0  0  0  0  0  0  0
    1.3452   -9.6821    1.1016 H   0  0  0  0  0  0  0  0  0  0  0  0
   -2.4791   -6.0642   -2.1587 H   0  0  0  0  0  0  0  0  0  0  0  0
   -1.8645   -7.6071   -2.6842 H   0  0  0  0  0  0  0  0  0  0  0  0
   -3.1436   -8.7433   -0.8557 H   0  0  0  0  0  0  0  0  0  0  0  0
   -4.2039   -7.8199   -1.9176 H   0  0  0  0  0  0  0  0  0  0  0  0
   -3.7688   -7.1815   -0.3341 H   0  0  0  0  0  0  0  0  0  0  0  0
   -1.2825   -4.5931    0.2079 H   0  0  0  0  0  0  0  0  0  0  0  0
   -2.0732   -5.7882    1.2073 H   0  0  0  0  0  0  0  0  0  0  0  0
   -0.3291   -4.5189    2.4547 H   0  0  0  0  0  0  0  0  0  0  0  0
    0.9011   -5.1223    1.3471 H   0  0  0  0  0  0  0  0  0  0  0  0
    0.0388   -6.2408    2.4052 H   0  0  0  0  0  0  0  0  0  0  0  0
    6.5001    0.3186   -3.0317 H   0  0  0  0  0  0  0  0  0  0  0  0
    8.1908    1.7040   -4.4205 H   0  0  0  0  0  0  0  0  0  0  0  0
    9.5807    3.2066   -6.1592 H   0  0  0  0  0  0  0  0  0  0  0  0
   10.5064    1.7302   -6.1792 H   0  0  0  0  0  0  0  0  0  0  0  0
   10.3505    3.7180   -8.4899 H   0  0  0  0  0  0  0  0  0  0  0  0
   11.7007    3.5472   -7.3695 H   0  0  0  0  0  0  0  0  0  0  0  0
   11.3057    2.2397   -8.4820 H   0  0  0  0  0  0  0  0  0  0  0  0
    7.8808    2.5700   -9.7725 H   0  0  0  0  0  0  0  0  0  0  0  0
    7.5913    3.6798   -8.4598 H   0  0  0  0  0  0  0  0  0  0  0  0
    5.5259    2.4037   -7.8377 H   0  0  0  0  0  0  0  0  0  0  0  0
    5.8292    1.2868   -9.1589 H   0  0  0  0  0  0  0  0  0  0  0  0
    5.4621    2.9765   -9.5047 H   0  0  0  0  0  0  0  0  0  0  0  0
    8.1692   -0.5188   -9.0618 H   0  0  0  0  0  0  0  0  0  0  0  0
    9.6791    0.2743   -9.4422 H   0  0  0  0  0  0  0  0  0  0  0  0
   10.6990   -0.6453   -7.3589 H   0  0  0  0  0  0  0  0  0  0  0  0
   10.0712   -1.9343   -8.3838 H   0  0  0  0  0  0  0  0  0  0  0  0
    9.1721   -1.4238   -6.9556 H   0  0  0  0  0  0  0  0  0  0  0  0
    5.4797   -2.7452   -7.1553 H   0  0  0  0  0  0  0  0  0  0  0  0
    5.0010   -5.1713   -8.4201 H   0  0  0  0  0  0  0  0  0  0  0  0
    3.9755  -10.3031   -9.5380 H   0  0  0  0  0  0  0  0  0  0  0  0
    2.6551  -12.0900   -8.4062 H   0  0  0  0  0  0  0  0  0  0  0  0
    1.0197   -9.2236   -5.6784 H   0  0  0  0  0  0  0  0  0  0  0  0
  1  2  2  0  0  0  0
  2  3  1  0  0  0  0
  3  4  2  0  0  0  0
  3  5  1  0  0  0  0
  5  6  2  0  0  0  0
  6  7  1  0  0  0  0
  7  8  2  0  0  0  0
  8  9  1  0  0  0  0
  9 10  2  0  0  0  0
 10 11  1  0  0  0  0
 11 12  2  0  0  0  0
 12 13  1  0  0  0  0
 13 14  3  0  0  0  0
 12 15  1  0  0  0  0
 15 16  3  0  0  0  0
  8 17  1  0  0  0  0
 17 18  1  0  0  0  0
 18 19  1  0  0  0  0
 19 20  2  0  0  0  0
 20 21  1  0  0  0  0
 21 22  1  0  0  0  0
 21 23  1  0  0  0  0
  1 24  1  0  0  0  0
 24 25  2  0  0  0  0
 25 26  1  0  0  0  0
 26 27  1  0  0  0  0
 27 28  1  0  0  0  0
 28 29  1  0  0  0  0
 27 30  1  0  0  0  0
 30 31  2  0  0  0  0
 31 32  1  0  0  0  0
 32 33  1  0  0  0  0
 33 34  2  0  0  0  0
 31 35  1  0  0  0  0
 35 36  2  0  0  0  0
 36 37  1  0  0  0  0
 37 38  2  0  0  0  0
 37 39  1  0  0  0  0
 39 40  2  0  0  0  0
 40 41  1  0  0  0  0
 41 42  1  0  0  0  0
 42 43  2  0  0  0  0
 43 44  1  0  0  0  0
 44 45  2  0  0  0  0
 45 46  1  0  0  0  0
 46 47  1  0  0  0  0
 45 48  1  0  0  0  0
 48 49  2  0  0  0  0
 41 50  1  0  0  0  0
 50 51  2  0  0  0  0
 51 52  1  0  0  0  0
 52 53  2  0  0  0  0
 53 54  1  0  0  0  0
 54 55  1  0  0  0  0
 53 56  1  0  0  0  0
 56 57  2  0  0  0  0
 40 58  1  0  0  0  0
 58 59  1  0  0  0  0
 59 60  1  0  0  0  0
 60 61  2  0  0  0  0
 61 62  1  0  0  0  0
 62 63  1  0  0  0  0
 63 64  2  0  0  0  0
 64 65  1  0  0  0  0
 65 66  2  0  0  0  0
 66 67  1  0  0  0  0
 67 68  1  0  0  0  0
 66 69  1  0  0  0  0
 69 70  2  0  0  0  0
 62 71  1  0  0  0  0
 71 72  2  0  0  0  0
 72 73  1  0  0  0  0
 73 74  2  0  0  0  0
 74 75  1  0  0  0  0
 75 76  1  0  0  0  0
 74 77  1  0  0  0  0
 77 78  2  0  0  0  0
 61 79  1  0  0  0  0
 79 80  1  0  0  0  0
 60 81  1  0  0  0  0
 81 82  2  0  0  0  0
 82 83  1  0  0  0  0
 83 84  2  0  0  0  0
 84 85  1  0  0  0  0
 85 86  2  0  0  0  0
 86 87  1  0  0  0  0
 87 88  2  0  0  0  0
 88 89  1  0  0  0  0
 89 90  1  0  0  0  0
 90 91  1  0  0  0  0
 89 92  1  0  0  0  0
 92 93  1  0  0  0  0
 89 94  1  0  0  0  0
 94 95  1  0  0  0  0
 88 96  1  0  0  0  0
 84 97  1  0  0  0  0
 97 98  2  0  0  0  0
 98 99  1  0  0  0  0
 99100  1  0  0  0  0
100101  2  0  0  0  0
101102  1  0  0  0  0
102103  2  0  0  0  0
103104  1  0  0  0  0
104105  1  0  0  0  0
105106  1  0  0  0  0
104107  1  0  0  0  0
107108  1  0  0  0  0
104109  1  0  0  0  0
109110  1  0  0  0  0
103111  1  0  0  0  0
 99112  2  0  0  0  0
112113  1  0  0  0  0
 98114  1  0  0  0  0
114115  2  0  0  0  0
115116  1  0  0  0  0
115117  1  0  0  0  0
117118  2  0  0  0  0
118119  1  0  0  0  0
119120  2  0  0  0  0
119121  1  0  0  0  0
121122  2  0  0  0  0
122123  1  0  0  0  0
123124  2  0  0  0  0
124125  1  0  0  0  0
124126  1  0  0  0  0
126127  2  0  0  0  0
127128  1  0  0  0  0
128129  2  0  0  0  0
129130  1  0  0  0  0
130131  3  0  0  0  0
129132  1  0  0  0  0
132133  3  0  0  0  0
 11  2  1  0  0  0  0
 23 17  1  0  0  0  0
 34 24  1  0  0  0  0
 80 39  1  0  0  0  0
113 81  1  0  0  0  0
128118  1  0  0  0  0
 10  5  1  0  0  0  0
 22 18  1  0  0  0  0
 32 26  2  0  0  0  0
 49 42  1  0  0  0  0
 57 50  1  0  0  0  0
 79 58  2  0  0  0  0
112 83  1  0  0  0  0
127121  1  0  0  0  0
 23  7  1  0  0  0  0
 38 30  1  0  0  0  0
 70 63  1  0  0  0  0
 78 71  1  0  0  0  0
 96 85  1  0  0  0  0
116 97  1  0  0  0  0
111100  1  0  0  0  0
  1134  1  0  0  0  0
  6135  1  0  0  0  0
  9136  1  0  0  0  0
 17137  1  0  0  0  0
 18138  1  0  0  0  0
 19139  1  0  0  0  0
 20140  1  0  0  0  0
 21141  1  0  0  0  0
 22142  1  0  0  0  0
 22143  1  0  0  0  0
 23144  1  0  0  0  0
 25145  1  0  0  0  0
 28146  1  0  0  0  0
 28147  1  0  0  0  0
 29148  1  0  0  0  0
 29149  1  0  0  0  0
 29150  1  0  0  0  0
 33151  1  0  0  0  0
 34152  1  0  0  0  0
 35153  1  0  0  0  0
 36154  1  0  0  0  0
 38155  1  0  0  0  0
 43156  1  0  0  0  0
 44157  1  0  0  0  0
 47158  1  0  0  0  0
 47159  1  0  0  0  0
 47160  1  0  0  0  0
 48161  1  0  0  0  0
 49162  1  0  0  0  0
 51163  1  0  0  0  0
 52164  1  0  0  0  0
 55165  1  0  0  0  0
 55166  1  0  0  0  0
 55167  1  0  0  0  0
 56168  1  0  0  0  0
 57169  1  0  0  0  0
 64170  1  0  0  0  0
 65171  1  0  0  0  0
 68172  1  0  0  0  0
 68173  1  0  0  0  0
 68174  1  0  0  0  0
 69175  1  0  0  0  0
 70176  1  0  0  0  0
 72177  1  0  0  0  0
 73178  1  0  0  0  0
 76179  1  0  0  0  0
 76180  1  0  0  0  0
 76181  1  0  0  0  0
 77182  1  0  0  0  0
 78183  1  0  0  0  0
 82184  1  0  0  0  0
 86185  1  0  0  0  0
 87186  1  0  0  0  0
 90187  1  0  0  0  0
 90188  1  0  0  0  0
 91189  1  0  0  0  0
 91190  1  0  0  0  0
 91191  1  0  0  0  0
 92192  1  0  0  0  0
 92193  1  0  0  0  0
 93194  1  0  0  0  0
 93195  1  0  0  0  0
 93196  1  0  0  0  0
 94197  1  0  0  0  0
 94198  1  0  0  0  0
 95199  1  0  0  0  0
 95200  1  0  0  0  0
 95201  1  0  0  0  0
101202  1  0  0  0  0
102203  1  0  0  0  0
105204  1  0  0  0  0
105205  1  0  0  0  0
106206  1  0  0  0  0
106207  1  0  0  0  0
106208  1  0  0  0  0
107209  1  0  0  0  0
107210  1  0  0  0  0
108211  1  0  0  0  0
108212  1  0  0  0  0
108213  1  0  0  0  0
109214  1  0  0  0  0
109215  1  0  0  0  0
110216  1  0  0  0  0
110217  1  0  0  0  0
110218  1  0  0  0  0
114219  1  0  0  0  0
117220  1  0  0  0  0
122221  1  0  0  0  0
123222  1  0  0  0  0
126223  1  0  0  0  0
M  END
