
  xtb     02042221453D
 energy: -306.041729905895 gnorm: 0.000585810777 xtb: 6.4.1 (unknown)
183202  0     0  0            999 V2000
    8.0567    7.3349   -3.0713 C   0  0  0  0  0  0  0  0  0  0  0  0
    8.6636    7.8332   -1.9586 C   0  0  0  0  0  0  0  0  0  0  0  0
    8.0595    8.1600   -0.6405 C   0  0  0  0  0  0  0  0  0  0  0  0
    6.9750    7.8442   -0.1968 O   0  0  0  0  0  0  0  0  0  0  0  0
    9.0406    9.0240    0.0431 C   0  0  0  0  0  0  0  0  0  0  0  0
    8.8793    9.6362    1.2842 C   0  0  0  0  0  0  0  0  0  0  0  0
    9.9602   10.3833    1.6839 C   0  0  0  0  0  0  0  0  0  0  0  0
   11.1146   10.5243    0.9010 C   0  0  0  0  0  0  0  0  0  0  0  0
   11.2850    9.9304   -0.3264 C   0  0  0  0  0  0  0  0  0  0  0  0
   10.2003    9.1536   -0.7456 C   0  0  0  0  0  0  0  0  0  0  0  0
   10.0205    8.3632   -1.9565 C   0  0  0  0  0  0  0  0  0  0  0  0
   10.9955    8.0717   -2.8738 C   0  0  0  0  0  0  0  0  0  0  0  0
   12.3124    8.5747   -2.8223 C   0  0  0  0  0  0  0  0  0  0  0  0
   13.3967    8.9517   -2.8425 N   0  0  0  0  0  0  0  0  0  0  0  0
   10.8448    7.1859   -3.9626 C   0  0  0  0  0  0  0  0  0  0  0  0
   10.8147    6.4556   -4.8489 N   0  0  0  0  0  0  0  0  0  0  0  0
   11.7931   11.4058    1.9192 C   0  0  0  0  0  0  0  0  0  0  0  0
   12.8925   10.7673    2.8037 C   0  0  0  0  0  0  0  0  0  0  0  0
   12.5748    9.2948    2.8865 C   0  0  0  0  0  0  0  0  0  0  0  0
   11.4842    9.1572    3.6287 C   0  0  0  0  0  0  0  0  0  0  0  0
   11.0445   10.5343    4.0607 C   0  0  0  0  0  0  0  0  0  0  0  0
   12.4107   11.2266    4.1891 C   0  0  0  0  0  0  0  0  0  0  0  0
   10.5091   11.2452    2.7928 C   0  0  0  0  0  0  0  0  0  0  0  0
    6.7903    6.6864   -3.2404 C   0  0  0  0  0  0  0  0  0  0  0  0
    6.1354    6.0248   -2.1987 C   0  0  0  0  0  0  0  0  0  0  0  0
    4.9504    5.3727   -2.4753 C   0  0  0  0  0  0  0  0  0  0  0  0
    4.1448    4.6502   -1.6319 N   0  0  0  0  0  0  0  0  0  0  0  0
    4.3546    4.4956   -0.2160 C   0  0  0  0  0  0  0  0  0  0  0  0
    5.1806    3.2529    0.1079 C   0  0  0  0  0  0  0  0  0  0  0  0
    3.1416    4.0835   -2.3709 C   0  0  0  0  0  0  0  0  0  0  0  0
    3.2570    4.5012   -3.7231 C   0  0  0  0  0  0  0  0  0  0  0  0
    4.4120    5.3346   -3.7883 C   0  0  0  0  0  0  0  0  0  0  0  0
    5.0714    5.9965   -4.8232 C   0  0  0  0  0  0  0  0  0  0  0  0
    6.2444    6.6531   -4.5457 C   0  0  0  0  0  0  0  0  0  0  0  0
    2.3584    4.0334   -4.6765 C   0  0  0  0  0  0  0  0  0  0  0  0
    1.4262    3.0979   -4.2986 C   0  0  0  0  0  0  0  0  0  0  0  0
    1.3550    2.6352   -2.9732 C   0  0  0  0  0  0  0  0  0  0  0  0
    2.1733    3.1692   -1.9875 C   0  0  0  0  0  0  0  0  0  0  0  0
    0.4931    1.5015   -2.6747 C   0  0  0  0  0  0  0  0  0  0  0  0
    0.5107    0.2940   -3.3410 C   0  0  0  0  0  0  0  0  0  0  0  0
    1.4077   -0.0258   -4.3568 N   0  0  0  0  0  0  0  0  0  0  0  0
    2.7316    0.4255   -4.2383 C   0  0  0  0  0  0  0  0  0  0  0  0
    3.4068    0.9837   -5.3195 C   0  0  0  0  0  0  0  0  0  0  0  0
    4.6562    1.5510   -5.1556 C   0  0  0  0  0  0  0  0  0  0  0  0
    5.2588    1.5594   -3.9058 C   0  0  0  0  0  0  0  0  0  0  0  0
    6.7916    2.3546   -3.5341 S   0  0  0  0  0  0  0  0  0  0  0  0
    7.2875    3.1244   -5.0975 C   0  0  0  0  0  0  0  0  0  0  0  0
    4.6239    0.9229   -2.8415 C   0  0  0  0  0  0  0  0  0  0  0  0
    3.3758    0.3686   -3.0022 C   0  0  0  0  0  0  0  0  0  0  0  0
    0.9783   -0.7587   -5.4613 C   0  0  0  0  0  0  0  0  0  0  0  0
    1.8614   -1.5990   -6.1431 C   0  0  0  0  0  0  0  0  0  0  0  0
    1.4281   -2.3329   -7.2228 C   0  0  0  0  0  0  0  0  0  0  0  0
    0.1023   -2.2585   -7.6466 C   0  0  0  0  0  0  0  0  0  0  0  0
   -0.3324   -3.2474   -9.0457 S   0  0  0  0  0  0  0  0  0  0  0  0
   -2.1375   -3.0835   -9.1492 C   0  0  0  0  0  0  0  0  0  0  0  0
   -0.7795   -1.4248   -6.9755 C   0  0  0  0  0  0  0  0  0  0  0  0
   -0.3424   -0.6799   -5.8971 C   0  0  0  0  0  0  0  0  0  0  0  0
   -0.4307   -0.6089   -2.7841 C   0  0  0  0  0  0  0  0  0  0  0  0
   -0.8642   -2.2515   -3.0982 S   0  0  0  0  0  0  0  0  0  0  0  0
   -2.0131   -2.2251   -1.7712 C   0  0  0  0  0  0  0  0  0  0  0  0
   -2.0180   -1.0179   -1.0971 C   0  0  0  0  0  0  0  0  0  0  0  0
   -2.7373   -0.7201    0.0560 N   0  0  0  0  0  0  0  0  0  0  0  0
   -2.9657   -1.6895    1.0387 C   0  0  0  0  0  0  0  0  0  0  0  0
   -2.0092   -2.6661    1.3234 C   0  0  0  0  0  0  0  0  0  0  0  0
   -2.2958   -3.6862    2.2004 C   0  0  0  0  0  0  0  0  0  0  0  0
   -3.5340   -3.7509    2.8380 C   0  0  0  0  0  0  0  0  0  0  0  0
   -3.8168   -5.1511    3.8757 S   0  0  0  0  0  0  0  0  0  0  0  0
   -5.4393   -4.8304    4.6204 C   0  0  0  0  0  0  0  0  0  0  0  0
   -4.4614   -2.7434    2.6151 C   0  0  0  0  0  0  0  0  0  0  0  0
   -4.1791   -1.7277    1.7221 C   0  0  0  0  0  0  0  0  0  0  0  0
   -3.2474    0.5765    0.2030 C   0  0  0  0  0  0  0  0  0  0  0  0
   -3.2465    1.2033    1.4460 C   0  0  0  0  0  0  0  0  0  0  0  0
   -3.7393    2.4851    1.5912 C   0  0  0  0  0  0  0  0  0  0  0  0
   -4.2340    3.1701    0.4894 C   0  0  0  0  0  0  0  0  0  0  0  0
   -4.8848    4.8107    0.5462 S   0  0  0  0  0  0  0  0  0  0  0  0
   -4.6480    5.3190    2.2725 C   0  0  0  0  0  0  0  0  0  0  0  0
   -4.2378    2.5474   -0.7568 C   0  0  0  0  0  0  0  0  0  0  0  0
   -3.7566    1.2657   -0.8990 C   0  0  0  0  0  0  0  0  0  0  0  0
   -1.1202   -0.0978   -1.6987 C   0  0  0  0  0  0  0  0  0  0  0  0
   -0.6166    1.5153   -1.3226 S   0  0  0  0  0  0  0  0  0  0  0  0
   -2.7264   -3.4287   -1.3895 C   0  0  0  0  0  0  0  0  0  0  0  0
   -4.0521   -3.3429   -0.9738 C   0  0  0  0  0  0  0  0  0  0  0  0
   -4.6117   -4.4432   -0.3490 C   0  0  0  0  0  0  0  0  0  0  0  0
   -5.8306   -4.5654    0.2685 N   0  0  0  0  0  0  0  0  0  0  0  0
   -6.8956   -3.5995    0.2267 C   0  0  0  0  0  0  0  0  0  0  0  0
   -7.8115   -3.8285   -0.9746 C   0  0  0  0  0  0  0  0  0  0  0  0
   -5.8828   -5.7939    0.8832 C   0  0  0  0  0  0  0  0  0  0  0  0
   -4.6738   -6.4999    0.6285 C   0  0  0  0  0  0  0  0  0  0  0  0
   -3.8676   -5.6382   -0.1691 C   0  0  0  0  0  0  0  0  0  0  0  0
   -2.5877   -5.7482   -0.7071 C   0  0  0  0  0  0  0  0  0  0  0  0
   -2.0319   -4.6490   -1.3146 C   0  0  0  0  0  0  0  0  0  0  0  0
   -4.4737   -7.7557    1.1959 C   0  0  0  0  0  0  0  0  0  0  0  0
   -5.4368   -8.2835    2.0203 C   0  0  0  0  0  0  0  0  0  0  0  0
   -6.6307   -7.5828    2.2993 C   0  0  0  0  0  0  0  0  0  0  0  0
   -6.8534   -6.3274    1.6999 C   0  0  0  0  0  0  0  0  0  0  0  0
   -7.6005   -7.9941    3.2602 C   0  0  0  0  0  0  0  0  0  0  0  0
   -7.7904   -9.1370    3.9884 C   0  0  0  0  0  0  0  0  0  0  0  0
   -7.2703  -10.5056    3.7576 C   0  0  0  0  0  0  0  0  0  0  0  0
   -6.4226  -10.8838    2.9783 O   0  0  0  0  0  0  0  0  0  0  0  0
   -8.0558  -11.3841    4.6525 C   0  0  0  0  0  0  0  0  0  0  0  0
   -7.9901  -12.7417    4.7722 C   0  0  0  0  0  0  0  0  0  0  0  0
   -8.8453  -13.3913    5.6903 C   0  0  0  0  0  0  0  0  0  0  0  0
   -8.8144  -14.7890    5.8595 C   0  0  0  0  0  0  0  0  0  0  0  0
   -9.6547  -15.3926    6.7524 C   0  0  0  0  0  0  0  0  0  0  0  0
   -9.6238  -16.7233    6.9125 F   0  0  0  0  0  0  0  0  0  0  0  0
  -10.5611  -14.6273    7.5128 C   0  0  0  0  0  0  0  0  0  0  0  0
  -11.3736  -15.2466    8.3804 F   0  0  0  0  0  0  0  0  0  0  0  0
  -10.6147  -13.2693    7.3709 C   0  0  0  0  0  0  0  0  0  0  0  0
   -9.7598  -12.6158    6.4606 C   0  0  0  0  0  0  0  0  0  0  0  0
   -9.8024  -11.2105    6.3146 C   0  0  0  0  0  0  0  0  0  0  0  0
   -8.9557  -10.6021    5.4256 C   0  0  0  0  0  0  0  0  0  0  0  0
   -8.7514   -9.2017    5.0780 C   0  0  0  0  0  0  0  0  0  0  0  0
   -9.2801   -8.1332    5.7584 C   0  0  0  0  0  0  0  0  0  0  0  0
   -8.9446   -6.7808    5.5405 C   0  0  0  0  0  0  0  0  0  0  0  0
   -8.6944   -5.6619    5.4554 N   0  0  0  0  0  0  0  0  0  0  0  0
  -10.1953   -8.2548    6.8242 C   0  0  0  0  0  0  0  0  0  0  0  0
  -10.9496   -8.2883    7.6890 N   0  0  0  0  0  0  0  0  0  0  0  0
    8.6010    7.4605   -4.0014 H   0  0  0  0  0  0  0  0  0  0  0  0
    7.9709    9.5060    1.8515 H   0  0  0  0  0  0  0  0  0  0  0  0
   12.1744   10.0548   -0.9214 H   0  0  0  0  0  0  0  0  0  0  0  0
   12.0594   12.4059    1.5830 H   0  0  0  0  0  0  0  0  0  0  0  0
   13.9084   11.0233    2.5156 H   0  0  0  0  0  0  0  0  0  0  0  0
   13.1255    8.5335    2.3657 H   0  0  0  0  0  0  0  0  0  0  0  0
   10.9413    8.2575    3.8519 H   0  0  0  0  0  0  0  0  0  0  0  0
   10.3781   10.5786    4.9182 H   0  0  0  0  0  0  0  0  0  0  0  0
   12.3411   12.3091    4.2878 H   0  0  0  0  0  0  0  0  0  0  0  0
   13.0135   10.8212    5.0003 H   0  0  0  0  0  0  0  0  0  0  0  0
    9.9374   12.1406    3.0295 H   0  0  0  0  0  0  0  0  0  0  0  0
    6.5676    5.9982   -1.2153 H   0  0  0  0  0  0  0  0  0  0  0  0
    4.8648    5.3912    0.1474 H   0  0  0  0  0  0  0  0  0  0  0  0
    3.3779    4.4366    0.2733 H   0  0  0  0  0  0  0  0  0  0  0  0
    5.4074    3.2225    1.1703 H   0  0  0  0  0  0  0  0  0  0  0  0
    6.1127    3.2636   -0.4524 H   0  0  0  0  0  0  0  0  0  0  0  0
    4.6299    2.3545   -0.1581 H   0  0  0  0  0  0  0  0  0  0  0  0
    4.6703    5.9778   -5.8260 H   0  0  0  0  0  0  0  0  0  0  0  0
    6.7738    7.1611   -5.3387 H   0  0  0  0  0  0  0  0  0  0  0  0
    2.4168    4.3742   -5.6989 H   0  0  0  0  0  0  0  0  0  0  0  0
    0.7416    2.6894   -5.0266 H   0  0  0  0  0  0  0  0  0  0  0  0
    2.0929    2.8158   -0.9709 H   0  0  0  0  0  0  0  0  0  0  0  0
    2.9353    1.0017   -6.2908 H   0  0  0  0  0  0  0  0  0  0  0  0
    5.1377    2.0027   -6.0077 H   0  0  0  0  0  0  0  0  0  0  0  0
    7.4748    2.3592   -5.8452 H   0  0  0  0  0  0  0  0  0  0  0  0
    6.5203    3.8223   -5.4201 H   0  0  0  0  0  0  0  0  0  0  0  0
    8.2057    3.6629   -4.8824 H   0  0  0  0  0  0  0  0  0  0  0  0
    5.1249    0.8785   -1.8871 H   0  0  0  0  0  0  0  0  0  0  0  0
    2.8805   -0.1016   -2.1655 H   0  0  0  0  0  0  0  0  0  0  0  0
    2.8857   -1.6768   -5.8113 H   0  0  0  0  0  0  0  0  0  0  0  0
    2.1100   -2.9843   -7.7476 H   0  0  0  0  0  0  0  0  0  0  0  0
   -2.5882   -3.3861   -8.2086 H   0  0  0  0  0  0  0  0  0  0  0  0
   -2.4469   -3.7576   -9.9419 H   0  0  0  0  0  0  0  0  0  0  0  0
   -2.4085   -2.0639   -9.4086 H   0  0  0  0  0  0  0  0  0  0  0  0
   -1.8085   -1.3350   -7.2844 H   0  0  0  0  0  0  0  0  0  0  0  0
   -1.0349   -0.0214   -5.3934 H   0  0  0  0  0  0  0  0  0  0  0  0
   -1.0459   -2.6279    0.8383 H   0  0  0  0  0  0  0  0  0  0  0  0
   -1.5638   -4.4528    2.4016 H   0  0  0  0  0  0  0  0  0  0  0  0
   -5.6220   -5.6587    5.2973 H   0  0  0  0  0  0  0  0  0  0  0  0
   -6.2087   -4.8162    3.8549 H   0  0  0  0  0  0  0  0  0  0  0  0
   -5.4163   -3.8997    5.1788 H   0  0  0  0  0  0  0  0  0  0  0  0
   -5.4169   -2.7467    3.1143 H   0  0  0  0  0  0  0  0  0  0  0  0
   -4.9176   -0.9602    1.5385 H   0  0  0  0  0  0  0  0  0  0  0  0
   -2.8511    0.6802    2.3041 H   0  0  0  0  0  0  0  0  0  0  0  0
   -3.7214    2.9393    2.5686 H   0  0  0  0  0  0  0  0  0  0  0  0
   -5.2328    4.6851    2.9328 H   0  0  0  0  0  0  0  0  0  0  0  0
   -5.0111    6.3406    2.3274 H   0  0  0  0  0  0  0  0  0  0  0  0
   -3.5923    5.2887    2.5259 H   0  0  0  0  0  0  0  0  0  0  0  0
   -4.6290    3.0816   -1.6090 H   0  0  0  0  0  0  0  0  0  0  0  0
   -3.7737    0.7877   -1.8676 H   0  0  0  0  0  0  0  0  0  0  0  0
   -4.5996   -2.4221   -1.1025 H   0  0  0  0  0  0  0  0  0  0  0  0
   -6.4541   -2.6014    0.1786 H   0  0  0  0  0  0  0  0  0  0  0  0
   -7.4695   -3.6709    1.1543 H   0  0  0  0  0  0  0  0  0  0  0  0
   -7.2453   -3.7452   -1.8994 H   0  0  0  0  0  0  0  0  0  0  0  0
   -8.6091   -3.0906   -0.9843 H   0  0  0  0  0  0  0  0  0  0  0  0
   -8.2532   -4.8214   -0.9292 H   0  0  0  0  0  0  0  0  0  0  0  0
   -2.0328   -6.6685   -0.6117 H   0  0  0  0  0  0  0  0  0  0  0  0
   -1.0230   -4.6906   -1.6975 H   0  0  0  0  0  0  0  0  0  0  0  0
   -3.5586   -8.2951    1.0084 H   0  0  0  0  0  0  0  0  0  0  0  0
   -5.2766   -9.2444    2.4757 H   0  0  0  0  0  0  0  0  0  0  0  0
   -7.7700   -5.7933    1.9076 H   0  0  0  0  0  0  0  0  0  0  0  0
   -8.3234   -7.2126    3.4727 H   0  0  0  0  0  0  0  0  0  0  0  0
   -7.2938  -13.3117    4.1760 H   0  0  0  0  0  0  0  0  0  0  0  0
   -8.1264  -15.3889    5.2845 H   0  0  0  0  0  0  0  0  0  0  0  0
  -11.3128  -12.6979    7.9625 H   0  0  0  0  0  0  0  0  0  0  0  0
  -10.5086  -10.6513    6.9068 H   0  0  0  0  0  0  0  0  0  0  0  0
  1  2  2  0  0  0  0
  2  3  1  0  0  0  0
  3  4  2  0  0  0  0
  3  5  1  0  0  0  0
  5  6  2  0  0  0  0
  6  7  1  0  0  0  0
  7  8  2  0  0  0  0
  8  9  1  0  0  0  0
  9 10  2  0  0  0  0
 10 11  1  0  0  0  0
 11 12  2  0  0  0  0
 12 13  1  0  0  0  0
 13 14  3  0  0  0  0
 12 15  1  0  0  0  0
 15 16  3  0  0  0  0
  8 17  1  0  0  0  0
 17 18  1  0  0  0  0
 18 19  1  0  0  0  0
 19 20  2  0  0  0  0
 20 21  1  0  0  0  0
 21 22  1  0  0  0  0
 21 23  1  0  0  0  0
  1 24  1  0  0  0  0
 24 25  2  0  0  0  0
 25 26  1  0  0  0  0
 26 27  1  0  0  0  0
 27 28  1  0  0  0  0
 28 29  1  0  0  0  0
 27 30  1  0  0  0  0
 30 31  2  0  0  0  0
 31 32  1  0  0  0  0
 32 33  1  0  0  0  0
 33 34  2  0  0  0  0
 31 35  1  0  0  0  0
 35 36  2  0  0  0  0
 36 37  1  0  0  0  0
 37 38  2  0  0  0  0
 37 39  1  0  0  0  0
 39 40  2  0  0  0  0
 40 41  1  0  0  0  0
 41 42  1  0  0  0  0
 42 43  2  0  0  0  0
 43 44  1  0  0  0  0
 44 45  2  0  0  0  0
 45 46  1  0  0  0  0
 46 47  1  0  0  0  0
 45 48  1  0  0  0  0
 48 49  2  0  0  0  0
 41 50  1  0  0  0  0
 50 51  2  0  0  0  0
 51 52  1  0  0  0  0
 52 53  2  0  0  0  0
 53 54  1  0  0  0  0
 54 55  1  0  0  0  0
 53 56  1  0  0  0  0
 56 57  2  0  0  0  0
 40 58  1  0  0  0  0
 58 59  1  0  0  0  0
 59 60  1  0  0  0  0
 60 61  2  0  0  0  0
 61 62  1  0  0  0  0
 62 63  1  0  0  0  0
 63 64  2  0  0  0  0
 64 65  1  0  0  0  0
 65 66  2  0  0  0  0
 66 67  1  0  0  0  0
 67 68  1  0  0  0  0
 66 69  1  0  0  0  0
 69 70  2  0  0  0  0
 62 71  1  0  0  0  0
 71 72  2  0  0  0  0
 72 73  1  0  0  0  0
 73 74  2  0  0  0  0
 74 75  1  0  0  0  0
 75 76  1  0  0  0  0
 74 77  1  0  0  0  0
 77 78  2  0  0  0  0
 61 79  1  0  0  0  0
 79 80  1  0  0  0  0
 60 81  1  0  0  0  0
 81 82  2  0  0  0  0
 82 83  1  0  0  0  0
 83 84  1  0  0  0  0
 84 85  1  0  0  0  0
 85 86  1  0  0  0  0
 84 87  1  0  0  0  0
 87 88  2  0  0  0  0
 88 89  1  0  0  0  0
 89 90  1  0  0  0  0
 90 91  2  0  0  0  0
 88 92  1  0  0  0  0
 92 93  2  0  0  0  0
 93 94  1  0  0  0  0
 94 95  2  0  0  0  0
 94 96  1  0  0  0  0
 96 97  2  0  0  0  0
 97 98  1  0  0  0  0
 98 99  2  0  0  0  0
 98100  1  0  0  0  0
100101  2  0  0  0  0
101102  1  0  0  0  0
102103  2  0  0  0  0
103104  1  0  0  0  0
104105  1  0  0  0  0
104106  2  0  0  0  0
106107  1  0  0  0  0
106108  1  0  0  0  0
108109  2  0  0  0  0
109110  1  0  0  0  0
110111  2  0  0  0  0
111112  1  0  0  0  0
112113  2  0  0  0  0
113114  1  0  0  0  0
114115  3  0  0  0  0
113116  1  0  0  0  0
116117  3  0  0  0  0
 11  2  1  0  0  0  0
 23 17  1  0  0  0  0
 34 24  1  0  0  0  0
 80 39  1  0  0  0  0
 91 81  1  0  0  0  0
112 97  1  0  0  0  0
 10  5  1  0  0  0  0
 22 18  1  0  0  0  0
 32 26  2  0  0  0  0
 49 42  1  0  0  0  0
 57 50  1  0  0  0  0
 79 58  2  0  0  0  0
 89 83  2  0  0  0  0
111100  1  0  0  0  0
 23  7  1  0  0  0  0
 38 30  1  0  0  0  0
 70 63  1  0  0  0  0
 78 71  1  0  0  0  0
 95 87  1  0  0  0  0
109102  1  0  0  0  0
  1118  1  0  0  0  0
  6119  1  0  0  0  0
  9120  1  0  0  0  0
 17121  1  0  0  0  0
 18122  1  0  0  0  0
 19123  1  0  0  0  0
 20124  1  0  0  0  0
 21125  1  0  0  0  0
 22126  1  0  0  0  0
 22127  1  0  0  0  0
 23128  1  0  0  0  0
 25129  1  0  0  0  0
 28130  1  0  0  0  0
 28131  1  0  0  0  0
 29132  1  0  0  0  0
 29133  1  0  0  0  0
 29134  1  0  0  0  0
 33135  1  0  0  0  0
 34136  1  0  0  0  0
 35137  1  0  0  0  0
 36138  1  0  0  0  0
 38139  1  0  0  0  0
 43140  1  0  0  0  0
 44141  1  0  0  0  0
 47142  1  0  0  0  0
 47143  1  0  0  0  0
 47144  1  0  0  0  0
 48145  1  0  0  0  0
 49146  1  0  0  0  0
 51147  1  0  0  0  0
 52148  1  0  0  0  0
 55149  1  0  0  0  0
 55150  1  0  0  0  0
 55151  1  0  0  0  0
 56152  1  0  0  0  0
 57153  1  0  0  0  0
 64154  1  0  0  0  0
 65155  1  0  0  0  0
 68156  1  0  0  0  0
 68157  1  0  0  0  0
 68158  1  0  0  0  0
 69159  1  0  0  0  0
 70160  1  0  0  0  0
 72161  1  0  0  0  0
 73162  1  0  0  0  0
 76163  1  0  0  0  0
 76164  1  0  0  0  0
 76165  1  0  0  0  0
 77166  1  0  0  0  0
 78167  1  0  0  0  0
 82168  1  0  0  0  0
 85169  1  0  0  0  0
 85170  1  0  0  0  0
 86171  1  0  0  0  0
 86172  1  0  0  0  0
 86173  1  0  0  0  0
 90174  1  0  0  0  0
 91175  1  0  0  0  0
 92176  1  0  0  0  0
 93177  1  0  0  0  0
 95178  1  0  0  0  0
 96179  1  0  0  0  0
101180  1  0  0  0  0
103181  1  0  0  0  0
108182  1  0  0  0  0
110183  1  0  0  0  0
M  END
