
  xtb     02042222373D
 energy: -324.885650442669 gnorm: 0.000313807370 xtb: 6.4.1 (unknown)
192214  0     0  0            999 V2000
  -11.4071   -5.9058   -5.7200 C   0  0  0  0  0  0  0  0  0  0  0  0
  -11.2816   -7.1773   -5.2528 C   0  0  0  0  0  0  0  0  0  0  0  0
  -10.4906   -7.6245   -4.0748 C   0  0  0  0  0  0  0  0  0  0  0  0
   -9.6833   -6.9999   -3.4184 O   0  0  0  0  0  0  0  0  0  0  0  0
  -10.9380   -9.0003   -3.7924 C   0  0  0  0  0  0  0  0  0  0  0  0
  -10.4962   -9.8151   -2.7508 C   0  0  0  0  0  0  0  0  0  0  0  0
  -11.0759  -11.0599   -2.7306 C   0  0  0  0  0  0  0  0  0  0  0  0
  -12.0310  -11.4653   -3.6738 C   0  0  0  0  0  0  0  0  0  0  0  0
  -12.4756  -10.6727   -4.7042 C   0  0  0  0  0  0  0  0  0  0  0  0
  -11.8942   -9.4003   -4.7460 C   0  0  0  0  0  0  0  0  0  0  0  0
  -12.0969   -8.3041   -5.6860 C   0  0  0  0  0  0  0  0  0  0  0  0
  -12.8576   -8.3602   -6.8234 C   0  0  0  0  0  0  0  0  0  0  0  0
  -12.9701   -7.3324   -7.7847 C   0  0  0  0  0  0  0  0  0  0  0  0
  -13.1039   -6.5645   -8.6282 N   0  0  0  0  0  0  0  0  0  0  0  0
  -13.6204   -9.4789   -7.2203 C   0  0  0  0  0  0  0  0  0  0  0  0
  -14.2697  -10.3462   -7.6003 N   0  0  0  0  0  0  0  0  0  0  0  0
  -12.1870  -12.8288   -3.0478 C   0  0  0  0  0  0  0  0  0  0  0  0
  -13.4455  -13.0526   -2.1830 C   0  0  0  0  0  0  0  0  0  0  0  0
  -13.0942  -14.2564   -1.3387 C   0  0  0  0  0  0  0  0  0  0  0  0
  -12.1891  -13.8737   -0.4471 C   0  0  0  0  0  0  0  0  0  0  0  0
  -11.9135  -12.4047   -0.6735 C   0  0  0  0  0  0  0  0  0  0  0  0
  -13.3027  -11.9434   -1.1328 C   0  0  0  0  0  0  0  0  0  0  0  0
  -11.1213  -12.3776   -1.9980 C   0  0  0  0  0  0  0  0  0  0  0  0
  -10.6043   -4.7569   -5.4060 C   0  0  0  0  0  0  0  0  0  0  0  0
   -9.2485   -4.8662   -5.0933 C   0  0  0  0  0  0  0  0  0  0  0  0
   -8.5596   -3.7187   -4.7517 C   0  0  0  0  0  0  0  0  0  0  0  0
   -7.2488   -3.5809   -4.3695 N   0  0  0  0  0  0  0  0  0  0  0  0
   -6.3301   -4.6712   -4.1622 C   0  0  0  0  0  0  0  0  0  0  0  0
   -6.5658   -5.3596   -2.8196 C   0  0  0  0  0  0  0  0  0  0  0  0
   -7.0257   -2.2648   -4.0637 C   0  0  0  0  0  0  0  0  0  0  0  0
   -8.2049   -1.5119   -4.3118 C   0  0  0  0  0  0  0  0  0  0  0  0
   -9.1922   -2.4472   -4.7453 C   0  0  0  0  0  0  0  0  0  0  0  0
  -10.5315   -2.3419   -5.1173 C   0  0  0  0  0  0  0  0  0  0  0  0
  -11.2170   -3.4842   -5.4500 C   0  0  0  0  0  0  0  0  0  0  0  0
   -8.2079   -0.1369   -4.0887 C   0  0  0  0  0  0  0  0  0  0  0  0
   -7.0689    0.4653   -3.6082 C   0  0  0  0  0  0  0  0  0  0  0  0
   -5.9097   -0.2847   -3.3362 C   0  0  0  0  0  0  0  0  0  0  0  0
   -5.8838   -1.6574   -3.5726 C   0  0  0  0  0  0  0  0  0  0  0  0
   -4.7353    0.3379   -2.7646 C   0  0  0  0  0  0  0  0  0  0  0  0
   -4.4370    1.6381   -2.4616 C   0  0  0  0  0  0  0  0  0  0  0  0
   -3.1531    1.6364   -1.8480 C   0  0  0  0  0  0  0  0  0  0  0  0
   -2.3117    2.6369   -1.3358 C   0  0  0  0  0  0  0  0  0  0  0  0
   -2.6591    4.0558   -1.2499 C   0  0  0  0  0  0  0  0  0  0  0  0
   -1.6808    5.0339   -1.4267 C   0  0  0  0  0  0  0  0  0  0  0  0
   -2.0098    6.3646   -1.2819 C   0  0  0  0  0  0  0  0  0  0  0  0
   -1.0339    7.2858   -1.4431 F   0  0  0  0  0  0  0  0  0  0  0  0
   -3.2900    6.8082   -0.9683 C   0  0  0  0  0  0  0  0  0  0  0  0
   -3.6221    8.2658   -0.8476 C   0  0  0  0  0  0  0  0  0  0  0  0
   -3.9268    8.8646   -2.2228 C   0  0  0  0  0  0  0  0  0  0  0  0
   -4.2399    5.8054   -0.8104 C   0  0  0  0  0  0  0  0  0  0  0  0
   -5.5057    6.1594   -0.5003 F   0  0  0  0  0  0  0  0  0  0  0  0
   -3.9544    4.4607   -0.9349 C   0  0  0  0  0  0  0  0  0  0  0  0
   -1.0963    2.1623   -0.8544 C   0  0  0  0  0  0  0  0  0  0  0  0
   -0.6974    0.7996   -0.8433 C   0  0  0  0  0  0  0  0  0  0  0  0
   -1.5352   -0.1991   -1.3631 C   0  0  0  0  0  0  0  0  0  0  0  0
   -1.1774   -1.6158   -1.4281 C   0  0  0  0  0  0  0  0  0  0  0  0
   -2.1414   -2.5998   -1.2180 C   0  0  0  0  0  0  0  0  0  0  0  0
   -1.7930   -3.9309   -1.3170 C   0  0  0  0  0  0  0  0  0  0  0  0
   -0.5082   -4.3647   -1.6226 C   0  0  0  0  0  0  0  0  0  0  0  0
   -0.1376   -5.8164   -1.6871 C   0  0  0  0  0  0  0  0  0  0  0  0
    0.4612   -6.2753   -0.3552 C   0  0  0  0  0  0  0  0  0  0  0  0
    0.4251   -3.3535   -1.8260 C   0  0  0  0  0  0  0  0  0  0  0  0
    0.1220   -2.0103   -1.7411 C   0  0  0  0  0  0  0  0  0  0  0  0
    1.6903   -3.7028   -2.1394 F   0  0  0  0  0  0  0  0  0  0  0  0
   -2.7574   -4.8563   -1.1178 F   0  0  0  0  0  0  0  0  0  0  0  0
   -2.7523    0.2740   -1.8407 C   0  0  0  0  0  0  0  0  0  0  0  0
   -3.7166   -0.4895   -2.3956 O   0  0  0  0  0  0  0  0  0  0  0  0
    0.5675    0.7871   -0.1922 C   0  0  0  0  0  0  0  0  0  0  0  0
    0.8525    2.0860    0.1271 C   0  0  0  0  0  0  0  0  0  0  0  0
   -0.1444    2.9248   -0.2725 O   0  0  0  0  0  0  0  0  0  0  0  0
    1.9714    2.6970    0.7706 C   0  0  0  0  0  0  0  0  0  0  0  0
    2.1210    4.0383    0.9705 C   0  0  0  0  0  0  0  0  0  0  0  0
    3.3242    4.3760    1.6325 C   0  0  0  0  0  0  0  0  0  0  0  0
    3.7922    5.6624    1.9434 C   0  0  0  0  0  0  0  0  0  0  0  0
    2.9714    6.8447    1.6431 C   0  0  0  0  0  0  0  0  0  0  0  0
    1.6592    6.9199    2.1083 C   0  0  0  0  0  0  0  0  0  0  0  0
    0.8803    8.0177    1.7984 C   0  0  0  0  0  0  0  0  0  0  0  0
    1.3830    9.0439    1.0184 C   0  0  0  0  0  0  0  0  0  0  0  0
    2.6855    8.9702    0.5433 C   0  0  0  0  0  0  0  0  0  0  0  0
    3.4366   10.2214   -0.4533 S   0  0  0  0  0  0  0  0  0  0  0  0
    2.0244   11.0535   -1.2636 C   0  0  0  0  0  0  0  0  0  0  0  0
    1.2628   10.1271   -2.1916 C   0  0  0  0  0  0  0  0  0  0  0  0
    3.4804    7.8766    0.8688 C   0  0  0  0  0  0  0  0  0  0  0  0
    5.0401    5.7406    2.5377 C   0  0  0  0  0  0  0  0  0  0  0  0
    5.8148    4.5911    2.8470 C   0  0  0  0  0  0  0  0  0  0  0  0
    5.3505    3.3023    2.5216 C   0  0  0  0  0  0  0  0  0  0  0  0
    6.1784    2.1130    2.7600 C   0  0  0  0  0  0  0  0  0  0  0  0
    7.4902    2.0689    2.2875 C   0  0  0  0  0  0  0  0  0  0  0  0
    8.2616    0.9429    2.4990 C   0  0  0  0  0  0  0  0  0  0  0  0
    7.7483   -0.1506    3.1764 C   0  0  0  0  0  0  0  0  0  0  0  0
    6.4442   -0.1135    3.6508 C   0  0  0  0  0  0  0  0  0  0  0  0
    5.6484   -1.4423    4.5026 S   0  0  0  0  0  0  0  0  0  0  0  0
    6.9995   -2.5725    4.9868 C   0  0  0  0  0  0  0  0  0  0  0  0
    7.8793   -1.9883    6.0755 C   0  0  0  0  0  0  0  0  0  0  0  0
    5.6638    1.0182    3.4384 C   0  0  0  0  0  0  0  0  0  0  0  0
    4.1040    3.2274    1.9274 C   0  0  0  0  0  0  0  0  0  0  0  0
    3.3122    1.7645    1.3891 S   0  0  0  0  0  0  0  0  0  0  0  0
    7.0183    4.9291    3.4981 C   0  0  0  0  0  0  0  0  0  0  0  0
    7.2007    6.2788    3.6633 C   0  0  0  0  0  0  0  0  0  0  0  0
    5.8395    7.1988    3.0461 S   0  0  0  0  0  0  0  0  0  0  0  0
    8.2659    6.9599    4.3073 C   0  0  0  0  0  0  0  0  0  0  0  0
    9.5095    6.4993    4.6015 C   0  0  0  0  0  0  0  0  0  0  0  0
   10.3164    7.1830    5.6525 C   0  0  0  0  0  0  0  0  0  0  0  0
   10.1214    8.2845    6.1114 O   0  0  0  0  0  0  0  0  0  0  0  0
   11.3487    6.2046    6.0467 C   0  0  0  0  0  0  0  0  0  0  0  0
   12.2657    6.3193    7.0892 C   0  0  0  0  0  0  0  0  0  0  0  0
   13.0868    5.2272    7.2365 C   0  0  0  0  0  0  0  0  0  0  0  0
   12.9978    4.0931    6.4171 C   0  0  0  0  0  0  0  0  0  0  0  0
   12.1027    3.9669    5.3819 C   0  0  0  0  0  0  0  0  0  0  0  0
   11.2684    5.0736    5.2064 C   0  0  0  0  0  0  0  0  0  0  0  0
   10.2433    5.3180    4.1962 C   0  0  0  0  0  0  0  0  0  0  0  0
   10.1681    4.6964    2.9777 C   0  0  0  0  0  0  0  0  0  0  0  0
   10.9316    3.5723    2.6082 C   0  0  0  0  0  0  0  0  0  0  0  0
   11.4931    2.6319    2.2628 N   0  0  0  0  0  0  0  0  0  0  0  0
    9.3528    5.1569    1.9228 C   0  0  0  0  0  0  0  0  0  0  0  0
    8.7436    5.5137    1.0179 N   0  0  0  0  0  0  0  0  0  0  0  0
   14.1176    3.3860    7.1379 C   0  0  0  0  0  0  0  0  0  0  0  0
   15.5025    3.3414    6.4467 C   0  0  0  0  0  0  0  0  0  0  0  0
   15.5687    4.5477    5.5428 C   0  0  0  0  0  0  0  0  0  0  0  0
   15.6579    5.6247    6.3117 C   0  0  0  0  0  0  0  0  0  0  0  0
   15.6534    5.1664    7.7492 C   0  0  0  0  0  0  0  0  0  0  0  0
   16.3875    3.8234    7.6073 C   0  0  0  0  0  0  0  0  0  0  0  0
   14.2225    4.6523    8.0452 C   0  0  0  0  0  0  0  0  0  0  0  0
  -12.2432   -5.7010   -6.3789 H   0  0  0  0  0  0  0  0  0  0  0  0
   -9.7567   -9.4626   -2.0488 H   0  0  0  0  0  0  0  0  0  0  0  0
  -13.2105  -10.9993   -5.4206 H   0  0  0  0  0  0  0  0  0  0  0  0
  -11.9581  -13.6748   -3.6929 H   0  0  0  0  0  0  0  0  0  0  0  0
  -14.3775  -13.0999   -2.7395 H   0  0  0  0  0  0  0  0  0  0  0  0
  -13.4856  -15.2423   -1.5077 H   0  0  0  0  0  0  0  0  0  0  0  0
  -11.6735  -14.4761    0.2777 H   0  0  0  0  0  0  0  0  0  0  0  0
  -11.4502  -11.8616    0.1459 H   0  0  0  0  0  0  0  0  0  0  0  0
  -13.3221  -10.9361   -1.5450 H   0  0  0  0  0  0  0  0  0  0  0  0
  -14.0463  -12.0273   -0.3420 H   0  0  0  0  0  0  0  0  0  0  0  0
  -10.1810  -12.9231   -1.9428 H   0  0  0  0  0  0  0  0  0  0  0  0
   -8.7548   -5.8209   -5.1364 H   0  0  0  0  0  0  0  0  0  0  0  0
   -5.3131   -4.2752   -4.2120 H   0  0  0  0  0  0  0  0  0  0  0  0
   -6.4552   -5.3887   -4.9784 H   0  0  0  0  0  0  0  0  0  0  0  0
   -6.4670   -4.6428   -2.0078 H   0  0  0  0  0  0  0  0  0  0  0  0
   -5.8333   -6.1488   -2.6744 H   0  0  0  0  0  0  0  0  0  0  0  0
   -7.5626   -5.7925   -2.7858 H   0  0  0  0  0  0  0  0  0  0  0  0
  -11.0180   -1.3787   -5.1386 H   0  0  0  0  0  0  0  0  0  0  0  0
  -12.2596   -3.4243   -5.7251 H   0  0  0  0  0  0  0  0  0  0  0  0
   -9.0972    0.4430   -4.2825 H   0  0  0  0  0  0  0  0  0  0  0  0
   -7.0616    1.5267   -3.4198 H   0  0  0  0  0  0  0  0  0  0  0  0
   -4.9877   -2.2183   -3.3604 H   0  0  0  0  0  0  0  0  0  0  0  0
   -5.0425    2.4940   -2.6727 H   0  0  0  0  0  0  0  0  0  0  0  0
   -0.6680    4.7688   -1.6799 H   0  0  0  0  0  0  0  0  0  0  0  0
   -4.4893    8.3881   -0.1971 H   0  0  0  0  0  0  0  0  0  0  0  0
   -2.7738    8.7921   -0.4055 H   0  0  0  0  0  0  0  0  0  0  0  0
   -3.0662    8.7624   -2.8802 H   0  0  0  0  0  0  0  0  0  0  0  0
   -4.1661    9.9204   -2.1253 H   0  0  0  0  0  0  0  0  0  0  0  0
   -4.7746    8.3574   -2.6778 H   0  0  0  0  0  0  0  0  0  0  0  0
   -4.7333    3.7392   -0.7517 H   0  0  0  0  0  0  0  0  0  0  0  0
   -3.1562   -2.3390   -0.9673 H   0  0  0  0  0  0  0  0  0  0  0  0
    0.5953   -5.9671   -2.4820 H   0  0  0  0  0  0  0  0  0  0  0  0
   -1.0259   -6.4087   -1.9111 H   0  0  0  0  0  0  0  0  0  0  0  0
    1.3598   -5.7068   -0.1275 H   0  0  0  0  0  0  0  0  0  0  0  0
   -0.2545   -6.1333    0.4518 H   0  0  0  0  0  0  0  0  0  0  0  0
    0.7215   -7.3293   -0.4072 H   0  0  0  0  0  0  0  0  0  0  0  0
    0.8895   -1.2829   -1.9480 H   0  0  0  0  0  0  0  0  0  0  0  0
    1.1798   -0.0602    0.0373 H   0  0  0  0  0  0  0  0  0  0  0  0
    1.3979    4.7591    0.6358 H   0  0  0  0  0  0  0  0  0  0  0  0
    1.2634    6.1273    2.7258 H   0  0  0  0  0  0  0  0  0  0  0  0
   -0.1331    8.0793    2.1675 H   0  0  0  0  0  0  0  0  0  0  0  0
    0.7570    9.8929    0.7956 H   0  0  0  0  0  0  0  0  0  0  0  0
    2.4940   11.8644   -1.8207 H   0  0  0  0  0  0  0  0  0  0  0  0
    1.3860   11.4876   -0.4948 H   0  0  0  0  0  0  0  0  0  0  0  0
    1.9299    9.7263   -2.9512 H   0  0  0  0  0  0  0  0  0  0  0  0
    0.4631   10.6763   -2.6852 H   0  0  0  0  0  0  0  0  0  0  0  0
    0.8250    9.2940   -1.6460 H   0  0  0  0  0  0  0  0  0  0  0  0
    4.4895    7.8268    0.4887 H   0  0  0  0  0  0  0  0  0  0  0  0
    7.8841    2.9023    1.7259 H   0  0  0  0  0  0  0  0  0  0  0  0
    9.2760    0.9114    2.1292 H   0  0  0  0  0  0  0  0  0  0  0  0
    8.3697   -1.0210    3.3121 H   0  0  0  0  0  0  0  0  0  0  0  0
    6.4763   -3.4592    5.3449 H   0  0  0  0  0  0  0  0  0  0  0  0
    7.5636   -2.8403    4.0941 H   0  0  0  0  0  0  0  0  0  0  0  0
    8.3610   -1.0726    5.7388 H   0  0  0  0  0  0  0  0  0  0  0  0
    7.2832   -1.7579    6.9555 H   0  0  0  0  0  0  0  0  0  0  0  0
    8.6496   -2.7052    6.3534 H   0  0  0  0  0  0  0  0  0  0  0  0
    4.6550    1.0387    3.8222 H   0  0  0  0  0  0  0  0  0  0  0  0
    7.6959    4.1892    3.8857 H   0  0  0  0  0  0  0  0  0  0  0  0
    8.0397    7.9533    4.6815 H   0  0  0  0  0  0  0  0  0  0  0  0
   12.2982    7.2051    7.7038 H   0  0  0  0  0  0  0  0  0  0  0  0
   12.0349    3.0880    4.7615 H   0  0  0  0  0  0  0  0  0  0  0  0
   13.8580    2.4407    7.6107 H   0  0  0  0  0  0  0  0  0  0  0  0
   15.7491    2.3862    5.9910 H   0  0  0  0  0  0  0  0  0  0  0  0
   15.4884    4.4986    4.4728 H   0  0  0  0  0  0  0  0  0  0  0  0
   15.6673    6.6563    6.0122 H   0  0  0  0  0  0  0  0  0  0  0  0
   16.0387    5.8729    8.4797 H   0  0  0  0  0  0  0  0  0  0  0  0
   17.4309    3.9422    7.3198 H   0  0  0  0  0  0  0  0  0  0  0  0
   16.3194    3.1956    8.4949 H   0  0  0  0  0  0  0  0  0  0  0  0
   14.0370    4.5337    9.1110 H   0  0  0  0  0  0  0  0  0  0  0  0
  1  2  2  0  0  0  0
  2  3  1  0  0  0  0
  3  4  2  0  0  0  0
  3  5  1  0  0  0  0
  5  6  2  0  0  0  0
  6  7  1  0  0  0  0
  7  8  2  0  0  0  0
  8  9  1  0  0  0  0
  9 10  2  0  0  0  0
 10 11  1  0  0  0  0
 11 12  2  0  0  0  0
 12 13  1  0  0  0  0
 13 14  3  0  0  0  0
 12 15  1  0  0  0  0
 15 16  3  0  0  0  0
  8 17  1  0  0  0  0
 17 18  1  0  0  0  0
 18 19  1  0  0  0  0
 19 20  2  0  0  0  0
 20 21  1  0  0  0  0
 21 22  1  0  0  0  0
 21 23  1  0  0  0  0
  1 24  1  0  0  0  0
 24 25  2  0  0  0  0
 25 26  1  0  0  0  0
 26 27  1  0  0  0  0
 27 28  1  0  0  0  0
 28 29  1  0  0  0  0
 27 30  1  0  0  0  0
 30 31  2  0  0  0  0
 31 32  1  0  0  0  0
 32 33  1  0  0  0  0
 33 34  2  0  0  0  0
 31 35  1  0  0  0  0
 35 36  2  0  0  0  0
 36 37  1  0  0  0  0
 37 38  2  0  0  0  0
 37 39  1  0  0  0  0
 39 40  2  0  0  0  0
 40 41  1  0  0  0  0
 41 42  2  0  0  0  0
 42 43  1  0  0  0  0
 43 44  2  0  0  0  0
 44 45  1  0  0  0  0
 45 46  1  0  0  0  0
 45 47  2  0  0  0  0
 47 48  1  0  0  0  0
 48 49  1  0  0  0  0
 47 50  1  0  0  0  0
 50 51  1  0  0  0  0
 50 52  2  0  0  0  0
 42 53  1  0  0  0  0
 53 54  2  0  0  0  0
 54 55  1  0  0  0  0
 55 56  1  0  0  0  0
 56 57  2  0  0  0  0
 57 58  1  0  0  0  0
 58 59  2  0  0  0  0
 59 60  1  0  0  0  0
 60 61  1  0  0  0  0
 59 62  1  0  0  0  0
 62 63  2  0  0  0  0
 62 64  1  0  0  0  0
 58 65  1  0  0  0  0
 55 66  2  0  0  0  0
 66 67  1  0  0  0  0
 54 68  1  0  0  0  0
 68 69  2  0  0  0  0
 69 70  1  0  0  0  0
 69 71  1  0  0  0  0
 71 72  2  0  0  0  0
 72 73  1  0  0  0  0
 73 74  2  0  0  0  0
 74 75  1  0  0  0  0
 75 76  2  0  0  0  0
 76 77  1  0  0  0  0
 77 78  2  0  0  0  0
 78 79  1  0  0  0  0
 79 80  1  0  0  0  0
 80 81  1  0  0  0  0
 81 82  1  0  0  0  0
 79 83  2  0  0  0  0
 74 84  1  0  0  0  0
 84 85  2  0  0  0  0
 85 86  1  0  0  0  0
 86 87  1  0  0  0  0
 87 88  2  0  0  0  0
 88 89  1  0  0  0  0
 89 90  2  0  0  0  0
 90 91  1  0  0  0  0
 91 92  1  0  0  0  0
 92 93  1  0  0  0  0
 93 94  1  0  0  0  0
 91 95  2  0  0  0  0
 86 96  2  0  0  0  0
 96 97  1  0  0  0  0
 85 98  1  0  0  0  0
 98 99  2  0  0  0  0
 99100  1  0  0  0  0
 99101  1  0  0  0  0
101102  2  0  0  0  0
102103  1  0  0  0  0
103104  2  0  0  0  0
103105  1  0  0  0  0
105106  2  0  0  0  0
106107  1  0  0  0  0
107108  2  0  0  0  0
108109  1  0  0  0  0
109110  2  0  0  0  0
110111  1  0  0  0  0
111112  2  0  0  0  0
112113  1  0  0  0  0
113114  3  0  0  0  0
112115  1  0  0  0  0
115116  3  0  0  0  0
108117  1  0  0  0  0
117118  1  0  0  0  0
118119  1  0  0  0  0
119120  2  0  0  0  0
120121  1  0  0  0  0
121122  1  0  0  0  0
121123  1  0  0  0  0
 11  2  1  0  0  0  0
 23 17  1  0  0  0  0
 34 24  1  0  0  0  0
 67 39  1  0  0  0  0
 97 71  1  0  0  0  0
111102  1  0  0  0  0
123117  1  0  0  0  0
 10  5  1  0  0  0  0
 22 18  1  0  0  0  0
 32 26  2  0  0  0  0
 66 41  1  0  0  0  0
 96 73  1  0  0  0  0
110105  1  0  0  0  0
122118  1  0  0  0  0
 23  7  1  0  0  0  0
 38 30  1  0  0  0  0
 52 43  1  0  0  0  0
 70 53  1  0  0  0  0
 83 75  1  0  0  0  0
100 84  1  0  0  0  0
123107  1  0  0  0  0
 63 56  1  0  0  0  0
 95 87  1  0  0  0  0
  1124  1  0  0  0  0
  6125  1  0  0  0  0
  9126  1  0  0  0  0
 17127  1  0  0  0  0
 18128  1  0  0  0  0
 19129  1  0  0  0  0
 20130  1  0  0  0  0
 21131  1  0  0  0  0
 22132  1  0  0  0  0
 22133  1  0  0  0  0
 23134  1  0  0  0  0
 25135  1  0  0  0  0
 28136  1  0  0  0  0
 28137  1  0  0  0  0
 29138  1  0  0  0  0
 29139  1  0  0  0  0
 29140  1  0  0  0  0
 33141  1  0  0  0  0
 34142  1  0  0  0  0
 35143  1  0  0  0  0
 36144  1  0  0  0  0
 38145  1  0  0  0  0
 40146  1  0  0  0  0
 44147  1  0  0  0  0
 48148  1  0  0  0  0
 48149  1  0  0  0  0
 49150  1  0  0  0  0
 49151  1  0  0  0  0
 49152  1  0  0  0  0
 52153  1  0  0  0  0
 57154  1  0  0  0  0
 60155  1  0  0  0  0
 60156  1  0  0  0  0
 61157  1  0  0  0  0
 61158  1  0  0  0  0
 61159  1  0  0  0  0
 63160  1  0  0  0  0
 68161  1  0  0  0  0
 72162  1  0  0  0  0
 76163  1  0  0  0  0
 77164  1  0  0  0  0
 78165  1  0  0  0  0
 81166  1  0  0  0  0
 81167  1  0  0  0  0
 82168  1  0  0  0  0
 82169  1  0  0  0  0
 82170  1  0  0  0  0
 83171  1  0  0  0  0
 88172  1  0  0  0  0
 89173  1  0  0  0  0
 90174  1  0  0  0  0
 93175  1  0  0  0  0
 93176  1  0  0  0  0
 94177  1  0  0  0  0
 94178  1  0  0  0  0
 94179  1  0  0  0  0
 95180  1  0  0  0  0
 98181  1  0  0  0  0
101182  1  0  0  0  0
106183  1  0  0  0  0
109184  1  0  0  0  0
117185  1  0  0  0  0
118186  1  0  0  0  0
119187  1  0  0  0  0
120188  1  0  0  0  0
121189  1  0  0  0  0
122190  1  0  0  0  0
122191  1  0  0  0  0
123192  1  0  0  0  0
M  END
