181

C         -6.18870       -9.05880        1.23660
C         -7.19720       -8.53880        1.98590
C         -7.28430       -7.15820        2.53330
O         -6.69170       -6.15870        2.18610
C         -8.23190       -7.24220        3.66130
C         -8.55450       -6.21680        4.54870
C         -9.45300       -6.58150        5.52120
C         -9.98950       -7.87370        5.61180
C         -9.68960       -8.89050        4.73720
C         -8.77950       -8.53780        3.73470
C         -8.22440       -9.33260        2.64640
C         -8.65120      -10.57320        2.25640
C         -8.16870      -11.26590        1.12480
N         -7.84570      -11.87770        0.20830
C         -9.67080      -11.30280        2.90240
N        -10.48830      -11.94680        3.38710
C        -10.79680       -7.53790        6.84130
C        -10.23770       -8.03550        8.19140
C        -10.94500       -7.17520        9.21380
C        -10.44620       -5.94890        9.12390
C         -9.39290       -5.95980        8.03970
C         -8.84900       -7.38360        8.21470
C        -10.20590       -6.09550        6.73470
C         -5.10520       -8.35230        0.61110
C         -5.26190       -7.07580        0.06880
C         -4.13570       -6.41360       -0.38100
N         -4.01910       -5.13570       -0.86810
C         -5.10190       -4.20250       -1.03690
C         -5.70700       -4.29090       -2.43690
C         -2.69380       -4.88330       -1.10840
C         -1.92600       -6.03400       -0.79060
C         -2.85150       -7.01810       -0.33000
C         -2.72160       -8.32660        0.13140
C         -3.84080       -8.98210        0.58240
C         -0.53870       -5.98590       -0.89190
C          0.06260       -4.81550       -1.28890
C         -0.69750       -3.68120       -1.63140
C         -2.08670       -3.72010       -1.54640
C         -0.05390       -2.43500       -1.98930
C          1.16680       -2.19940       -2.59330
N          2.01130       -3.16130       -3.13510
C          3.39200       -2.95500       -3.02990
C          3.92610       -2.41620       -1.86140
C          5.27580       -2.14210       -1.76010
C          6.11840       -2.40880       -2.82920
S          7.85420       -2.07560       -2.81540
C          8.04070       -0.89860       -1.44320
C          5.59610       -2.98280       -3.98650
C          4.25000       -3.25080       -4.08990
C          1.49330       -4.26280       -3.82480
C          0.29580       -4.16980       -4.52730
C         -0.24630       -5.27470       -5.15350
C          0.40610       -6.49770       -5.09500
S         -0.19570       -7.98250       -5.83800
C         -1.86000       -7.53860       -6.41090
C          1.62060       -6.59030       -4.41860
C          2.15680       -5.49100       -3.78890
C          1.44890       -0.80760       -2.65020
S          2.80320        0.13790       -3.17400
C          1.97670        1.61170       -2.71940
C          0.74120        1.37820       -2.15700
N         -0.06860        2.36290       -1.59410
C          0.53310        3.36740       -0.82480
C          1.59620        3.05580        0.02410
C          2.27060        4.05110        0.69220
C          1.89980        5.38420        0.53520
S          2.90250        6.57590        1.37010
C          2.24640        8.16990        0.80970
C          0.80140        5.69430       -0.25420
C          0.12540        4.69420       -0.92630
C         -1.45110        2.27790       -1.75230
C         -1.99490        1.71110       -2.90740
C         -3.35750        1.57100       -3.04050
C         -4.21530        2.00550       -2.03300
S         -5.94270        1.74740       -2.30860
C         -6.73630        2.48790       -0.85410
C         -3.68310        2.59470       -0.89470
C         -2.31520        2.72450       -0.75540
C          0.44610       -0.00790       -2.13280
S         -0.88680       -0.94330       -1.56830
C          2.61800        2.91760       -2.79460
C          3.81080        3.13220       -2.11900
C          4.25290        4.43790       -1.97720
N          5.28140        4.92830       -1.21930
C          6.20640        4.13930       -0.44940
C          7.39040        3.67630       -1.29620
C          5.26250        6.29910       -1.29500
C          4.20660        6.70620       -2.15320
C          3.55180        5.51470       -2.58090
C          2.41440        5.26600       -3.34350
C          1.94600        3.97680       -3.42690
C          3.99180        8.06560       -2.37790
C          4.78870        8.97670       -1.73180
C          5.81360        8.57980       -0.83390
C          6.06300        7.21640       -0.64470
C          6.49170        9.64070       -0.15530
C          7.33490        9.74970        0.91820
C          7.96950        8.68750        1.69180
O          8.11350        7.53520        1.32850
N          8.44730        9.05530        2.94630
C          8.96340        7.97430        3.78030
C         10.46200        7.78690        3.58560
C          8.55090       10.33990        3.39620
S          9.14690       10.66920        4.90070
N          8.16860       11.34750        2.55910
C          8.37590       12.73250        2.96910
C          9.79420       13.19190        2.65990
C          7.59660       11.14670        1.31310
O          7.30320       12.09850        0.61700
H         -6.11930      -10.13990        1.18170
H         -8.11460       -5.23710        4.44550
H        -10.10920       -9.87950        4.81710
H        -11.87350       -7.66920        6.75320
H        -10.28930       -9.11100        8.33700
H        -11.74730       -7.52240        9.83800
H        -10.74880       -5.06710        9.65760
H         -8.67470       -5.14420        8.04660
H         -8.19130       -7.70930        7.41090
H         -8.34770       -7.51760        9.17190
H        -10.88910       -5.26450        6.56930
H         -6.24040       -6.63430       -0.00300
H         -4.72060       -3.19360       -0.85820
H         -5.86020       -4.41840       -0.28010
H         -6.51650       -3.57360       -2.54020
H         -6.09780       -5.28950       -2.61860
H         -4.95100       -4.07350       -3.18820
H         -1.75590       -8.80840        0.14130
H         -3.75700       -9.98760        0.96740
H          0.05790       -6.84710       -0.63290
H          1.13810       -4.75120       -1.30170
H         -2.66400       -2.84470       -1.80480
H          3.27520       -2.21040       -1.02360
H          5.65620       -1.72760       -0.84020
H          7.92680       -1.40570       -0.48930
H          9.04830       -0.50380       -1.52900
H          7.31650       -0.09720       -1.55360
H          6.25930       -3.19840       -4.81010
H          3.84940       -3.67380       -4.99870
H         -0.22040       -3.22330       -4.58540
H         -1.17610       -5.16320       -5.68740
H         -2.29510       -8.45970       -6.78600
H         -2.44710       -7.16440       -5.57730
H         -1.79890       -6.80860       -7.21300
H          2.12920       -7.54140       -4.38160
H          3.08880       -5.58000       -3.25060
H          1.89650        2.02530        0.14210
H          3.10120        3.81230        1.33910
H          1.23210        8.30580        1.17400
H          2.29420        8.22320       -0.27400
H          2.89780        8.92280        1.24290
H          0.47250        6.71400       -0.37290
H         -0.71290        4.94620       -1.55870
H         -1.34120        1.38250       -3.70160
H         -3.77580        1.12590       -3.93030
H         -7.80370        2.36540       -1.01020
H         -6.49130        3.54440       -0.79560
H         -6.43290        1.96040        0.04560
H         -4.31950        2.94520       -0.09810
H         -1.90930        3.16440        0.14340
H          4.32200        2.30170       -1.65620
H          5.66990        3.27550       -0.04600
H          6.56010        4.74430        0.38800
H          8.06520        3.07220       -0.69570
H          7.04540        3.08480       -2.14180
H          7.93780        4.53560       -1.67530
H          1.89060        6.07690       -3.82600
H          1.03830        3.76230       -3.97040
H          3.20680        8.39040       -3.04500
H          4.62070       10.03230       -1.88720
H          6.86430        6.90350       -0.00060
H          6.20680       10.62310       -0.52830
H          8.73890        8.21440        4.82060
H          8.43080        7.06800        3.48780
H         10.80870        6.96800        4.20900
H         10.67890        7.55390        2.54590
H         10.99720        8.69000        3.86920
H          7.65600       13.33410        2.41200
H          8.17260       12.80650        4.03860
H          9.90780       14.23320        2.94610
H          9.99570       13.09680        1.59550
H         10.51650       12.59800        3.21500
