195

C         -6.52780       -3.37970        8.69870
C         -7.73920       -3.15610        8.12600
C         -8.00810       -2.21320        7.00750
O         -7.20890       -1.62770        6.30530
C         -9.46960       -2.04280        6.97110
C        -10.18330       -1.20380        6.11600
C        -11.54350       -1.24540        6.30090
C        -12.15150       -2.05220        7.27360
C        -11.45980       -2.87620        8.12850
C        -10.07200       -2.85770        7.95050
C         -9.02510       -3.59090        8.65200
C         -9.22010       -4.57800        9.58020
C        -10.48420       -4.99870       10.04470
N        -11.47910       -5.38620       10.46620
C         -8.19260       -5.34010       10.17710
N         -7.41980       -6.01680       10.69030
C        -13.53930       -1.59560        6.89880
C        -14.38170       -2.57570        6.05480
C        -15.45420       -1.70000        5.44790
C        -14.87920       -0.93780        4.52640
C        -13.40830       -1.28540        4.49490
C        -13.48380       -2.78110        4.82780
C        -12.86170       -0.69830        5.81380
C         -5.24500       -3.02710        8.14870
C         -4.99430       -3.13020        6.78000
C         -3.75960       -2.72920        6.30690
N         -3.28750       -2.70790        5.01850
C         -4.06650       -3.05840        3.85900
C         -5.02910       -1.93890        3.47050
C         -2.03550       -2.15080        5.02370
C         -1.65800       -1.85420        6.35990
C         -2.76220       -2.22760        7.18430
C         -3.00540       -2.17980        8.55580
C         -4.22910       -2.59180        9.02530
C         -0.42160       -1.27440        6.62400
C          0.39710       -0.95620        5.56740
C          0.01180       -1.22170        4.24190
C         -1.19410       -1.84960        3.96350
C          0.87050       -0.75310        3.16400
C          1.34960        0.53380        3.03850
N          0.96040        1.57600        3.87660
C          1.89320        2.49650        4.34170
C          1.50780        3.79370        4.68740
C          2.44310        4.70150        5.12750
C          3.78770        4.34760        5.22540
S          4.89190        5.60370        5.79830
C          6.53430        4.84750        5.63680
C          4.17680        3.06070        4.88560
C          3.23680        2.14500        4.45380
C         -0.40630        1.64570        4.19470
C         -1.34780        1.42630        3.18940
C         -2.68780        1.35790        3.49190
C         -3.11920        1.50420        4.80710
S         -4.85030        1.31990        5.11010
C         -4.90380        0.72450        6.82330
C         -2.19260        1.79200        5.80040
C         -0.84680        1.86250        5.49670
C          2.15830        0.67150        1.88390
S          2.98730        1.99400        1.14130
C          3.48930        0.94990       -0.17600
C          2.98250       -0.33550       -0.07050
N          3.09010       -1.33490       -1.03120
C          3.01520       -1.02500       -2.39500
C          3.79080       -1.71560       -3.32800
C          3.81740       -1.32000       -4.64520
C          3.06160       -0.23190       -5.07630
S          3.26340        0.24230       -6.76550
C          2.29690        1.76640       -6.92130
C          2.22150        0.40410       -4.17240
C          2.19780        0.00800       -2.84890
C          3.43880       -2.62230       -0.60460
C          4.32800       -2.79520        0.45710
C          4.69800       -4.05960        0.85580
C          4.19400       -5.18300        0.20360
S          4.79380       -6.74660        0.76390
C          3.91200       -7.95340       -0.26570
C          3.29000       -5.01690       -0.83770
C          2.91380       -3.74800       -1.23280
C          2.25070       -0.48830        1.13210
S          1.34550       -1.78540        1.83450
C          4.26000        1.41940       -1.28620
C          5.25050        0.72420       -1.91160
C          5.60840        1.23980       -3.17910
C          6.52050        0.70400       -4.11600
C          7.40220       -0.40690       -3.84080
C          8.63350       -0.64700       -4.39730
C          9.23600       -1.84190       -3.97490
C          8.46660       -2.54120       -3.08780
S          8.90590       -4.03670       -2.30420
C          7.28190       -4.64330       -1.72190
C          6.41710       -5.14100       -2.86250
S          6.99140       -1.69720       -2.74060
C          6.50180        1.29370       -5.38090
C          5.70960        2.42580       -5.70320
C          4.93310        3.06580       -4.70520
C          4.23730        4.29380       -4.98940
C          4.65080        5.33340       -5.78360
C          3.74800        6.40400       -5.83300
C          2.62410        6.18860       -5.08260
S          1.26860        7.27630       -4.97090
C          0.41370        6.67130       -3.47130
C          1.17650        6.99620       -2.20270
S          2.67350        4.64210       -4.29490
C          4.85900        2.40390       -3.48700
S          3.80220        2.85290       -2.17520
C          5.69770        2.70190       -7.08080
C          6.46410        1.83820       -7.82680
S          7.29180        0.67380       -6.79820
C          6.70870        1.76240       -9.21250
C          6.02930        2.32010      -10.26290
C          4.69350        2.95660      -10.24960
O          4.00830        3.28370       -9.30080
C          4.30230        3.09010      -11.66670
C          3.11660        3.57810      -12.18340
C          2.95910        3.60930      -13.55940
C          3.99000        3.15000      -14.36620
F          3.81840        3.18130      -15.69730
C          5.18990        2.65820      -13.87030
C          5.34140        2.63240      -12.49380
C          6.45180        2.19860      -11.64800
C          7.69130        1.83210      -12.10020
C          8.80690        1.52910      -11.28930
N          9.77130        1.29630      -10.71100
C          8.04190        1.75430      -13.46530
N          8.38730        1.66270      -14.55590
H         -6.50260       -3.82030        9.68850
H         -9.67320       -0.59350        5.38710
H        -11.94050       -3.47980        8.88010
H        -14.11110       -1.11550        7.69050
H        -14.71570       -3.46250        6.58630
H        -16.47590       -1.68650        5.77890
H        -15.32450       -0.16020        3.93400
H        -12.85610       -0.99660        3.60460
H        -13.98110       -3.35200        4.04550
H        -12.52060       -3.23530        5.05320
H        -12.98110        0.38140        5.88070
H         -5.74340       -3.53680        6.12180
H         -3.37880       -3.27280        3.03770
H         -4.62340       -3.97380        4.08220
H         -5.71140       -1.72080        4.28850
H         -5.60760       -2.23070        2.59800
H         -4.47580       -1.03260        3.23920
H         -2.24400       -1.82350        9.23300
H         -4.44290       -2.55060       10.08300
H         -0.12140       -1.06500        7.63920
H          1.35490       -0.49130        5.74560
H         -1.47100       -2.04740        2.93920
H          0.47210        4.08440        4.59730
H          2.14530        5.70460        5.39200
H          6.62740        4.00470        6.31560
H          7.24100        5.62270        5.91570
H          6.70250        4.54710        4.60680
H          5.20650        2.74990        4.95890
H          3.55130        1.14100        4.20810
H         -1.01610        1.29070        2.17060
H         -3.41620        1.18510        2.71420
H         -4.94270        1.56020        7.51660
H         -5.80840        0.12810        6.89860
H         -4.03760        0.09860        7.01030
H         -2.51240        1.94910        6.81860
H         -0.12870        2.06700        6.27660
H          4.39550       -2.54780       -3.00550
H          4.44610       -1.83490       -5.35570
H          1.23510        1.53720       -6.92100
H          2.58980        2.20550       -7.87060
H          2.55460        2.44440       -6.11490
H          1.58510        1.21800       -4.48110
H          1.55040        0.52350       -2.15480
H          4.73930       -1.93010        0.95620
H          5.39460       -4.19430        1.66890
H          4.17560       -7.81890       -1.31080
H          2.84090       -7.86080       -0.11150
H          4.24970       -8.92720        0.07500
H          2.86510       -5.86620       -1.34850
H          2.20940       -3.62520       -2.04170
H          5.67990       -0.15410       -1.46950
H          9.11580        0.03350       -5.07500
H         10.19670       -2.18430       -4.31160
H          6.80180       -3.83310       -1.17230
H          7.52170       -5.44840       -1.02840
H          6.89680       -5.97610       -3.36760
H          6.24250       -4.35140       -3.59060
H          5.45450       -5.46570       -2.47300
H          5.60740        5.34850       -6.27390
H          3.91100        7.30840       -6.38920
H          0.26020        5.59890       -3.59120
H         -0.55080        7.17760       -3.49280
H          0.60900        6.65810       -1.33840
H          1.33560        8.06870       -2.11930
H          2.14340        6.49790       -2.19170
H          5.10660        3.47920       -7.52460
H          7.54810        1.12490       -9.46610
H          2.33930        3.92530      -11.52060
H          2.05550        3.98070      -14.01620
H          5.94700        2.31460      -14.55530
