
  xtb     02042208483D
 energy: -297.483129167050 gnorm: 0.000542336138 xtb: 6.4.1 (unknown)
180198  0     0  0            999 V2000
    6.2213   -2.2517    5.6119 C   0  0  0  0  0  0  0  0  0  0  0  0
    7.0627   -1.2494    5.2321 C   0  0  0  0  0  0  0  0  0  0  0  0
    7.9715   -0.6179    6.2238 C   0  0  0  0  0  0  0  0  0  0  0  0
    8.2430   -1.0350    7.3285 O   0  0  0  0  0  0  0  0  0  0  0  0
    8.4105    0.6448    5.5986 C   0  0  0  0  0  0  0  0  0  0  0  0
    9.1748    1.6532    6.1820 C   0  0  0  0  0  0  0  0  0  0  0  0
    9.4300    2.7164    5.3493 C   0  0  0  0  0  0  0  0  0  0  0  0
    8.9773    2.7695    4.0235 C   0  0  0  0  0  0  0  0  0  0  0  0
    8.2257    1.7826    3.4321 C   0  0  0  0  0  0  0  0  0  0  0  0
    7.9345    0.7035    4.2707 C   0  0  0  0  0  0  0  0  0  0  0  0
    7.1978   -0.5237    3.9858 C   0  0  0  0  0  0  0  0  0  0  0  0
    6.9219   -1.0128    2.7343 C   0  0  0  0  0  0  0  0  0  0  0  0
    6.5174   -2.3442    2.5036 C   0  0  0  0  0  0  0  0  0  0  0  0
    6.2535   -3.4383    2.2750 N   0  0  0  0  0  0  0  0  0  0  0  0
    7.0728   -0.2917    1.5346 C   0  0  0  0  0  0  0  0  0  0  0  0
    7.1367    0.2423    0.5199 N   0  0  0  0  0  0  0  0  0  0  0  0
    9.6157    4.1133    3.7750 C   0  0  0  0  0  0  0  0  0  0  0  0
    8.6968    5.3587    3.7515 C   0  0  0  0  0  0  0  0  0  0  0  0
    7.4977    5.0163    4.5991 C   0  0  0  0  0  0  0  0  0  0  0  0
    7.8988    4.9634    5.8623 C   0  0  0  0  0  0  0  0  0  0  0  0
    9.3752    5.2752    5.8920 C   0  0  0  0  0  0  0  0  0  0  0  0
    9.4650    6.2690    4.7228 C   0  0  0  0  0  0  0  0  0  0  0  0
   10.1023    4.0628    5.2578 C   0  0  0  0  0  0  0  0  0  0  0  0
    5.0221   -2.6525    4.9763 C   0  0  0  0  0  0  0  0  0  0  0  0
    4.3852   -3.8768    5.0370 C   0  0  0  0  0  0  0  0  0  0  0  0
    3.2240   -3.9519    4.2555 C   0  0  0  0  0  0  0  0  0  0  0  0
    2.4674   -5.0433    4.0102 O   0  0  0  0  0  0  0  0  0  0  0  0
    2.8481   -6.2454    4.6412 C   0  0  0  0  0  0  0  0  0  0  0  0
    2.9087   -2.7427    3.6406 C   0  0  0  0  0  0  0  0  0  0  0  0
    4.0993   -1.5372    4.0102 S   0  0  0  0  0  0  0  0  0  0  0  0
    1.8671   -2.3774    2.7498 C   0  0  0  0  0  0  0  0  0  0  0  0
    0.5526   -2.8092    2.6157 C   0  0  0  0  0  0  0  0  0  0  0  0
   -0.1080   -3.7460    3.3882 N   0  0  0  0  0  0  0  0  0  0  0  0
    0.0873   -3.8618    4.7620 C   0  0  0  0  0  0  0  0  0  0  0  0
    0.5531   -2.7890    5.5186 C   0  0  0  0  0  0  0  0  0  0  0  0
    0.8023   -2.9269    6.8710 C   0  0  0  0  0  0  0  0  0  0  0  0
    0.5716   -4.1405    7.5010 C   0  0  0  0  0  0  0  0  0  0  0  0
    0.8874   -4.4543    9.2114 S   0  0  0  0  0  0  0  0  0  0  0  0
    1.5761   -2.8921    9.8259 C   0  0  0  0  0  0  0  0  0  0  0  0
    0.0601   -5.2047    6.7591 C   0  0  0  0  0  0  0  0  0  0  0  0
   -0.1785   -5.0703    5.4113 C   0  0  0  0  0  0  0  0  0  0  0  0
   -1.0620   -4.5329    2.7169 C   0  0  0  0  0  0  0  0  0  0  0  0
   -0.7236   -5.1252    1.4998 C   0  0  0  0  0  0  0  0  0  0  0  0
   -1.6658   -5.8270    0.7835 C   0  0  0  0  0  0  0  0  0  0  0  0
   -2.9677   -5.9517    1.2658 C   0  0  0  0  0  0  0  0  0  0  0  0
   -4.1021   -6.8302    0.2378 S   0  0  0  0  0  0  0  0  0  0  0  0
   -5.7112   -6.5612    1.0334 C   0  0  0  0  0  0  0  0  0  0  0  0
   -3.2979   -5.3958    2.4949 C   0  0  0  0  0  0  0  0  0  0  0  0
   -2.3514   -4.6908    3.2134 C   0  0  0  0  0  0  0  0  0  0  0  0
   -0.0973   -2.0963    1.5758 C   0  0  0  0  0  0  0  0  0  0  0  0
   -1.6910   -2.1298    0.9088 S   0  0  0  0  0  0  0  0  0  0  0  0
   -1.3055   -0.7848   -0.1732 C   0  0  0  0  0  0  0  0  0  0  0  0
    0.0244   -0.3836   -0.0531 C   0  0  0  0  0  0  0  0  0  0  0  0
    0.7067    0.5707   -0.7881 N   0  0  0  0  0  0  0  0  0  0  0  0
    1.7359    1.2480   -0.1035 C   0  0  0  0  0  0  0  0  0  0  0  0
    3.0312    1.3064   -0.6151 C   0  0  0  0  0  0  0  0  0  0  0  0
    4.0526    1.8334    0.1469 C   0  0  0  0  0  0  0  0  0  0  0  0
    3.7923    2.3149    1.4259 C   0  0  0  0  0  0  0  0  0  0  0  0
    5.1553    2.8949    2.3938 S   0  0  0  0  0  0  0  0  0  0  0  0
    4.6606    2.3888    4.0711 C   0  0  0  0  0  0  0  0  0  0  0  0
    2.4911    2.3322    1.9090 C   0  0  0  0  0  0  0  0  0  0  0  0
    1.4707    1.7990    1.1484 C   0  0  0  0  0  0  0  0  0  0  0  0
    0.5325    0.7546   -2.1591 C   0  0  0  0  0  0  0  0  0  0  0  0
    0.0592   -0.2725   -2.9782 C   0  0  0  0  0  0  0  0  0  0  0  0
   -0.2239   -0.0291   -4.3040 C   0  0  0  0  0  0  0  0  0  0  0  0
   -0.0171    1.2348   -4.8485 C   0  0  0  0  0  0  0  0  0  0  0  0
   -0.5408    1.4857   -6.5188 S   0  0  0  0  0  0  0  0  0  0  0  0
    0.4493    2.9095   -7.0604 C   0  0  0  0  0  0  0  0  0  0  0  0
    0.5276    2.2382   -4.0585 C   0  0  0  0  0  0  0  0  0  0  0  0
    0.7962    2.0002   -2.7274 C   0  0  0  0  0  0  0  0  0  0  0  0
    0.6768   -1.1275    0.9623 C   0  0  0  0  0  0  0  0  0  0  0  0
    2.2668   -1.0780    1.6310 S   0  0  0  0  0  0  0  0  0  0  0  0
   -2.3414   -0.3335   -1.0276 C   0  0  0  0  0  0  0  0  0  0  0  0
   -3.4830   -1.0597   -1.3347 C   0  0  0  0  0  0  0  0  0  0  0  0
   -4.2684   -0.4724   -2.3154 C   0  0  0  0  0  0  0  0  0  0  0  0
   -5.4884   -1.0896   -2.8384 C   0  0  0  0  0  0  0  0  0  0  0  0
   -6.6727   -0.3455   -2.9763 C   0  0  0  0  0  0  0  0  0  0  0  0
   -6.6110    0.9483   -2.5709 O   0  0  0  0  0  0  0  0  0  0  0  0
   -7.6982    1.8118   -2.8469 C   0  0  0  0  0  0  0  0  0  0  0  0
   -7.2399    3.2275   -2.5325 C   0  0  0  0  0  0  0  0  0  0  0  0
   -7.8235   -0.9609   -3.4551 C   0  0  0  0  0  0  0  0  0  0  0  0
   -7.7953   -2.2999   -3.7928 C   0  0  0  0  0  0  0  0  0  0  0  0
   -6.6458   -3.0543   -3.6483 C   0  0  0  0  0  0  0  0  0  0  0  0
   -5.4873   -2.4571   -3.1662 C   0  0  0  0  0  0  0  0  0  0  0  0
   -4.3039   -3.1028   -3.0068 O   0  0  0  0  0  0  0  0  0  0  0  0
   -4.2370   -4.5033   -3.1917 C   0  0  0  0  0  0  0  0  0  0  0  0
   -2.8353   -4.9401   -2.7957 C   0  0  0  0  0  0  0  0  0  0  0  0
   -3.7344    0.7525   -2.7705 C   0  0  0  0  0  0  0  0  0  0  0  0
   -2.3203    1.1928   -1.8454 S   0  0  0  0  0  0  0  0  0  0  0  0
   -4.1519    1.3902   -3.9384 C   0  0  0  0  0  0  0  0  0  0  0  0
   -3.6674    2.5288   -4.5408 C   0  0  0  0  0  0  0  0  0  0  0  0
   -2.6346    3.4132   -4.0042 C   0  0  0  0  0  0  0  0  0  0  0  0
   -2.1109    3.3735   -2.9022 O   0  0  0  0  0  0  0  0  0  0  0  0
   -2.3399    4.3976   -5.0612 C   0  0  0  0  0  0  0  0  0  0  0  0
   -1.3848    5.4111   -5.0219 C   0  0  0  0  0  0  0  0  0  0  0  0
   -1.2980    6.1426   -6.1831 C   0  0  0  0  0  0  0  0  0  0  0  0
   -2.0987    5.8795   -7.3018 C   0  0  0  0  0  0  0  0  0  0  0  0
   -3.0512    4.8882   -7.3486 C   0  0  0  0  0  0  0  0  0  0  0  0
   -3.1633    4.1400   -6.1739 C   0  0  0  0  0  0  0  0  0  0  0  0
   -4.0565    3.0289   -5.8384 C   0  0  0  0  0  0  0  0  0  0  0  0
   -5.1113    2.6064   -6.6098 C   0  0  0  0  0  0  0  0  0  0  0  0
   -6.0607    1.6337   -6.2403 C   0  0  0  0  0  0  0  0  0  0  0  0
   -6.9099    0.8919   -6.0134 N   0  0  0  0  0  0  0  0  0  0  0  0
   -5.4441    3.1471   -7.8679 C   0  0  0  0  0  0  0  0  0  0  0  0
   -5.7764    3.5436   -8.8938 N   0  0  0  0  0  0  0  0  0  0  0  0
   -1.4708    6.9875   -8.1114 C   0  0  0  0  0  0  0  0  0  0  0  0
   -2.2931    8.2849   -8.2580 C   0  0  0  0  0  0  0  0  0  0  0  0
   -1.2674    9.3200   -8.6597 C   0  0  0  0  0  0  0  0  0  0  0  0
   -0.5101    9.5704   -7.5993 C   0  0  0  0  0  0  0  0  0  0  0  0
   -1.0112    8.7084   -6.4630 C   0  0  0  0  0  0  0  0  0  0  0  0
   -2.5093    8.6826   -6.7921 C   0  0  0  0  0  0  0  0  0  0  0  0
   -0.5786    7.2820   -6.8627 C   0  0  0  0  0  0  0  0  0  0  0  0
    6.4628   -2.7445    6.5484 H   0  0  0  0  0  0  0  0  0  0  0  0
    9.5224    1.5668    7.1997 H   0  0  0  0  0  0  0  0  0  0  0  0
    7.8709    1.8400    2.4170 H   0  0  0  0  0  0  0  0  0  0  0  0
   10.3720    4.1388    2.9933 H   0  0  0  0  0  0  0  0  0  0  0  0
    8.4851    5.7450    2.7587 H   0  0  0  0  0  0  0  0  0  0  0  0
    6.5286    4.7991    4.1909 H   0  0  0  0  0  0  0  0  0  0  0  0
    7.3287    4.6906    6.7316 H   0  0  0  0  0  0  0  0  0  0  0  0
    9.7790    5.5915    6.8504 H   0  0  0  0  0  0  0  0  0  0  0  0
   10.4867    6.4768    4.4079 H   0  0  0  0  0  0  0  0  0  0  0  0
    8.9447    7.2043    4.9240 H   0  0  0  0  0  0  0  0  0  0  0  0
   11.1740    4.0792    5.4467 H   0  0  0  0  0  0  0  0  0  0  0  0
    4.8042   -4.7034    5.5813 H   0  0  0  0  0  0  0  0  0  0  0  0
    2.7920   -6.1557    5.7304 H   0  0  0  0  0  0  0  0  0  0  0  0
    2.1328   -6.9929    4.3041 H   0  0  0  0  0  0  0  0  0  0  0  0
    3.8573   -6.5455    4.3445 H   0  0  0  0  0  0  0  0  0  0  0  0
    0.7181   -1.8301    5.0513 H   0  0  0  0  0  0  0  0  0  0  0  0
    1.1733   -2.0747    7.4174 H   0  0  0  0  0  0  0  0  0  0  0  0
    0.8383   -2.0996    9.7391 H   0  0  0  0  0  0  0  0  0  0  0  0
    2.4855   -2.6473    9.2848 H   0  0  0  0  0  0  0  0  0  0  0  0
    1.8059   -3.0673   10.8723 H   0  0  0  0  0  0  0  0  0  0  0  0
   -0.1332   -6.1434    7.2559 H   0  0  0  0  0  0  0  0  0  0  0  0
   -0.5505   -5.9092    4.8436 H   0  0  0  0  0  0  0  0  0  0  0  0
    0.2832   -5.0226    1.1237 H   0  0  0  0  0  0  0  0  0  0  0  0
   -1.4072   -6.2848   -0.1588 H   0  0  0  0  0  0  0  0  0  0  0  0
   -5.8988   -5.4960    1.1310 H   0  0  0  0  0  0  0  0  0  0  0  0
   -5.7424   -7.0593    1.9981 H   0  0  0  0  0  0  0  0  0  0  0  0
   -6.4447   -7.0070    0.3685 H   0  0  0  0  0  0  0  0  0  0  0  0
   -4.2921   -5.4912    2.9003 H   0  0  0  0  0  0  0  0  0  0  0  0
   -2.6178   -4.2438    4.1597 H   0  0  0  0  0  0  0  0  0  0  0  0
    3.2376    0.8966   -1.5923 H   0  0  0  0  0  0  0  0  0  0  0  0
    5.0661    1.8346   -0.2224 H   0  0  0  0  0  0  0  0  0  0  0  0
    5.5676    2.3921    4.6687 H   0  0  0  0  0  0  0  0  0  0  0  0
    3.9461    3.0929    4.4879 H   0  0  0  0  0  0  0  0  0  0  0  0
    4.2429    1.3871    4.0287 H   0  0  0  0  0  0  0  0  0  0  0  0
    2.2687    2.7474    2.8793 H   0  0  0  0  0  0  0  0  0  0  0  0
    0.4596    1.7871    1.5286 H   0  0  0  0  0  0  0  0  0  0  0  0
   -0.1103   -1.2562   -2.5671 H   0  0  0  0  0  0  0  0  0  0  0  0
   -0.6238   -0.8134   -4.9282 H   0  0  0  0  0  0  0  0  0  0  0  0
    0.3167    2.9678   -8.1362 H   0  0  0  0  0  0  0  0  0  0  0  0
    0.0867    3.8228   -6.5978 H   0  0  0  0  0  0  0  0  0  0  0  0
    1.4934    2.7323   -6.8214 H   0  0  0  0  0  0  0  0  0  0  0  0
    0.7116    3.2206   -4.4625 H   0  0  0  0  0  0  0  0  0  0  0  0
    1.1744    2.7985   -2.1081 H   0  0  0  0  0  0  0  0  0  0  0  0
   -3.7041   -2.0088   -0.8805 H   0  0  0  0  0  0  0  0  0  0  0  0
   -8.5617    1.5438   -2.2221 H   0  0  0  0  0  0  0  0  0  0  0  0
   -7.9817    1.7291   -3.9036 H   0  0  0  0  0  0  0  0  0  0  0  0
   -6.9368    3.2978   -1.4913 H   0  0  0  0  0  0  0  0  0  0  0  0
   -6.3879    3.4878   -3.1556 H   0  0  0  0  0  0  0  0  0  0  0  0
   -8.0476    3.9291   -2.7201 H   0  0  0  0  0  0  0  0  0  0  0  0
   -8.7379   -0.4044   -3.5702 H   0  0  0  0  0  0  0  0  0  0  0  0
   -8.6906   -2.7683   -4.1725 H   0  0  0  0  0  0  0  0  0  0  0  0
   -6.6568   -4.0974   -3.9191 H   0  0  0  0  0  0  0  0  0  0  0  0
   -4.9795   -5.0057   -2.5569 H   0  0  0  0  0  0  0  0  0  0  0  0
   -4.4364   -4.7610   -4.2407 H   0  0  0  0  0  0  0  0  0  0  0  0
   -2.6363   -4.6473   -1.7681 H   0  0  0  0  0  0  0  0  0  0  0  0
   -2.1013   -4.4649   -3.4406 H   0  0  0  0  0  0  0  0  0  0  0  0
   -2.7479   -6.0192   -2.8810 H   0  0  0  0  0  0  0  0  0  0  0  0
   -4.9282    0.8533   -4.4688 H   0  0  0  0  0  0  0  0  0  0  0  0
   -0.7831    5.5709   -4.1401 H   0  0  0  0  0  0  0  0  0  0  0  0
   -3.6537    4.6963   -8.2203 H   0  0  0  0  0  0  0  0  0  0  0  0
   -0.9857    6.6839   -9.0374 H   0  0  0  0  0  0  0  0  0  0  0  0
   -3.1735    8.1965   -8.8886 H   0  0  0  0  0  0  0  0  0  0  0  0
   -1.1661    9.7094   -9.6557 H   0  0  0  0  0  0  0  0  0  0  0  0
    0.3502   10.2105   -7.5326 H   0  0  0  0  0  0  0  0  0  0  0  0
   -0.7235    9.0075   -5.4584 H   0  0  0  0  0  0  0  0  0  0  0  0
   -2.9689    9.6649   -6.6955 H   0  0  0  0  0  0  0  0  0  0  0  0
   -3.0783    7.9563   -6.2147 H   0  0  0  0  0  0  0  0  0  0  0  0
    0.5012    7.1762   -6.9579 H   0  0  0  0  0  0  0  0  0  0  0  0
  1  2  2  0  0  0  0
  2  3  1  0  0  0  0
  3  4  2  0  0  0  0
  3  5  1  0  0  0  0
  5  6  2  0  0  0  0
  6  7  1  0  0  0  0
  7  8  2  0  0  0  0
  8  9  1  0  0  0  0
  9 10  2  0  0  0  0
 10 11  1  0  0  0  0
 11 12  2  0  0  0  0
 12 13  1  0  0  0  0
 13 14  3  0  0  0  0
 12 15  1  0  0  0  0
 15 16  3  0  0  0  0
  8 17  1  0  0  0  0
 17 18  1  0  0  0  0
 18 19  1  0  0  0  0
 19 20  2  0  0  0  0
 20 21  1  0  0  0  0
 21 22  1  0  0  0  0
 21 23  1  0  0  0  0
  1 24  1  0  0  0  0
 24 25  2  0  0  0  0
 25 26  1  0  0  0  0
 26 27  1  0  0  0  0
 27 28  1  0  0  0  0
 26 29  2  0  0  0  0
 29 30  1  0  0  0  0
 29 31  1  0  0  0  0
 31 32  2  0  0  0  0
 32 33  1  0  0  0  0
 33 34  1  0  0  0  0
 34 35  2  0  0  0  0
 35 36  1  0  0  0  0
 36 37  2  0  0  0  0
 37 38  1  0  0  0  0
 38 39  1  0  0  0  0
 37 40  1  0  0  0  0
 40 41  2  0  0  0  0
 33 42  1  0  0  0  0
 42 43  2  0  0  0  0
 43 44  1  0  0  0  0
 44 45  2  0  0  0  0
 45 46  1  0  0  0  0
 46 47  1  0  0  0  0
 45 48  1  0  0  0  0
 48 49  2  0  0  0  0
 32 50  1  0  0  0  0
 50 51  1  0  0  0  0
 51 52  1  0  0  0  0
 52 53  2  0  0  0  0
 53 54  1  0  0  0  0
 54 55  1  0  0  0  0
 55 56  2  0  0  0  0
 56 57  1  0  0  0  0
 57 58  2  0  0  0  0
 58 59  1  0  0  0  0
 59 60  1  0  0  0  0
 58 61  1  0  0  0  0
 61 62  2  0  0  0  0
 54 63  1  0  0  0  0
 63 64  2  0  0  0  0
 64 65  1  0  0  0  0
 65 66  2  0  0  0  0
 66 67  1  0  0  0  0
 67 68  1  0  0  0  0
 66 69  1  0  0  0  0
 69 70  2  0  0  0  0
 53 71  1  0  0  0  0
 71 72  1  0  0  0  0
 52 73  1  0  0  0  0
 73 74  2  0  0  0  0
 74 75  1  0  0  0  0
 75 76  1  0  0  0  0
 76 77  2  0  0  0  0
 77 78  1  0  0  0  0
 78 79  1  0  0  0  0
 79 80  1  0  0  0  0
 77 81  1  0  0  0  0
 81 82  2  0  0  0  0
 82 83  1  0  0  0  0
 83 84  2  0  0  0  0
 84 85  1  0  0  0  0
 85 86  1  0  0  0  0
 86 87  1  0  0  0  0
 75 88  2  0  0  0  0
 88 89  1  0  0  0  0
 88 90  1  0  0  0  0
 90 91  2  0  0  0  0
 91 92  1  0  0  0  0
 92 93  2  0  0  0  0
 92 94  1  0  0  0  0
 94 95  2  0  0  0  0
 95 96  1  0  0  0  0
 96 97  2  0  0  0  0
 97 98  1  0  0  0  0
 98 99  2  0  0  0  0
 99100  1  0  0  0  0
100101  2  0  0  0  0
101102  1  0  0  0  0
102103  3  0  0  0  0
101104  1  0  0  0  0
104105  3  0  0  0  0
 97106  1  0  0  0  0
106107  1  0  0  0  0
107108  1  0  0  0  0
108109  2  0  0  0  0
109110  1  0  0  0  0
110111  1  0  0  0  0
110112  1  0  0  0  0
 11  2  1  0  0  0  0
 23 17  1  0  0  0  0
 30 24  1  0  0  0  0
 72 31  1  0  0  0  0
 89 73  1  0  0  0  0
100 91  1  0  0  0  0
112106  1  0  0  0  0
 10  5  1  0  0  0  0
 22 18  1  0  0  0  0
 41 34  1  0  0  0  0
 49 42  1  0  0  0  0
 71 50  2  0  0  0  0
 84 76  1  0  0  0  0
 99 94  1  0  0  0  0
111107  1  0  0  0  0
 23  7  1  0  0  0  0
 62 55  1  0  0  0  0
 70 63  1  0  0  0  0
112 96  1  0  0  0  0
  1113  1  0  0  0  0
  6114  1  0  0  0  0
  9115  1  0  0  0  0
 17116  1  0  0  0  0
 18117  1  0  0  0  0
 19118  1  0  0  0  0
 20119  1  0  0  0  0
 21120  1  0  0  0  0
 22121  1  0  0  0  0
 22122  1  0  0  0  0
 23123  1  0  0  0  0
 25124  1  0  0  0  0
 28125  1  0  0  0  0
 28126  1  0  0  0  0
 28127  1  0  0  0  0
 35128  1  0  0  0  0
 36129  1  0  0  0  0
 39130  1  0  0  0  0
 39131  1  0  0  0  0
 39132  1  0  0  0  0
 40133  1  0  0  0  0
 41134  1  0  0  0  0
 43135  1  0  0  0  0
 44136  1  0  0  0  0
 47137  1  0  0  0  0
 47138  1  0  0  0  0
 47139  1  0  0  0  0
 48140  1  0  0  0  0
 49141  1  0  0  0  0
 56142  1  0  0  0  0
 57143  1  0  0  0  0
 60144  1  0  0  0  0
 60145  1  0  0  0  0
 60146  1  0  0  0  0
 61147  1  0  0  0  0
 62148  1  0  0  0  0
 64149  1  0  0  0  0
 65150  1  0  0  0  0
 68151  1  0  0  0  0
 68152  1  0  0  0  0
 68153  1  0  0  0  0
 69154  1  0  0  0  0
 70155  1  0  0  0  0
 74156  1  0  0  0  0
 79157  1  0  0  0  0
 79158  1  0  0  0  0
 80159  1  0  0  0  0
 80160  1  0  0  0  0
 80161  1  0  0  0  0
 81162  1  0  0  0  0
 82163  1  0  0  0  0
 83164  1  0  0  0  0
 86165  1  0  0  0  0
 86166  1  0  0  0  0
 87167  1  0  0  0  0
 87168  1  0  0  0  0
 87169  1  0  0  0  0
 90170  1  0  0  0  0
 95171  1  0  0  0  0
 98172  1  0  0  0  0
106173  1  0  0  0  0
107174  1  0  0  0  0
108175  1  0  0  0  0
109176  1  0  0  0  0
110177  1  0  0  0  0
111178  1  0  0  0  0
111179  1  0  0  0  0
112180  1  0  0  0  0
M  END
