
  xtb     02052201283D
 energy: -299.453303882643 gnorm: 0.000471929845 xtb: 6.4.1 (unknown)
184204  0     0  0            999 V2000
    8.9021   -0.4805   -4.1721 C   0  0  0  0  0  0  0  0  0  0  0  0
    9.6757    0.6028   -3.8764 C   0  0  0  0  0  0  0  0  0  0  0  0
    9.3125    1.9424   -3.3489 C   0  0  0  0  0  0  0  0  0  0  0  0
    8.2951    2.3014   -2.7895 O   0  0  0  0  0  0  0  0  0  0  0  0
   10.4689    2.8132   -3.6268 C   0  0  0  0  0  0  0  0  0  0  0  0
   10.5439    4.1865   -3.4027 C   0  0  0  0  0  0  0  0  0  0  0  0
   11.7398    4.7490   -3.7759 C   0  0  0  0  0  0  0  0  0  0  0  0
   12.7876    4.0007   -4.3309 C   0  0  0  0  0  0  0  0  0  0  0  0
   12.7313    2.6447   -4.5453 C   0  0  0  0  0  0  0  0  0  0  0  0
   11.5212    2.0524   -4.1705 C   0  0  0  0  0  0  0  0  0  0  0  0
   11.0918    0.6610   -4.2352 C   0  0  0  0  0  0  0  0  0  0  0  0
   11.9105   -0.4040   -4.4988 C   0  0  0  0  0  0  0  0  0  0  0  0
   13.2808   -0.2931   -4.8187 C   0  0  0  0  0  0  0  0  0  0  0  0
   14.3966   -0.2811   -5.0885 N   0  0  0  0  0  0  0  0  0  0  0  0
   11.5436   -1.7667   -4.4368 C   0  0  0  0  0  0  0  0  0  0  0  0
   11.3508   -2.8979   -4.3853 N   0  0  0  0  0  0  0  0  0  0  0  0
   13.6736    5.2104   -4.4893 C   0  0  0  0  0  0  0  0  0  0  0  0
   13.8136    5.8204   -5.9061 C   0  0  0  0  0  0  0  0  0  0  0  0
   12.5489    5.4723   -6.6511 C   0  0  0  0  0  0  0  0  0  0  0  0
   11.5597    6.1808   -6.1232 C   0  0  0  0  0  0  0  0  0  0  0  0
   12.1378    7.0207   -5.0112 C   0  0  0  0  0  0  0  0  0  0  0  0
   13.5383    7.2972   -5.5810 C   0  0  0  0  0  0  0  0  0  0  0  0
   12.5084    6.0434   -3.8680 C   0  0  0  0  0  0  0  0  0  0  0  0
    7.5165   -0.7927   -3.9859 C   0  0  0  0  0  0  0  0  0  0  0  0
    6.6403   -0.0424   -3.1947 C   0  0  0  0  0  0  0  0  0  0  0  0
    5.3219   -0.4430   -3.1103 C   0  0  0  0  0  0  0  0  0  0  0  0
    4.2943    0.1118   -2.3835 N   0  0  0  0  0  0  0  0  0  0  0  0
    4.3719    1.3277   -1.6167 C   0  0  0  0  0  0  0  0  0  0  0  0
    4.0453    2.5521   -2.4688 C   0  0  0  0  0  0  0  0  0  0  0  0
    3.1576   -0.6201   -2.6138 C   0  0  0  0  0  0  0  0  0  0  0  0
    3.4541   -1.6920   -3.4955 C   0  0  0  0  0  0  0  0  0  0  0  0
    4.8419   -1.5850   -3.8057 C   0  0  0  0  0  0  0  0  0  0  0  0
    5.7253   -2.3450   -4.5700 C   0  0  0  0  0  0  0  0  0  0  0  0
    7.0376   -1.9522   -4.6461 C   0  0  0  0  0  0  0  0  0  0  0  0
    2.4497   -2.5761   -3.8782 C   0  0  0  0  0  0  0  0  0  0  0  0
    1.1964   -2.4273   -3.3363 C   0  0  0  0  0  0  0  0  0  0  0  0
    0.9230   -1.4135   -2.4001 C   0  0  0  0  0  0  0  0  0  0  0  0
    1.8915   -0.4729   -2.0726 C   0  0  0  0  0  0  0  0  0  0  0  0
   -0.3541   -1.3914   -1.7094 C   0  0  0  0  0  0  0  0  0  0  0  0
   -1.0005   -2.4582   -1.1170 C   0  0  0  0  0  0  0  0  0  0  0  0
   -0.5645   -3.7779   -1.0917 N   0  0  0  0  0  0  0  0  0  0  0  0
   -1.5306   -4.7845   -1.2208 C   0  0  0  0  0  0  0  0  0  0  0  0
   -2.6341   -4.5974   -2.0559 C   0  0  0  0  0  0  0  0  0  0  0  0
   -3.6176   -5.5562   -2.1361 C   0  0  0  0  0  0  0  0  0  0  0  0
   -3.5199   -6.7318   -1.3958 C   0  0  0  0  0  0  0  0  0  0  0  0
   -4.8568   -7.8725   -1.5675 S   0  0  0  0  0  0  0  0  0  0  0  0
   -4.4246   -9.2295   -0.4431 C   0  0  0  0  0  0  0  0  0  0  0  0
   -2.4086   -6.9381   -0.5894 C   0  0  0  0  0  0  0  0  0  0  0  0
   -1.4263   -5.9706   -0.5008 C   0  0  0  0  0  0  0  0  0  0  0  0
    0.8007   -4.0765   -1.0470 C   0  0  0  0  0  0  0  0  0  0  0  0
    1.3218   -5.1451   -1.7783 C   0  0  0  0  0  0  0  0  0  0  0  0
    2.6826   -5.3357   -1.8533 C   0  0  0  0  0  0  0  0  0  0  0  0
    3.5582   -4.4672   -1.2053 C   0  0  0  0  0  0  0  0  0  0  0  0
    5.2823   -4.7352   -1.4764 S   0  0  0  0  0  0  0  0  0  0  0  0
    6.0700   -3.2710   -0.7516 C   0  0  0  0  0  0  0  0  0  0  0  0
    3.0422   -3.4564   -0.4067 C   0  0  0  0  0  0  0  0  0  0  0  0
    1.6769   -3.2711   -0.3235 C   0  0  0  0  0  0  0  0  0  0  0  0
   -2.1944   -2.0346   -0.4768 C   0  0  0  0  0  0  0  0  0  0  0  0
   -3.4373   -2.8554    0.4031 S   0  0  0  0  0  0  0  0  0  0  0  0
   -4.3116   -1.3453    0.5972 C   0  0  0  0  0  0  0  0  0  0  0  0
   -3.6596   -0.2727    0.0193 C   0  0  0  0  0  0  0  0  0  0  0  0
   -4.2075    0.9995   -0.0528 N   0  0  0  0  0  0  0  0  0  0  0  0
   -3.4010    2.1229    0.1060 C   0  0  0  0  0  0  0  0  0  0  0  0
   -3.7243    3.3244   -0.5277 C   0  0  0  0  0  0  0  0  0  0  0  0
   -2.9039    4.4210   -0.3941 C   0  0  0  0  0  0  0  0  0  0  0  0
   -1.7387    4.3472    0.3669 C   0  0  0  0  0  0  0  0  0  0  0  0
   -0.7575    5.8163    0.4475 S   0  0  0  0  0  0  0  0  0  0  0  0
    0.7301    5.2958    1.3502 C   0  0  0  0  0  0  0  0  0  0  0  0
   -1.4218    3.1615    1.0129 C   0  0  0  0  0  0  0  0  0  0  0  0
   -2.2495    2.0629    0.8875 C   0  0  0  0  0  0  0  0  0  0  0  0
   -5.5966    1.1037   -0.2608 C   0  0  0  0  0  0  0  0  0  0  0  0
   -6.2044    0.3223   -1.2427 C   0  0  0  0  0  0  0  0  0  0  0  0
   -7.5719    0.3295   -1.3885 C   0  0  0  0  0  0  0  0  0  0  0  0
   -8.3667    1.1166   -0.5562 C   0  0  0  0  0  0  0  0  0  0  0  0
  -10.1067    0.9772   -0.7901 S   0  0  0  0  0  0  0  0  0  0  0  0
  -10.8213    2.1673    0.3767 C   0  0  0  0  0  0  0  0  0  0  0  0
   -7.7612    1.9326    0.3909 C   0  0  0  0  0  0  0  0  0  0  0  0
   -6.3858    1.9314    0.5308 C   0  0  0  0  0  0  0  0  0  0  0  0
   -2.4440   -0.6776   -0.5850 C   0  0  0  0  0  0  0  0  0  0  0  0
   -1.1808    0.1331   -1.4394 S   0  0  0  0  0  0  0  0  0  0  0  0
   -5.5190   -1.2214    1.3697 C   0  0  0  0  0  0  0  0  0  0  0  0
   -6.8016   -1.7256    1.1529 C   0  0  0  0  0  0  0  0  0  0  0  0
   -7.2348   -2.5535    0.0559 C   0  0  0  0  0  0  0  0  0  0  0  0
   -6.5353   -3.1243   -0.9731 C   0  0  0  0  0  0  0  0  0  0  0  0
   -7.3492   -3.8243   -1.8816 C   0  0  0  0  0  0  0  0  0  0  0  0
   -8.6739   -3.7901   -1.5669 C   0  0  0  0  0  0  0  0  0  0  0  0
   -9.8097   -4.4475   -2.2704 C   0  0  0  0  0  0  0  0  0  0  0  0
  -10.2212   -5.7389   -1.5596 C   0  0  0  0  0  0  0  0  0  0  0  0
   -8.9386   -2.8894   -0.1166 S   0  0  0  0  0  0  0  0  0  0  0  0
   -7.7003   -1.2120    2.0965 C   0  0  0  0  0  0  0  0  0  0  0  0
   -7.1454   -0.3506    3.0296 C   0  0  0  0  0  0  0  0  0  0  0  0
   -5.4334   -0.1869    2.7558 S   0  0  0  0  0  0  0  0  0  0  0  0
   -7.9128    0.3316    3.9890 C   0  0  0  0  0  0  0  0  0  0  0  0
   -7.5147    1.1704    4.9938 C   0  0  0  0  0  0  0  0  0  0  0  0
   -6.1294    1.4126    5.4208 C   0  0  0  0  0  0  0  0  0  0  0  0
   -5.1070    1.0915    4.8423 O   0  0  0  0  0  0  0  0  0  0  0  0
   -6.2191    2.1117    6.7161 C   0  0  0  0  0  0  0  0  0  0  0  0
   -5.1642    2.4817    7.5474 C   0  0  0  0  0  0  0  0  0  0  0  0
   -5.5584    3.1028    8.7087 C   0  0  0  0  0  0  0  0  0  0  0  0
   -6.9037    3.3331    9.0262 C   0  0  0  0  0  0  0  0  0  0  0  0
   -7.9545    2.9766    8.2145 C   0  0  0  0  0  0  0  0  0  0  0  0
   -7.5743    2.3517    7.0234 C   0  0  0  0  0  0  0  0  0  0  0  0
   -8.3922    1.8576    5.9197 C   0  0  0  0  0  0  0  0  0  0  0  0
   -9.7291    2.1037    5.7387 C   0  0  0  0  0  0  0  0  0  0  0  0
  -10.4452    1.7715    4.5718 C   0  0  0  0  0  0  0  0  0  0  0  0
  -11.0725    1.5762    3.6289 N   0  0  0  0  0  0  0  0  0  0  0  0
  -10.5457    2.7938    6.6576 C   0  0  0  0  0  0  0  0  0  0  0  0
  -11.2653    3.3395    7.3665 N   0  0  0  0  0  0  0  0  0  0  0  0
   -6.5648    3.9908   10.3404 C   0  0  0  0  0  0  0  0  0  0  0  0
   -6.6525    5.5312   10.3816 C   0  0  0  0  0  0  0  0  0  0  0  0
   -5.8247    5.9081   11.5890 C   0  0  0  0  0  0  0  0  0  0  0  0
   -4.5504    5.6936   11.2875 C   0  0  0  0  0  0  0  0  0  0  0  0
   -4.4955    5.1682    9.8710 C   0  0  0  0  0  0  0  0  0  0  0  0
   -5.6813    5.9276    9.2620 C   0  0  0  0  0  0  0  0  0  0  0  0
   -5.0645    3.7377    9.9850 C   0  0  0  0  0  0  0  0  0  0  0  0
    9.4240   -1.2682   -4.7051 H   0  0  0  0  0  0  0  0  0  0  0  0
    9.7121    4.7241   -2.9746 H   0  0  0  0  0  0  0  0  0  0  0  0
   13.5447    2.0843   -4.9748 H   0  0  0  0  0  0  0  0  0  0  0  0
   14.6213    5.1804   -3.9555 H   0  0  0  0  0  0  0  0  0  0  0  0
   14.7474    5.5833   -6.4088 H   0  0  0  0  0  0  0  0  0  0  0  0
   12.4946    4.7277   -7.4237 H   0  0  0  0  0  0  0  0  0  0  0  0
   10.5138    6.1461   -6.3664 H   0  0  0  0  0  0  0  0  0  0  0  0
   11.5461    7.8774   -4.6991 H   0  0  0  0  0  0  0  0  0  0  0  0
   14.2289    7.7170   -4.8509 H   0  0  0  0  0  0  0  0  0  0  0  0
   13.5145    7.9266   -6.4693 H   0  0  0  0  0  0  0  0  0  0  0  0
   12.6947    6.5568   -2.9267 H   0  0  0  0  0  0  0  0  0  0  0  0
    6.9936    0.8292   -2.6738 H   0  0  0  0  0  0  0  0  0  0  0  0
    5.3831    1.4175   -1.2123 H   0  0  0  0  0  0  0  0  0  0  0  0
    3.6719    1.2516   -0.7798 H   0  0  0  0  0  0  0  0  0  0  0  0
    4.7616    2.6412   -3.2817 H   0  0  0  0  0  0  0  0  0  0  0  0
    4.0950    3.4525   -1.8629 H   0  0  0  0  0  0  0  0  0  0  0  0
    3.0460    2.4656   -2.8901 H   0  0  0  0  0  0  0  0  0  0  0  0
    5.3801   -3.2292   -5.0827 H   0  0  0  0  0  0  0  0  0  0  0  0
    7.7322   -2.5356   -5.2322 H   0  0  0  0  0  0  0  0  0  0  0  0
    2.6586   -3.3695   -4.5785 H   0  0  0  0  0  0  0  0  0  0  0  0
    0.4011   -3.0974   -3.6237 H   0  0  0  0  0  0  0  0  0  0  0  0
    1.6555    0.3191   -1.3777 H   0  0  0  0  0  0  0  0  0  0  0  0
   -2.7140   -3.6933   -2.6421 H   0  0  0  0  0  0  0  0  0  0  0  0
   -4.4737   -5.4092   -2.7761 H   0  0  0  0  0  0  0  0  0  0  0  0
   -3.5008   -9.7013   -0.7653 H   0  0  0  0  0  0  0  0  0  0  0  0
   -5.2433   -9.9390   -0.5130 H   0  0  0  0  0  0  0  0  0  0  0  0
   -4.3457   -8.8562    0.5739 H   0  0  0  0  0  0  0  0  0  0  0  0
   -2.2984   -7.8421   -0.0124 H   0  0  0  0  0  0  0  0  0  0  0  0
   -0.5719   -6.1295    0.1402 H   0  0  0  0  0  0  0  0  0  0  0  0
    0.6540   -5.7997   -2.3182 H   0  0  0  0  0  0  0  0  0  0  0  0
    3.0880   -6.1431   -2.4434 H   0  0  0  0  0  0  0  0  0  0  0  0
    5.6269   -2.3726   -1.1703 H   0  0  0  0  0  0  0  0  0  0  0  0
    5.9808   -3.2921    0.3310 H   0  0  0  0  0  0  0  0  0  0  0  0
    7.1161   -3.3309   -1.0361 H   0  0  0  0  0  0  0  0  0  0  0  0
    3.6921   -2.8005    0.1501 H   0  0  0  0  0  0  0  0  0  0  0  0
    1.2839   -2.4754    0.2918 H   0  0  0  0  0  0  0  0  0  0  0  0
   -4.6171    3.3850   -1.1316 H   0  0  0  0  0  0  0  0  0  0  0  0
   -3.1494    5.3485   -0.8884 H   0  0  0  0  0  0  0  0  0  0  0  0
    0.4748    5.0298    2.3720 H   0  0  0  0  0  0  0  0  0  0  0  0
    1.3894    6.1582    1.3493 H   0  0  0  0  0  0  0  0  0  0  0  0
    1.2039    4.4670    0.8321 H   0  0  0  0  0  0  0  0  0  0  0  0
   -0.5404    3.0782    1.6281 H   0  0  0  0  0  0  0  0  0  0  0  0
   -2.0082    1.1526    1.4155 H   0  0  0  0  0  0  0  0  0  0  0  0
   -5.5962   -0.3042   -1.8776 H   0  0  0  0  0  0  0  0  0  0  0  0
   -8.0448   -0.2827   -2.1410 H   0  0  0  0  0  0  0  0  0  0  0  0
  -10.6277    1.8621    1.4013 H   0  0  0  0  0  0  0  0  0  0  0  0
  -10.4332    3.1612    0.1738 H   0  0  0  0  0  0  0  0  0  0  0  0
  -11.8906    2.1461    0.1900 H   0  0  0  0  0  0  0  0  0  0  0  0
   -8.3513    2.5581    1.0418 H   0  0  0  0  0  0  0  0  0  0  0  0
   -5.9188    2.5543    1.2796 H   0  0  0  0  0  0  0  0  0  0  0  0
   -5.4710   -3.0569   -1.0866 H   0  0  0  0  0  0  0  0  0  0  0  0
   -6.9662   -4.3364   -2.7466 H   0  0  0  0  0  0  0  0  0  0  0  0
  -10.6639   -3.7674   -2.3049 H   0  0  0  0  0  0  0  0  0  0  0  0
   -9.5067   -4.6742   -3.2948 H   0  0  0  0  0  0  0  0  0  0  0  0
   -9.3849   -6.4336   -1.5263 H   0  0  0  0  0  0  0  0  0  0  0  0
  -11.0475   -6.2113   -2.0847 H   0  0  0  0  0  0  0  0  0  0  0  0
  -10.5334   -5.5232   -0.5403 H   0  0  0  0  0  0  0  0  0  0  0  0
   -8.7523   -1.4399    2.0839 H   0  0  0  0  0  0  0  0  0  0  0  0
   -8.9748    0.1301    3.9051 H   0  0  0  0  0  0  0  0  0  0  0  0
   -4.1419    2.2778    7.2698 H   0  0  0  0  0  0  0  0  0  0  0  0
   -8.9852    3.1513    8.4747 H   0  0  0  0  0  0  0  0  0  0  0  0
   -6.9771    3.5167   11.2290 H   0  0  0  0  0  0  0  0  0  0  0  0
   -7.6617    5.9307   10.3351 H   0  0  0  0  0  0  0  0  0  0  0  0
   -6.2413    6.2286   12.5258 H   0  0  0  0  0  0  0  0  0  0  0  0
   -3.6901    5.7990   11.9221 H   0  0  0  0  0  0  0  0  0  0  0  0
   -3.5391    5.2388    9.3597 H   0  0  0  0  0  0  0  0  0  0  0  0
   -5.9744    5.5756    8.2746 H   0  0  0  0  0  0  0  0  0  0  0  0
   -5.5085    7.0019    9.2288 H   0  0  0  0  0  0  0  0  0  0  0  0
   -4.4753    3.0962   10.6378 H   0  0  0  0  0  0  0  0  0  0  0  0
  1  2  2  0  0  0  0
  2  3  1  0  0  0  0
  3  4  2  0  0  0  0
  3  5  1  0  0  0  0
  5  6  2  0  0  0  0
  6  7  1  0  0  0  0
  7  8  2  0  0  0  0
  8  9  1  0  0  0  0
  9 10  2  0  0  0  0
 10 11  1  0  0  0  0
 11 12  2  0  0  0  0
 12 13  1  0  0  0  0
 13 14  3  0  0  0  0
 12 15  1  0  0  0  0
 15 16  3  0  0  0  0
  8 17  1  0  0  0  0
 17 18  1  0  0  0  0
 18 19  1  0  0  0  0
 19 20  2  0  0  0  0
 20 21  1  0  0  0  0
 21 22  1  0  0  0  0
 21 23  1  0  0  0  0
  1 24  1  0  0  0  0
 24 25  2  0  0  0  0
 25 26  1  0  0  0  0
 26 27  1  0  0  0  0
 27 28  1  0  0  0  0
 28 29  1  0  0  0  0
 27 30  1  0  0  0  0
 30 31  2  0  0  0  0
 31 32  1  0  0  0  0
 32 33  1  0  0  0  0
 33 34  2  0  0  0  0
 31 35  1  0  0  0  0
 35 36  2  0  0  0  0
 36 37  1  0  0  0  0
 37 38  2  0  0  0  0
 37 39  1  0  0  0  0
 39 40  2  0  0  0  0
 40 41  1  0  0  0  0
 41 42  1  0  0  0  0
 42 43  2  0  0  0  0
 43 44  1  0  0  0  0
 44 45  2  0  0  0  0
 45 46  1  0  0  0  0
 46 47  1  0  0  0  0
 45 48  1  0  0  0  0
 48 49  2  0  0  0  0
 41 50  1  0  0  0  0
 50 51  2  0  0  0  0
 51 52  1  0  0  0  0
 52 53  2  0  0  0  0
 53 54  1  0  0  0  0
 54 55  1  0  0  0  0
 53 56  1  0  0  0  0
 56 57  2  0  0  0  0
 40 58  1  0  0  0  0
 58 59  1  0  0  0  0
 59 60  1  0  0  0  0
 60 61  2  0  0  0  0
 61 62  1  0  0  0  0
 62 63  1  0  0  0  0
 63 64  2  0  0  0  0
 64 65  1  0  0  0  0
 65 66  2  0  0  0  0
 66 67  1  0  0  0  0
 67 68  1  0  0  0  0
 66 69  1  0  0  0  0
 69 70  2  0  0  0  0
 62 71  1  0  0  0  0
 71 72  2  0  0  0  0
 72 73  1  0  0  0  0
 73 74  2  0  0  0  0
 74 75  1  0  0  0  0
 75 76  1  0  0  0  0
 74 77  1  0  0  0  0
 77 78  2  0  0  0  0
 61 79  1  0  0  0  0
 79 80  1  0  0  0  0
 60 81  1  0  0  0  0
 81 82  2  0  0  0  0
 82 83  1  0  0  0  0
 83 84  2  0  0  0  0
 84 85  1  0  0  0  0
 85 86  2  0  0  0  0
 86 87  1  0  0  0  0
 87 88  1  0  0  0  0
 86 89  1  0  0  0  0
 82 90  1  0  0  0  0
 90 91  2  0  0  0  0
 91 92  1  0  0  0  0
 91 93  1  0  0  0  0
 93 94  2  0  0  0  0
 94 95  1  0  0  0  0
 95 96  2  0  0  0  0
 95 97  1  0  0  0  0
 97 98  2  0  0  0  0
 98 99  1  0  0  0  0
 99100  2  0  0  0  0
100101  1  0  0  0  0
101102  2  0  0  0  0
102103  1  0  0  0  0
103104  2  0  0  0  0
104105  1  0  0  0  0
105106  3  0  0  0  0
104107  1  0  0  0  0
107108  3  0  0  0  0
100109  1  0  0  0  0
109110  1  0  0  0  0
110111  1  0  0  0  0
111112  2  0  0  0  0
112113  1  0  0  0  0
113114  1  0  0  0  0
113115  1  0  0  0  0
 11  2  1  0  0  0  0
 23 17  1  0  0  0  0
 34 24  1  0  0  0  0
 80 39  1  0  0  0  0
 92 81  1  0  0  0  0
103 94  1  0  0  0  0
115109  1  0  0  0  0
 10  5  1  0  0  0  0
 22 18  1  0  0  0  0
 32 26  2  0  0  0  0
 49 42  1  0  0  0  0
 57 50  1  0  0  0  0
 79 58  2  0  0  0  0
 89 83  1  0  0  0  0
102 97  1  0  0  0  0
114110  1  0  0  0  0
 23  7  1  0  0  0  0
 38 30  1  0  0  0  0
 70 63  1  0  0  0  0
 78 71  1  0  0  0  0
115 99  1  0  0  0  0
  1116  1  0  0  0  0
  6117  1  0  0  0  0
  9118  1  0  0  0  0
 17119  1  0  0  0  0
 18120  1  0  0  0  0
 19121  1  0  0  0  0
 20122  1  0  0  0  0
 21123  1  0  0  0  0
 22124  1  0  0  0  0
 22125  1  0  0  0  0
 23126  1  0  0  0  0
 25127  1  0  0  0  0
 28128  1  0  0  0  0
 28129  1  0  0  0  0
 29130  1  0  0  0  0
 29131  1  0  0  0  0
 29132  1  0  0  0  0
 33133  1  0  0  0  0
 34134  1  0  0  0  0
 35135  1  0  0  0  0
 36136  1  0  0  0  0
 38137  1  0  0  0  0
 43138  1  0  0  0  0
 44139  1  0  0  0  0
 47140  1  0  0  0  0
 47141  1  0  0  0  0
 47142  1  0  0  0  0
 48143  1  0  0  0  0
 49144  1  0  0  0  0
 51145  1  0  0  0  0
 52146  1  0  0  0  0
 55147  1  0  0  0  0
 55148  1  0  0  0  0
 55149  1  0  0  0  0
 56150  1  0  0  0  0
 57151  1  0  0  0  0
 64152  1  0  0  0  0
 65153  1  0  0  0  0
 68154  1  0  0  0  0
 68155  1  0  0  0  0
 68156  1  0  0  0  0
 69157  1  0  0  0  0
 70158  1  0  0  0  0
 72159  1  0  0  0  0
 73160  1  0  0  0  0
 76161  1  0  0  0  0
 76162  1  0  0  0  0
 76163  1  0  0  0  0
 77164  1  0  0  0  0
 78165  1  0  0  0  0
 84166  1  0  0  0  0
 85167  1  0  0  0  0
 87168  1  0  0  0  0
 87169  1  0  0  0  0
 88170  1  0  0  0  0
 88171  1  0  0  0  0
 88172  1  0  0  0  0
 90173  1  0  0  0  0
 93174  1  0  0  0  0
 98175  1  0  0  0  0
101176  1  0  0  0  0
109177  1  0  0  0  0
110178  1  0  0  0  0
111179  1  0  0  0  0
112180  1  0  0  0  0
113181  1  0  0  0  0
114182  1  0  0  0  0
114183  1  0  0  0  0
115184  1  0  0  0  0
M  END
