
  xtb     02052208293D
 energy: -260.643864066430 gnorm: 0.000580022431 xtb: 6.4.1 (unknown)
155172  0     0  0            999 V2000
   -7.4913    3.8460   -4.3553 C   0  0  0  0  0  0  0  0  0  0  0  0
   -6.9842    3.9213   -5.6073 C   0  0  0  0  0  0  0  0  0  0  0  0
   -7.4690    4.9670   -6.5569 C   0  0  0  0  0  0  0  0  0  0  0  0
   -8.4680    5.6379   -6.4408 O   0  0  0  0  0  0  0  0  0  0  0  0
   -6.4380    5.0395   -7.6080 C   0  0  0  0  0  0  0  0  0  0  0  0
   -6.3472    5.9728   -8.6397 C   0  0  0  0  0  0  0  0  0  0  0  0
   -5.2484    5.8087   -9.4478 C   0  0  0  0  0  0  0  0  0  0  0  0
   -4.3014    4.7927   -9.2502 C   0  0  0  0  0  0  0  0  0  0  0  0
   -4.3808    3.8590   -8.2449 C   0  0  0  0  0  0  0  0  0  0  0  0
   -5.4942    4.0079   -7.4137 C   0  0  0  0  0  0  0  0  0  0  0  0
   -5.9096    3.2024   -6.2703 C   0  0  0  0  0  0  0  0  0  0  0  0
   -5.5496    1.9024   -6.0499 C   0  0  0  0  0  0  0  0  0  0  0  0
   -6.1414    1.0785   -5.0697 C   0  0  0  0  0  0  0  0  0  0  0  0
   -6.6219    0.3548   -4.3196 N   0  0  0  0  0  0  0  0  0  0  0  0
   -4.6357    1.1853   -6.8520 C   0  0  0  0  0  0  0  0  0  0  0  0
   -3.9244    0.5378   -7.4775 N   0  0  0  0  0  0  0  0  0  0  0  0
   -3.4579    5.2435  -10.4159 C   0  0  0  0  0  0  0  0  0  0  0  0
   -2.1629    6.0347  -10.1067 C   0  0  0  0  0  0  0  0  0  0  0  0
   -2.3846    6.7171   -8.7803 C   0  0  0  0  0  0  0  0  0  0  0  0
   -3.2806    7.6778   -8.9629 C   0  0  0  0  0  0  0  0  0  0  0  0
   -3.6799    7.6635  -10.4179 C   0  0  0  0  0  0  0  0  0  0  0  0
   -2.3528    7.2265  -11.0587 C   0  0  0  0  0  0  0  0  0  0  0  0
   -4.5114    6.3747  -10.6355 C   0  0  0  0  0  0  0  0  0  0  0  0
   -6.9070    3.2012   -3.2254 C   0  0  0  0  0  0  0  0  0  0  0  0
   -7.5477    2.6052   -2.1675 C   0  0  0  0  0  0  0  0  0  0  0  0
   -6.6568    2.0388   -1.2420 C   0  0  0  0  0  0  0  0  0  0  0  0
   -7.1857    1.2227    0.1724 Cl  0  0  0  0  0  0  0  0  0  0  0  0
   -5.3303    2.2508   -1.5362 C   0  0  0  0  0  0  0  0  0  0  0  0
   -5.1778    3.1359   -3.0127 S   0  0  0  0  0  0  0  0  0  0  0  0
   -4.1363    1.8013   -0.8454 C   0  0  0  0  0  0  0  0  0  0  0  0
   -3.0699    2.6739   -0.6297 C   0  0  0  0  0  0  0  0  0  0  0  0
   -1.8961    2.2218   -0.0718 C   0  0  0  0  0  0  0  0  0  0  0  0
   -1.7340    0.8663    0.2306 C   0  0  0  0  0  0  0  0  0  0  0  0
   -2.8302    0.0132    0.0846 C   0  0  0  0  0  0  0  0  0  0  0  0
   -4.0182    0.4725   -0.4375 C   0  0  0  0  0  0  0  0  0  0  0  0
   -0.4531    0.3353    0.6442 C   0  0  0  0  0  0  0  0  0  0  0  0
    0.8141    0.6839    0.2017 C   0  0  0  0  0  0  0  0  0  0  0  0
    1.1441    1.6633   -0.7216 N   0  0  0  0  0  0  0  0  0  0  0  0
    0.3310    1.9877   -1.8106 C   0  0  0  0  0  0  0  0  0  0  0  0
   -0.4274    1.0217   -2.4727 C   0  0  0  0  0  0  0  0  0  0  0  0
   -1.2697    1.3825   -3.5018 C   0  0  0  0  0  0  0  0  0  0  0  0
   -1.3671    2.7125   -3.9018 C   0  0  0  0  0  0  0  0  0  0  0  0
   -2.4762    3.0808   -5.2272 S   0  0  0  0  0  0  0  0  0  0  0  0
   -2.6950    4.8804   -5.1063 C   0  0  0  0  0  0  0  0  0  0  0  0
   -0.5867    3.6725   -3.2735 C   0  0  0  0  0  0  0  0  0  0  0  0
    0.2490    3.3125   -2.2374 C   0  0  0  0  0  0  0  0  0  0  0  0
    2.3471    2.3644   -0.5100 C   0  0  0  0  0  0  0  0  0  0  0  0
    3.1968    2.6565   -1.5763 C   0  0  0  0  0  0  0  0  0  0  0  0
    4.3942    3.2962   -1.3488 C   0  0  0  0  0  0  0  0  0  0  0  0
    4.7760    3.6489   -0.0547 C   0  0  0  0  0  0  0  0  0  0  0  0
    6.3463    4.4323    0.1233 S   0  0  0  0  0  0  0  0  0  0  0  0
    6.6374    4.3987    1.9151 C   0  0  0  0  0  0  0  0  0  0  0  0
    3.9217    3.3823    1.0061 C   0  0  0  0  0  0  0  0  0  0  0  0
    2.7154    2.7512    0.7753 C   0  0  0  0  0  0  0  0  0  0  0  0
    1.8027   -0.1190    0.8275 C   0  0  0  0  0  0  0  0  0  0  0  0
    3.5197   -0.2361    0.7174 S   0  0  0  0  0  0  0  0  0  0  0  0
    3.5498   -1.4746    1.9566 C   0  0  0  0  0  0  0  0  0  0  0  0
    2.2763   -1.7862    2.4167 C   0  0  0  0  0  0  0  0  0  0  0  0
    1.9536   -2.7537    3.3956 N   0  0  0  0  0  0  0  0  0  0  0  0
    1.4872   -2.3053    4.6353 C   0  0  0  0  0  0  0  0  0  0  0  0
    1.2349   -0.9544    4.8875 C   0  0  0  0  0  0  0  0  0  0  0  0
    0.8314   -0.5359    6.1377 C   0  0  0  0  0  0  0  0  0  0  0  0
    0.6745   -1.4465    7.1744 C   0  0  0  0  0  0  0  0  0  0  0  0
    0.1627   -0.8377    8.7499 S   0  0  0  0  0  0  0  0  0  0  0  0
    1.0672   -1.9401    9.8782 C   0  0  0  0  0  0  0  0  0  0  0  0
    0.9195   -2.7934    6.9332 C   0  0  0  0  0  0  0  0  0  0  0  0
    1.3318   -3.2129    5.6874 C   0  0  0  0  0  0  0  0  0  0  0  0
    1.6026   -4.0366    2.9206 C   0  0  0  0  0  0  0  0  0  0  0  0
    2.4627   -4.7222    2.0695 C   0  0  0  0  0  0  0  0  0  0  0  0
    2.1692   -6.0045    1.6446 C   0  0  0  0  0  0  0  0  0  0  0  0
    0.9978   -6.6235    2.0544 C   0  0  0  0  0  0  0  0  0  0  0  0
    0.5356   -8.2702    1.6210 S   0  0  0  0  0  0  0  0  0  0  0  0
    1.8136   -8.7874    0.4392 C   0  0  0  0  0  0  0  0  0  0  0  0
    0.1066   -5.9205    2.8637 C   0  0  0  0  0  0  0  0  0  0  0  0
    0.3981   -4.6425    3.2827 C   0  0  0  0  0  0  0  0  0  0  0  0
    1.2966   -1.0381    1.7364 C   0  0  0  0  0  0  0  0  0  0  0  0
   -0.4285   -0.9950    1.7913 S   0  0  0  0  0  0  0  0  0  0  0  0
    4.7679   -2.1757    2.1802 C   0  0  0  0  0  0  0  0  0  0  0  0
    5.1003   -2.9143    3.2673 C   0  0  0  0  0  0  0  0  0  0  0  0
    5.9532   -4.1292    3.1181 C   0  0  0  0  0  0  0  0  0  0  0  0
    6.7206   -4.3778    2.2181 O   0  0  0  0  0  0  0  0  0  0  0  0
    5.5548   -4.9913    4.2477 C   0  0  0  0  0  0  0  0  0  0  0  0
    5.8329   -6.3466    4.4107 C   0  0  0  0  0  0  0  0  0  0  0  0
    5.2315   -6.9117    5.5095 C   0  0  0  0  0  0  0  0  0  0  0  0
    4.4433   -6.1789    6.4081 C   0  0  0  0  0  0  0  0  0  0  0  0
    4.1921   -4.8337    6.2833 C   0  0  0  0  0  0  0  0  0  0  0  0
    4.7514   -4.2532    5.1436 C   0  0  0  0  0  0  0  0  0  0  0  0
    4.5810   -2.9083    4.6142 C   0  0  0  0  0  0  0  0  0  0  0  0
    4.2224   -1.7823    5.3101 C   0  0  0  0  0  0  0  0  0  0  0  0
    4.2062   -0.5099    4.7040 C   0  0  0  0  0  0  0  0  0  0  0  0
    4.2154    0.5336    4.2249 N   0  0  0  0  0  0  0  0  0  0  0  0
    3.9532   -1.7753    6.6895 C   0  0  0  0  0  0  0  0  0  0  0  0
    3.7556   -1.7338    7.8203 N   0  0  0  0  0  0  0  0  0  0  0  0
    4.1052   -7.3969    7.2289 C   0  0  0  0  0  0  0  0  0  0  0  0
    2.6982   -8.0156    7.0258 C   0  0  0  0  0  0  0  0  0  0  0  0
    2.2647   -7.6595    5.6247 C   0  0  0  0  0  0  0  0  0  0  0  0
    3.0159   -8.3541    4.7813 C   0  0  0  0  0  0  0  0  0  0  0  0
    3.9698   -9.1927    5.5957 C   0  0  0  0  0  0  0  0  0  0  0  0
    3.0899   -9.4876    6.8208 C   0  0  0  0  0  0  0  0  0  0  0  0
    4.9875   -8.2127    6.2322 C   0  0  0  0  0  0  0  0  0  0  0  0
   -8.4149    4.3883   -4.1785 H   0  0  0  0  0  0  0  0  0  0  0  0
   -7.0940    6.7419   -8.7595 H   0  0  0  0  0  0  0  0  0  0  0  0
   -3.6437    3.0894   -8.0838 H   0  0  0  0  0  0  0  0  0  0  0  0
   -3.3185    4.5143  -11.2110 H   0  0  0  0  0  0  0  0  0  0  0  0
   -1.2477    5.4570  -10.2020 H   0  0  0  0  0  0  0  0  0  0  0  0
   -1.9230    6.4034   -7.8627 H   0  0  0  0  0  0  0  0  0  0  0  0
   -3.7186    8.3277   -8.2279 H   0  0  0  0  0  0  0  0  0  0  0  0
   -4.1444    8.5701  -10.7966 H   0  0  0  0  0  0  0  0  0  0  0  0
   -1.5692    7.9759  -10.9572 H   0  0  0  0  0  0  0  0  0  0  0  0
   -2.4508    6.9359  -12.1036 H   0  0  0  0  0  0  0  0  0  0  0  0
   -5.0579    6.3875  -11.5763 H   0  0  0  0  0  0  0  0  0  0  0  0
   -8.6162    2.5291   -2.0859 H   0  0  0  0  0  0  0  0  0  0  0  0
   -3.1741    3.7149   -0.8985 H   0  0  0  0  0  0  0  0  0  0  0  0
   -1.0986    2.9174    0.1350 H   0  0  0  0  0  0  0  0  0  0  0  0
   -2.7275   -1.0288    0.3506 H   0  0  0  0  0  0  0  0  0  0  0  0
   -4.8431   -0.2065   -0.5842 H   0  0  0  0  0  0  0  0  0  0  0  0
   -0.3603   -0.0127   -2.1720 H   0  0  0  0  0  0  0  0  0  0  0  0
   -1.8613    0.6358   -4.0087 H   0  0  0  0  0  0  0  0  0  0  0  0
   -3.0050    5.1393   -4.0985 H   0  0  0  0  0  0  0  0  0  0  0  0
   -3.4790    5.1349   -5.8134 H   0  0  0  0  0  0  0  0  0  0  0  0
   -1.7770    5.3914   -5.3811 H   0  0  0  0  0  0  0  0  0  0  0  0
   -0.6261    4.7071   -3.5733 H   0  0  0  0  0  0  0  0  0  0  0  0
    0.8385    4.0695   -1.7414 H   0  0  0  0  0  0  0  0  0  0  0  0
    2.9151    2.3661   -2.5773 H   0  0  0  0  0  0  0  0  0  0  0  0
    5.0600    3.5148   -2.1694 H   0  0  0  0  0  0  0  0  0  0  0  0
    5.9685    5.0908    2.4185 H   0  0  0  0  0  0  0  0  0  0  0  0
    7.6657    4.7195    2.0506 H   0  0  0  0  0  0  0  0  0  0  0  0
    6.5115    3.3862    2.2869 H   0  0  0  0  0  0  0  0  0  0  0  0
    4.1772    3.6568    2.0159 H   0  0  0  0  0  0  0  0  0  0  0  0
    2.0557    2.5504    1.6070 H   0  0  0  0  0  0  0  0  0  0  0  0
    1.3688   -0.2165    4.1130 H   0  0  0  0  0  0  0  0  0  0  0  0
    0.6450    0.5106    6.3208 H   0  0  0  0  0  0  0  0  0  0  0  0
    0.5620   -2.8981    9.9629 H   0  0  0  0  0  0  0  0  0  0  0  0
    2.0808   -2.0537    9.5054 H   0  0  0  0  0  0  0  0  0  0  0  0
    1.0725   -1.4427   10.8427 H   0  0  0  0  0  0  0  0  0  0  0  0
    0.8011   -3.5219    7.7198 H   0  0  0  0  0  0  0  0  0  0  0  0
    1.5450   -4.2583    5.5211 H   0  0  0  0  0  0  0  0  0  0  0  0
    3.3778   -4.2598    1.7360 H   0  0  0  0  0  0  0  0  0  0  0  0
    2.8721   -6.5049    0.9984 H   0  0  0  0  0  0  0  0  0  0  0  0
    1.5184   -9.7776    0.1063 H   0  0  0  0  0  0  0  0  0  0  0  0
    2.7824   -8.8391    0.9280 H   0  0  0  0  0  0  0  0  0  0  0  0
    1.8341   -8.1049   -0.4052 H   0  0  0  0  0  0  0  0  0  0  0  0
   -0.8220   -6.3892    3.1518 H   0  0  0  0  0  0  0  0  0  0  0  0
   -0.3117   -4.1027    3.8913 H   0  0  0  0  0  0  0  0  0  0  0  0
    5.4311   -2.2507    1.3242 H   0  0  0  0  0  0  0  0  0  0  0  0
    6.4515   -6.8766    3.7035 H   0  0  0  0  0  0  0  0  0  0  0  0
    3.5890   -4.2707    6.9768 H   0  0  0  0  0  0  0  0  0  0  0  0
    4.4022   -7.3737    8.2753 H   0  0  0  0  0  0  0  0  0  0  0  0
    1.9892   -7.7925    7.8188 H   0  0  0  0  0  0  0  0  0  0  0  0
    1.5148   -6.9266    5.3894 H   0  0  0  0  0  0  0  0  0  0  0  0
    3.0191   -8.3071    3.7088 H   0  0  0  0  0  0  0  0  0  0  0  0
    4.4183  -10.0415    5.0862 H   0  0  0  0  0  0  0  0  0  0  0  0
    2.2366  -10.1206    6.5828 H   0  0  0  0  0  0  0  0  0  0  0  0
    3.6411   -9.9110    7.6594 H   0  0  0  0  0  0  0  0  0  0  0  0
    5.8657   -8.7205    6.6256 H   0  0  0  0  0  0  0  0  0  0  0  0
  1  2  2  0  0  0  0
  2  3  1  0  0  0  0
  3  4  2  0  0  0  0
  3  5  1  0  0  0  0
  5  6  2  0  0  0  0
  6  7  1  0  0  0  0
  7  8  2  0  0  0  0
  8  9  1  0  0  0  0
  9 10  2  0  0  0  0
 10 11  1  0  0  0  0
 11 12  2  0  0  0  0
 12 13  1  0  0  0  0
 13 14  3  0  0  0  0
 12 15  1  0  0  0  0
 15 16  3  0  0  0  0
  8 17  1  0  0  0  0
 17 18  1  0  0  0  0
 18 19  1  0  0  0  0
 19 20  2  0  0  0  0
 20 21  1  0  0  0  0
 21 22  1  0  0  0  0
 21 23  1  0  0  0  0
  1 24  1  0  0  0  0
 24 25  2  0  0  0  0
 25 26  1  0  0  0  0
 26 27  1  0  0  0  0
 26 28  2  0  0  0  0
 28 29  1  0  0  0  0
 28 30  1  0  0  0  0
 30 31  2  0  0  0  0
 31 32  1  0  0  0  0
 32 33  2  0  0  0  0
 33 34  1  0  0  0  0
 34 35  2  0  0  0  0
 33 36  1  0  0  0  0
 36 37  2  0  0  0  0
 37 38  1  0  0  0  0
 38 39  1  0  0  0  0
 39 40  2  0  0  0  0
 40 41  1  0  0  0  0
 41 42  2  0  0  0  0
 42 43  1  0  0  0  0
 43 44  1  0  0  0  0
 42 45  1  0  0  0  0
 45 46  2  0  0  0  0
 38 47  1  0  0  0  0
 47 48  2  0  0  0  0
 48 49  1  0  0  0  0
 49 50  2  0  0  0  0
 50 51  1  0  0  0  0
 51 52  1  0  0  0  0
 50 53  1  0  0  0  0
 53 54  2  0  0  0  0
 37 55  1  0  0  0  0
 55 56  1  0  0  0  0
 56 57  1  0  0  0  0
 57 58  2  0  0  0  0
 58 59  1  0  0  0  0
 59 60  1  0  0  0  0
 60 61  2  0  0  0  0
 61 62  1  0  0  0  0
 62 63  2  0  0  0  0
 63 64  1  0  0  0  0
 64 65  1  0  0  0  0
 63 66  1  0  0  0  0
 66 67  2  0  0  0  0
 59 68  1  0  0  0  0
 68 69  2  0  0  0  0
 69 70  1  0  0  0  0
 70 71  2  0  0  0  0
 71 72  1  0  0  0  0
 72 73  1  0  0  0  0
 71 74  1  0  0  0  0
 74 75  2  0  0  0  0
 58 76  1  0  0  0  0
 76 77  1  0  0  0  0
 57 78  1  0  0  0  0
 78 79  2  0  0  0  0
 79 80  1  0  0  0  0
 80 81  2  0  0  0  0
 80 82  1  0  0  0  0
 82 83  2  0  0  0  0
 83 84  1  0  0  0  0
 84 85  2  0  0  0  0
 85 86  1  0  0  0  0
 86 87  2  0  0  0  0
 87 88  1  0  0  0  0
 88 89  2  0  0  0  0
 89 90  1  0  0  0  0
 90 91  3  0  0  0  0
 89 92  1  0  0  0  0
 92 93  3  0  0  0  0
 85 94  1  0  0  0  0
 94 95  1  0  0  0  0
 95 96  1  0  0  0  0
 96 97  2  0  0  0  0
 97 98  1  0  0  0  0
 98 99  1  0  0  0  0
 98100  1  0  0  0  0
 11  2  1  0  0  0  0
 23 17  1  0  0  0  0
 29 24  1  0  0  0  0
 35 30  1  0  0  0  0
 77 36  1  0  0  0  0
 88 79  1  0  0  0  0
100 94  1  0  0  0  0
 10  5  1  0  0  0  0
 22 18  1  0  0  0  0
 46 39  1  0  0  0  0
 54 47  1  0  0  0  0
 76 55  2  0  0  0  0
 87 82  1  0  0  0  0
 99 95  1  0  0  0  0
 23  7  1  0  0  0  0
 67 60  1  0  0  0  0
 75 68  1  0  0  0  0
100 84  1  0  0  0  0
  1101  1  0  0  0  0
  6102  1  0  0  0  0
  9103  1  0  0  0  0
 17104  1  0  0  0  0
 18105  1  0  0  0  0
 19106  1  0  0  0  0
 20107  1  0  0  0  0
 21108  1  0  0  0  0
 22109  1  0  0  0  0
 22110  1  0  0  0  0
 23111  1  0  0  0  0
 25112  1  0  0  0  0
 31113  1  0  0  0  0
 32114  1  0  0  0  0
 34115  1  0  0  0  0
 35116  1  0  0  0  0
 40117  1  0  0  0  0
 41118  1  0  0  0  0
 44119  1  0  0  0  0
 44120  1  0  0  0  0
 44121  1  0  0  0  0
 45122  1  0  0  0  0
 46123  1  0  0  0  0
 48124  1  0  0  0  0
 49125  1  0  0  0  0
 52126  1  0  0  0  0
 52127  1  0  0  0  0
 52128  1  0  0  0  0
 53129  1  0  0  0  0
 54130  1  0  0  0  0
 61131  1  0  0  0  0
 62132  1  0  0  0  0
 65133  1  0  0  0  0
 65134  1  0  0  0  0
 65135  1  0  0  0  0
 66136  1  0  0  0  0
 67137  1  0  0  0  0
 69138  1  0  0  0  0
 70139  1  0  0  0  0
 73140  1  0  0  0  0
 73141  1  0  0  0  0
 73142  1  0  0  0  0
 74143  1  0  0  0  0
 75144  1  0  0  0  0
 78145  1  0  0  0  0
 83146  1  0  0  0  0
 86147  1  0  0  0  0
 94148  1  0  0  0  0
 95149  1  0  0  0  0
 96150  1  0  0  0  0
 97151  1  0  0  0  0
 98152  1  0  0  0  0
 99153  1  0  0  0  0
 99154  1  0  0  0  0
100155  1  0  0  0  0
M  END
