
  xtb     02142223213D
 energy: -279.196394142092 gnorm: 0.000242718339 xtb: 6.4.1 (unknown)
149162  0     0  0            999 V2000
    1.0641   -8.0825    3.8574 C   0  0  0  0  0  0  0  0  0  0  0  0
    0.9456   -7.4568    5.0561 C   0  0  0  0  0  0  0  0  0  0  0  0
    0.8379   -5.9880    5.2692 C   0  0  0  0  0  0  0  0  0  0  0  0
    0.4938   -5.1278    4.4863 O   0  0  0  0  0  0  0  0  0  0  0  0
    1.3042   -5.7600    6.6502 C   0  0  0  0  0  0  0  0  0  0  0  0
    1.5162   -4.5257    7.2615 C   0  0  0  0  0  0  0  0  0  0  0  0
    1.9799   -4.6119    8.5514 C   0  0  0  0  0  0  0  0  0  0  0  0
    2.2207   -5.8364    9.1906 C   0  0  0  0  0  0  0  0  0  0  0  0
    2.0154   -7.0607    8.6013 C   0  0  0  0  0  0  0  0  0  0  0  0
    1.5397   -6.9944    7.2881 C   0  0  0  0  0  0  0  0  0  0  0  0
    1.2311   -8.0642    6.3485 C   0  0  0  0  0  0  0  0  0  0  0  0
    1.1401   -9.3976    6.6389 C   0  0  0  0  0  0  0  0  0  0  0  0
    1.3778   -9.9510    7.9144 C   0  0  0  0  0  0  0  0  0  0  0  0
    1.5582  -10.4571    8.9289 N   0  0  0  0  0  0  0  0  0  0  0  0
    0.7420  -10.3856    5.7118 C   0  0  0  0  0  0  0  0  0  0  0  0
    0.4047  -11.2353    5.0177 N   0  0  0  0  0  0  0  0  0  0  0  0
    2.6829   -5.1717   10.4628 C   0  0  0  0  0  0  0  0  0  0  0  0
    1.6990   -5.1367   11.6581 C   0  0  0  0  0  0  0  0  0  0  0  0
    0.3101   -5.1906   11.0717 C   0  0  0  0  0  0  0  0  0  0  0  0
    0.0802   -4.0321   10.4682 C   0  0  0  0  0  0  0  0  0  0  0  0
    1.3098   -3.1739   10.6351 C   0  0  0  0  0  0  0  0  0  0  0  0
    1.7831   -3.6449   12.0194 C   0  0  0  0  0  0  0  0  0  0  0  0
    2.4126   -3.8082    9.7518 C   0  0  0  0  0  0  0  0  0  0  0  0
    0.8338   -7.4953    2.5631 C   0  0  0  0  0  0  0  0  0  0  0  0
   -0.2301   -6.6228    2.3379 C   0  0  0  0  0  0  0  0  0  0  0  0
   -0.3260   -6.0154    1.0996 C   0  0  0  0  0  0  0  0  0  0  0  0
   -1.2529   -5.1107    0.6458 N   0  0  0  0  0  0  0  0  0  0  0  0
   -2.2788   -4.5113    1.4582 C   0  0  0  0  0  0  0  0  0  0  0  0
   -1.7088   -3.3939    2.3306 C   0  0  0  0  0  0  0  0  0  0  0  0
   -0.8708   -4.6910   -0.6048 C   0  0  0  0  0  0  0  0  0  0  0  0
    0.2973   -5.3919   -1.0005 C   0  0  0  0  0  0  0  0  0  0  0  0
    0.6382   -6.2544    0.0854 C   0  0  0  0  0  0  0  0  0  0  0  0
    1.6568   -7.1799    0.3008 C   0  0  0  0  0  0  0  0  0  0  0  0
    1.7330   -7.8060    1.5211 C   0  0  0  0  0  0  0  0  0  0  0  0
    0.8925   -5.1016   -2.2238 C   0  0  0  0  0  0  0  0  0  0  0  0
    0.3412   -4.1221   -3.0164 C   0  0  0  0  0  0  0  0  0  0  0  0
   -0.8246   -3.4335   -2.6324 C   0  0  0  0  0  0  0  0  0  0  0  0
   -1.4469   -3.7357   -1.4254 C   0  0  0  0  0  0  0  0  0  0  0  0
   -1.3336   -2.3498   -3.4780 C   0  0  0  0  0  0  0  0  0  0  0  0
   -1.2620   -2.3885   -4.8572 C   0  0  0  0  0  0  0  0  0  0  0  0
   -0.8638   -3.5026   -5.4984 F   0  0  0  0  0  0  0  0  0  0  0  0
   -1.5754   -1.2823   -5.6639 C   0  0  0  0  0  0  0  0  0  0  0  0
   -1.3643   -1.3922   -6.9893 F   0  0  0  0  0  0  0  0  0  0  0  0
   -2.0299   -0.0973   -5.1362 C   0  0  0  0  0  0  0  0  0  0  0  0
   -2.2737   -0.0731   -3.7378 C   0  0  0  0  0  0  0  0  0  0  0  0
   -2.9457    0.9607   -3.2074 N   0  0  0  0  0  0  0  0  0  0  0  0
   -3.1326    1.0226   -1.9143 C   0  0  0  0  0  0  0  0  0  0  0  0
   -3.9798    2.1590   -1.4256 C   0  0  0  0  0  0  0  0  0  0  0  0
   -3.1200    3.3544   -1.0144 C   0  0  0  0  0  0  0  0  0  0  0  0
   -2.5520    0.0372   -1.0657 C   0  0  0  0  0  0  0  0  0  0  0  0
   -1.9825   -1.0228   -1.5806 N   0  0  0  0  0  0  0  0  0  0  0  0
   -1.8743   -1.1569   -2.9131 C   0  0  0  0  0  0  0  0  0  0  0  0
   -2.5532    0.1027    0.4341 C   0  0  0  0  0  0  0  0  0  0  0  0
   -1.1514    0.4269    0.9532 C   0  0  0  0  0  0  0  0  0  0  0  0
   -2.1439    1.1246   -5.9312 C   0  0  0  0  0  0  0  0  0  0  0  0
   -1.4960    2.2866   -5.4318 C   0  0  0  0  0  0  0  0  0  0  0  0
   -0.8670    2.2409   -4.2518 N   0  0  0  0  0  0  0  0  0  0  0  0
   -0.2493    3.3011   -3.7998 C   0  0  0  0  0  0  0  0  0  0  0  0
    0.3556    3.1478   -2.4670 C   0  0  0  0  0  0  0  0  0  0  0  0
    1.0041    1.9590   -2.1348 C   0  0  0  0  0  0  0  0  0  0  0  0
    1.5829    1.7521   -0.8887 C   0  0  0  0  0  0  0  0  0  0  0  0
    1.5324    2.7268    0.1144 C   0  0  0  0  0  0  0  0  0  0  0  0
    2.0257    2.6668    1.3525 O   0  0  0  0  0  0  0  0  0  0  0  0
    2.6912    1.4989    1.8309 C   0  0  0  0  0  0  0  0  0  0  0  0
    3.0894    1.7782    3.2695 C   0  0  0  0  0  0  0  0  0  0  0  0
    0.8610    3.9160   -0.2232 C   0  0  0  0  0  0  0  0  0  0  0  0
    0.2897    4.1161   -1.4652 C   0  0  0  0  0  0  0  0  0  0  0  0
   -0.3746    5.2646   -1.6775 F   0  0  0  0  0  0  0  0  0  0  0  0
    0.7661    4.8771    0.7075 F   0  0  0  0  0  0  0  0  0  0  0  0
    2.1891    0.5670   -0.6774 F   0  0  0  0  0  0  0  0  0  0  0  0
    1.1155    0.9809   -3.0337 F   0  0  0  0  0  0  0  0  0  0  0  0
   -0.1863    4.4892   -4.5910 C   0  0  0  0  0  0  0  0  0  0  0  0
    0.5739    5.6810   -4.1851 C   0  0  0  0  0  0  0  0  0  0  0  0
    0.0044    6.9535   -4.2902 C   0  0  0  0  0  0  0  0  0  0  0  0
   -1.2329    7.0872   -4.7681 F   0  0  0  0  0  0  0  0  0  0  0  0
    0.6829    8.0807   -3.8676 C   0  0  0  0  0  0  0  0  0  0  0  0
    0.0992    9.2811   -3.9644 F   0  0  0  0  0  0  0  0  0  0  0  0
    1.9811    8.0214   -3.3252 C   0  0  0  0  0  0  0  0  0  0  0  0
    2.5097    9.1862   -2.9502 O   0  0  0  0  0  0  0  0  0  0  0  0
    3.7974    9.2568   -2.3415 C   0  0  0  0  0  0  0  0  0  0  0  0
    4.0442   10.7163   -2.0020 C   0  0  0  0  0  0  0  0  0  0  0  0
    2.5548    6.7475   -3.2516 C   0  0  0  0  0  0  0  0  0  0  0  0
    3.8017    6.5625   -2.7681 F   0  0  0  0  0  0  0  0  0  0  0  0
    1.8643    5.6190   -3.6736 C   0  0  0  0  0  0  0  0  0  0  0  0
    2.4986    4.4360   -3.5945 F   0  0  0  0  0  0  0  0  0  0  0  0
   -0.8101    4.5546   -5.7410 N   0  0  0  0  0  0  0  0  0  0  0  0
   -1.4932    3.4888   -6.1864 C   0  0  0  0  0  0  0  0  0  0  0  0
   -2.1494    3.5364   -7.4471 C   0  0  0  0  0  0  0  0  0  0  0  0
   -2.7954    2.3956   -7.8841 C   0  0  0  0  0  0  0  0  0  0  0  0
   -2.7846    1.2075   -7.1465 C   0  0  0  0  0  0  0  0  0  0  0  0
   -2.1078    4.7709   -8.2029 C   0  0  0  0  0  0  0  0  0  0  0  0
   -2.0476    4.8410   -9.5451 C   0  0  0  0  0  0  0  0  0  0  0  0
   -2.0477    6.0773  -10.2225 C   0  0  0  0  0  0  0  0  0  0  0  0
   -2.0367    7.0756  -10.7863 N   0  0  0  0  0  0  0  0  0  0  0  0
   -1.9197    3.6348  -10.4365 C   0  0  0  0  0  0  0  0  0  0  0  0
   -2.6941    3.3395  -11.3064 O   0  0  0  0  0  0  0  0  0  0  0  0
   -0.8113    2.9695  -10.1233 O   0  0  0  0  0  0  0  0  0  0  0  0
   -0.5208    1.7604  -10.8336 C   0  0  0  0  0  0  0  0  0  0  0  0
   -0.0689    0.6987   -9.8460 C   0  0  0  0  0  0  0  0  0  0  0  0
    1.4619   -9.0913    3.8485 H   0  0  0  0  0  0  0  0  0  0  0  0
    1.3256   -3.6054    6.7316 H   0  0  0  0  0  0  0  0  0  0  0  0
    2.2161   -7.9955    9.0979 H   0  0  0  0  0  0  0  0  0  0  0  0
    3.7027   -5.3925   10.7714 H   0  0  0  0  0  0  0  0  0  0  0  0
    1.9169   -5.8559   12.4428 H   0  0  0  0  0  0  0  0  0  0  0  0
   -0.3204   -6.0596   11.1061 H   0  0  0  0  0  0  0  0  0  0  0  0
   -0.7814   -3.7393    9.8971 H   0  0  0  0  0  0  0  0  0  0  0  0
    1.1737   -2.1054   10.4893 H   0  0  0  0  0  0  0  0  0  0  0  0
    1.0965   -3.3654   12.8169 H   0  0  0  0  0  0  0  0  0  0  0  0
    2.7907   -3.3150   12.2689 H   0  0  0  0  0  0  0  0  0  0  0  0
    3.2564   -3.1383    9.5968 H   0  0  0  0  0  0  0  0  0  0  0  0
   -0.9605   -6.4514    3.1104 H   0  0  0  0  0  0  0  0  0  0  0  0
   -2.7251   -5.2888    2.0845 H   0  0  0  0  0  0  0  0  0  0  0  0
   -3.0555   -4.1209    0.7960 H   0  0  0  0  0  0  0  0  0  0  0  0
   -2.4998   -2.9374    2.9204 H   0  0  0  0  0  0  0  0  0  0  0  0
   -1.2492   -2.6340    1.7032 H   0  0  0  0  0  0  0  0  0  0  0  0
   -0.9536   -3.7923    3.0040 H   0  0  0  0  0  0  0  0  0  0  0  0
    2.3735   -7.3943   -0.4770 H   0  0  0  0  0  0  0  0  0  0  0  0
    2.5244   -8.5145    1.7165 H   0  0  0  0  0  0  0  0  0  0  0  0
    1.7869   -5.6198   -2.5335 H   0  0  0  0  0  0  0  0  0  0  0  0
    0.8336   -3.8581   -3.9380 H   0  0  0  0  0  0  0  0  0  0  0  0
   -2.3466   -3.2181   -1.1406 H   0  0  0  0  0  0  0  0  0  0  0  0
   -4.5996    1.8373   -0.5871 H   0  0  0  0  0  0  0  0  0  0  0  0
   -4.6318    2.4613   -2.2462 H   0  0  0  0  0  0  0  0  0  0  0  0
   -2.4298    3.0874   -0.2171 H   0  0  0  0  0  0  0  0  0  0  0  0
   -3.7509    4.1682   -0.6664 H   0  0  0  0  0  0  0  0  0  0  0  0
   -2.5482    3.7050   -1.8691 H   0  0  0  0  0  0  0  0  0  0  0  0
   -3.2617    0.8465    0.7949 H   0  0  0  0  0  0  0  0  0  0  0  0
   -2.8475   -0.8768    0.8150 H   0  0  0  0  0  0  0  0  0  0  0  0
   -0.8606    1.4343    0.6597 H   0  0  0  0  0  0  0  0  0  0  0  0
   -1.1270    0.3607    2.0385 H   0  0  0  0  0  0  0  0  0  0  0  0
   -0.4344   -0.2782    0.5384 H   0  0  0  0  0  0  0  0  0  0  0  0
    3.5768    1.2957    1.2195 H   0  0  0  0  0  0  0  0  0  0  0  0
    2.0160    0.6380    1.7795 H   0  0  0  0  0  0  0  0  0  0  0  0
    2.2070    1.9913    3.8663 H   0  0  0  0  0  0  0  0  0  0  0  0
    3.7526    2.6373    3.3134 H   0  0  0  0  0  0  0  0  0  0  0  0
    3.5985    0.9118    3.6805 H   0  0  0  0  0  0  0  0  0  0  0  0
    3.8156    8.6430   -1.4342 H   0  0  0  0  0  0  0  0  0  0  0  0
    4.5608    8.8895   -3.0362 H   0  0  0  0  0  0  0  0  0  0  0  0
    5.0175   10.8224   -1.5327 H   0  0  0  0  0  0  0  0  0  0  0  0
    4.0145   11.3190   -2.9051 H   0  0  0  0  0  0  0  0  0  0  0  0
    3.2774   11.0750   -1.3214 H   0  0  0  0  0  0  0  0  0  0  0  0
   -3.3444    2.4200   -8.8139 H   0  0  0  0  0  0  0  0  0  0  0  0
   -3.3001    0.3434   -7.5384 H   0  0  0  0  0  0  0  0  0  0  0  0
   -2.0950    5.6825   -7.6193 H   0  0  0  0  0  0  0  0  0  0  0  0
   -1.4168    1.4486  -11.3800 H   0  0  0  0  0  0  0  0  0  0  0  0
    0.2732    1.9866  -11.5527 H   0  0  0  0  0  0  0  0  0  0  0  0
    0.7888    1.0554   -9.2820 H   0  0  0  0  0  0  0  0  0  0  0  0
   -0.8651    0.4550   -9.1475 H   0  0  0  0  0  0  0  0  0  0  0  0
    0.2114   -0.2012  -10.3852 H   0  0  0  0  0  0  0  0  0  0  0  0
  1  2  2  0  0  0  0
  2  3  1  0  0  0  0
  3  4  2  0  0  0  0
  3  5  1  0  0  0  0
  5  6  2  0  0  0  0
  6  7  1  0  0  0  0
  7  8  2  0  0  0  0
  8  9  1  0  0  0  0
  9 10  2  0  0  0  0
 10 11  1  0  0  0  0
 11 12  2  0  0  0  0
 12 13  1  0  0  0  0
 13 14  3  0  0  0  0
 12 15  1  0  0  0  0
 15 16  3  0  0  0  0
  8 17  1  0  0  0  0
 17 18  1  0  0  0  0
 18 19  1  0  0  0  0
 19 20  2  0  0  0  0
 20 21  1  0  0  0  0
 21 22  1  0  0  0  0
 21 23  1  0  0  0  0
  1 24  1  0  0  0  0
 24 25  2  0  0  0  0
 25 26  1  0  0  0  0
 26 27  1  0  0  0  0
 27 28  1  0  0  0  0
 28 29  1  0  0  0  0
 27 30  1  0  0  0  0
 30 31  2  0  0  0  0
 31 32  1  0  0  0  0
 32 33  1  0  0  0  0
 33 34  2  0  0  0  0
 31 35  1  0  0  0  0
 35 36  2  0  0  0  0
 36 37  1  0  0  0  0
 37 38  2  0  0  0  0
 37 39  1  0  0  0  0
 39 40  2  0  0  0  0
 40 41  1  0  0  0  0
 40 42  1  0  0  0  0
 42 43  1  0  0  0  0
 42 44  2  0  0  0  0
 44 45  1  0  0  0  0
 45 46  2  0  0  0  0
 46 47  1  0  0  0  0
 47 48  1  0  0  0  0
 48 49  1  0  0  0  0
 47 50  2  0  0  0  0
 50 51  1  0  0  0  0
 51 52  2  0  0  0  0
 50 53  1  0  0  0  0
 53 54  1  0  0  0  0
 44 55  1  0  0  0  0
 55 56  1  0  0  0  0
 56 57  2  0  0  0  0
 57 58  1  0  0  0  0
 58 59  1  0  0  0  0
 59 60  2  0  0  0  0
 60 61  1  0  0  0  0
 61 62  2  0  0  0  0
 62 63  1  0  0  0  0
 63 64  1  0  0  0  0
 64 65  1  0  0  0  0
 62 66  1  0  0  0  0
 66 67  2  0  0  0  0
 67 68  1  0  0  0  0
 66 69  1  0  0  0  0
 61 70  1  0  0  0  0
 60 71  1  0  0  0  0
 58 72  2  0  0  0  0
 72 73  1  0  0  0  0
 73 74  2  0  0  0  0
 74 75  1  0  0  0  0
 74 76  1  0  0  0  0
 76 77  1  0  0  0  0
 76 78  2  0  0  0  0
 78 79  1  0  0  0  0
 79 80  1  0  0  0  0
 80 81  1  0  0  0  0
 78 82  1  0  0  0  0
 82 83  1  0  0  0  0
 82 84  2  0  0  0  0
 84 85  1  0  0  0  0
 72 86  1  0  0  0  0
 86 87  2  0  0  0  0
 87 88  1  0  0  0  0
 88 89  2  0  0  0  0
 89 90  1  0  0  0  0
 88 91  1  0  0  0  0
 91 92  2  0  0  0  0
 92 93  1  0  0  0  0
 93 94  3  0  0  0  0
 92 95  1  0  0  0  0
 95 96  2  0  0  0  0
 95 97  1  0  0  0  0
 97 98  1  0  0  0  0
 98 99  1  0  0  0  0
 11  2  1  0  0  0  0
 23 17  1  0  0  0  0
 34 24  1  0  0  0  0
 52 39  1  0  0  0  0
 90 55  2  0  0  0  0
 10  5  1  0  0  0  0
 22 18  1  0  0  0  0
 32 26  2  0  0  0  0
 52 45  1  0  0  0  0
 87 56  1  0  0  0  0
 23  7  1  0  0  0  0
 38 30  1  0  0  0  0
 67 59  1  0  0  0  0
 84 73  1  0  0  0  0
  1100  1  0  0  0  0
  6101  1  0  0  0  0
  9102  1  0  0  0  0
 17103  1  0  0  0  0
 18104  1  0  0  0  0
 19105  1  0  0  0  0
 20106  1  0  0  0  0
 21107  1  0  0  0  0
 22108  1  0  0  0  0
 22109  1  0  0  0  0
 23110  1  0  0  0  0
 25111  1  0  0  0  0
 28112  1  0  0  0  0
 28113  1  0  0  0  0
 29114  1  0  0  0  0
 29115  1  0  0  0  0
 29116  1  0  0  0  0
 33117  1  0  0  0  0
 34118  1  0  0  0  0
 35119  1  0  0  0  0
 36120  1  0  0  0  0
 38121  1  0  0  0  0
 48122  1  0  0  0  0
 48123  1  0  0  0  0
 49124  1  0  0  0  0
 49125  1  0  0  0  0
 49126  1  0  0  0  0
 53127  1  0  0  0  0
 53128  1  0  0  0  0
 54129  1  0  0  0  0
 54130  1  0  0  0  0
 54131  1  0  0  0  0
 64132  1  0  0  0  0
 64133  1  0  0  0  0
 65134  1  0  0  0  0
 65135  1  0  0  0  0
 65136  1  0  0  0  0
 80137  1  0  0  0  0
 80138  1  0  0  0  0
 81139  1  0  0  0  0
 81140  1  0  0  0  0
 81141  1  0  0  0  0
 89142  1  0  0  0  0
 90143  1  0  0  0  0
 91144  1  0  0  0  0
 98145  1  0  0  0  0
 98146  1  0  0  0  0
 99147  1  0  0  0  0
 99148  1  0  0  0  0
 99149  1  0  0  0  0
M  END
