
  xtb     02082207143D
 energy: -378.591906533618 gnorm: 0.000352149459 xtb: 6.4.1 (unknown)
234257  0     0  0            999 V2000
    5.3515    2.3701    7.2274 C   0  0  0  0  0  0  0  0  0  0  0  0
    6.4337    1.5829    6.9288 C   0  0  0  0  0  0  0  0  0  0  0  0
    6.6205    0.8285    5.6868 C   0  0  0  0  0  0  0  0  0  0  0  0
    5.8855    0.8104    4.7112 O   0  0  0  0  0  0  0  0  0  0  0  0
    7.8884    0.0999    5.8202 C   0  0  0  0  0  0  0  0  0  0  0  0
    8.4569   -0.7688    4.8903 C   0  0  0  0  0  0  0  0  0  0  0  0
    9.6637   -1.2920    5.2873 C   0  0  0  0  0  0  0  0  0  0  0  0
   10.2577   -0.9790    6.5173 C   0  0  0  0  0  0  0  0  0  0  0  0
    9.6993   -0.1337    7.4476 C   0  0  0  0  0  0  0  0  0  0  0  0
    8.4712    0.4145    7.0651 C   0  0  0  0  0  0  0  0  0  0  0  0
    7.5852    1.3359    7.7766 C   0  0  0  0  0  0  0  0  0  0  0  0
    7.8214    1.8564    9.0232 C   0  0  0  0  0  0  0  0  0  0  0  0
    8.9661    1.5829    9.8008 C   0  0  0  0  0  0  0  0  0  0  0  0
    9.8664    1.4105   10.4925 N   0  0  0  0  0  0  0  0  0  0  0  0
    6.9720    2.7379    9.7237 C   0  0  0  0  0  0  0  0  0  0  0  0
    6.3421    3.4536   10.3651 N   0  0  0  0  0  0  0  0  0  0  0  0
   11.4611   -1.8478    6.2475 C   0  0  0  0  0  0  0  0  0  0  0  0
   12.7540   -1.1193    5.8231 C   0  0  0  0  0  0  0  0  0  0  0  0
   13.5837   -2.2036    5.1741 C   0  0  0  0  0  0  0  0  0  0  0  0
   13.0194   -2.5017    4.0107 C   0  0  0  0  0  0  0  0  0  0  0  0
   11.7988   -1.6241    3.8535 C   0  0  0  0  0  0  0  0  0  0  0  0
   12.2887   -0.3607    4.5733 C   0  0  0  0  0  0  0  0  0  0  0  0
   10.7967   -2.1983    4.8773 C   0  0  0  0  0  0  0  0  0  0  0  0
    4.1984    2.6317    6.4698 C   0  0  0  0  0  0  0  0  0  0  0  0
    3.1601    3.4411    6.9232 C   0  0  0  0  0  0  0  0  0  0  0  0
    2.0819    3.5755    6.0496 C   0  0  0  0  0  0  0  0  0  0  0  0
    0.9811    4.5015    6.3726 C   0  0  0  0  0  0  0  0  0  0  0  0
    0.1324    4.2242    7.4448 C   0  0  0  0  0  0  0  0  0  0  0  0
   -0.7671    5.1933    7.8601 C   0  0  0  0  0  0  0  0  0  0  0  0
   -0.8440    6.4263    7.2309 C   0  0  0  0  0  0  0  0  0  0  0  0
   -1.7722    7.4918    7.7278 C   0  0  0  0  0  0  0  0  0  0  0  0
   -0.0224    6.6661    6.1394 C   0  0  0  0  0  0  0  0  0  0  0  0
    0.8923    5.7231    5.7012 C   0  0  0  0  0  0  0  0  0  0  0  0
    1.8020    6.0288    4.5491 C   0  0  0  0  0  0  0  0  0  0  0  0
    0.1856    2.8938    8.1353 C   0  0  0  0  0  0  0  0  0  0  0  0
    2.2889    2.8486    4.8829 C   0  0  0  0  0  0  0  0  0  0  0  0
    3.8193    2.0186    4.8854 S   0  0  0  0  0  0  0  0  0  0  0  0
    1.4870    2.5847    3.7327 C   0  0  0  0  0  0  0  0  0  0  0  0
    0.1330    2.3474    3.5763 C   0  0  0  0  0  0  0  0  0  0  0  0
   -0.8849    2.5530    4.5266 N   0  0  0  0  0  0  0  0  0  0  0  0
   -1.5275    1.3566    4.9068 C   0  0  0  0  0  0  0  0  0  0  0  0
   -0.7417    0.2984    5.3540 C   0  0  0  0  0  0  0  0  0  0  0  0
   -1.3120   -0.9076    5.7150 C   0  0  0  0  0  0  0  0  0  0  0  0
   -2.6864   -1.0756    5.6275 C   0  0  0  0  0  0  0  0  0  0  0  0
   -3.5379   -2.5601    6.0634 S   0  0  0  0  0  0  0  0  0  0  0  0
   -2.2123   -3.7043    6.5416 C   0  0  0  0  0  0  0  0  0  0  0  0
   -3.4748   -0.0249    5.1610 C   0  0  0  0  0  0  0  0  0  0  0  0
   -2.9062    1.1747    4.7978 C   0  0  0  0  0  0  0  0  0  0  0  0
   -1.5761    3.7648    4.5177 C   0  0  0  0  0  0  0  0  0  0  0  0
   -2.4950    4.0494    5.5252 C   0  0  0  0  0  0  0  0  0  0  0  0
   -3.1956    5.2363    5.5303 C   0  0  0  0  0  0  0  0  0  0  0  0
   -2.9765    6.1774    4.5362 C   0  0  0  0  0  0  0  0  0  0  0  0
   -3.8091    7.7398    4.4609 S   0  0  0  0  0  0  0  0  0  0  0  0
   -5.1967    7.5355    5.6135 C   0  0  0  0  0  0  0  0  0  0  0  0
   -2.0433    5.9133    3.5407 C   0  0  0  0  0  0  0  0  0  0  0  0
   -1.3561    4.7196    3.5257 C   0  0  0  0  0  0  0  0  0  0  0  0
   -0.1358    1.7368    2.3293 C   0  0  0  0  0  0  0  0  0  0  0  0
   -1.5728    1.1129    1.6018 S   0  0  0  0  0  0  0  0  0  0  0  0
   -0.6563    0.6085    0.1906 C   0  0  0  0  0  0  0  0  0  0  0  0
    0.6801    0.9512    0.2840 C   0  0  0  0  0  0  0  0  0  0  0  0
    1.5999    0.7461   -0.7403 N   0  0  0  0  0  0  0  0  0  0  0  0
    1.2914    1.2002   -2.0282 C   0  0  0  0  0  0  0  0  0  0  0  0
    0.4515    2.2946   -2.2205 C   0  0  0  0  0  0  0  0  0  0  0  0
    0.1793    2.7663   -3.4892 C   0  0  0  0  0  0  0  0  0  0  0  0
    0.7485    2.1525   -4.5961 C   0  0  0  0  0  0  0  0  0  0  0  0
    0.5015    2.6931   -6.2587 S   0  0  0  0  0  0  0  0  0  0  0  0
   -0.4794    4.2104   -6.0917 C   0  0  0  0  0  0  0  0  0  0  0  0
    1.5645    1.0376   -4.4128 C   0  0  0  0  0  0  0  0  0  0  0  0
    1.8295    0.5641   -3.1467 C   0  0  0  0  0  0  0  0  0  0  0  0
    2.8997    0.3850   -0.3710 C   0  0  0  0  0  0  0  0  0  0  0  0
    4.0147    0.9690   -0.9714 C   0  0  0  0  0  0  0  0  0  0  0  0
    5.2817    0.6584   -0.5230 C   0  0  0  0  0  0  0  0  0  0  0  0
    5.4516   -0.2229    0.5358 C   0  0  0  0  0  0  0  0  0  0  0  0
    7.0909   -0.5746    1.1381 S   0  0  0  0  0  0  0  0  0  0  0  0
    7.4722    1.0600    1.8441 C   0  0  0  0  0  0  0  0  0  0  0  0
    4.3516   -0.8367    1.1134 C   0  0  0  0  0  0  0  0  0  0  0  0
    3.0833   -0.5391    0.6583 C   0  0  0  0  0  0  0  0  0  0  0  0
    0.9718    1.5793    1.5131 C   0  0  0  0  0  0  0  0  0  0  0  0
    2.3996    2.1624    2.2812 S   0  0  0  0  0  0  0  0  0  0  0  0
   -1.1537   -0.2809   -0.8248 C   0  0  0  0  0  0  0  0  0  0  0  0
   -2.1600   -0.1760   -1.7641 C   0  0  0  0  0  0  0  0  0  0  0  0
   -2.9367    0.9527   -1.9722 N   0  0  0  0  0  0  0  0  0  0  0  0
   -3.1864    1.3982   -3.2713 C   0  0  0  0  0  0  0  0  0  0  0  0
   -2.3407    1.0486   -4.3218 C   0  0  0  0  0  0  0  0  0  0  0  0
   -2.6001    1.4649   -5.6118 C   0  0  0  0  0  0  0  0  0  0  0  0
   -3.6923    2.2780   -5.8751 C   0  0  0  0  0  0  0  0  0  0  0  0
   -4.0683    2.9273   -7.4761 S   0  0  0  0  0  0  0  0  0  0  0  0
   -2.9475    2.0178   -8.5772 C   0  0  0  0  0  0  0  0  0  0  0  0
   -4.5349    2.6443   -4.8281 C   0  0  0  0  0  0  0  0  0  0  0  0
   -4.2954    2.2003   -3.5468 C   0  0  0  0  0  0  0  0  0  0  0  0
   -3.4582    1.6363   -0.8607 C   0  0  0  0  0  0  0  0  0  0  0  0
   -4.1612    0.9351    0.1182 C   0  0  0  0  0  0  0  0  0  0  0  0
   -4.6735    1.5984    1.2135 C   0  0  0  0  0  0  0  0  0  0  0  0
   -4.4818    2.9693    1.3539 C   0  0  0  0  0  0  0  0  0  0  0  0
   -5.1503    3.7517    2.7906 S   0  0  0  0  0  0  0  0  0  0  0  0
   -5.4802    5.4359    2.1926 C   0  0  0  0  0  0  0  0  0  0  0  0
   -3.7748    3.6707    0.3849 C   0  0  0  0  0  0  0  0  0  0  0  0
   -3.2775    3.0092   -0.7195 C   0  0  0  0  0  0  0  0  0  0  0  0
   -2.2354   -1.3428   -2.5724 C   0  0  0  0  0  0  0  0  0  0  0  0
   -3.3151   -1.8601   -3.8194 S   0  0  0  0  0  0  0  0  0  0  0  0
   -2.4273   -3.3811   -3.9684 C   0  0  0  0  0  0  0  0  0  0  0  0
   -1.3884   -3.4852   -3.0122 C   0  0  0  0  0  0  0  0  0  0  0  0
   -0.5910   -4.5779   -2.7952 N   0  0  0  0  0  0  0  0  0  0  0  0
    0.7034   -4.3751   -2.2777 C   0  0  0  0  0  0  0  0  0  0  0  0
    1.1639   -5.1425   -1.2085 C   0  0  0  0  0  0  0  0  0  0  0  0
    2.4273   -4.9358   -0.7047 C   0  0  0  0  0  0  0  0  0  0  0  0
    3.2642   -3.9671   -1.2596 C   0  0  0  0  0  0  0  0  0  0  0  0
    4.8556   -3.7870   -0.5266 S   0  0  0  0  0  0  0  0  0  0  0  0
    5.7633   -2.7430   -1.6973 C   0  0  0  0  0  0  0  0  0  0  0  0
    2.8095   -3.2088   -2.3306 C   0  0  0  0  0  0  0  0  0  0  0  0
    1.5390   -3.4104   -2.8332 C   0  0  0  0  0  0  0  0  0  0  0  0
   -1.0469   -5.8967   -2.9675 C   0  0  0  0  0  0  0  0  0  0  0  0
   -2.3618   -6.2458   -2.6511 C   0  0  0  0  0  0  0  0  0  0  0  0
   -2.8234   -7.5120   -2.9257 C   0  0  0  0  0  0  0  0  0  0  0  0
   -1.9779   -8.4640   -3.4959 C   0  0  0  0  0  0  0  0  0  0  0  0
   -2.6863  -10.0283   -3.9000 S   0  0  0  0  0  0  0  0  0  0  0  0
   -1.5408  -10.6841   -5.1466 C   0  0  0  0  0  0  0  0  0  0  0  0
   -0.6452   -8.1476   -3.7184 C   0  0  0  0  0  0  0  0  0  0  0  0
   -0.1858   -6.8695   -3.4658 C   0  0  0  0  0  0  0  0  0  0  0  0
   -1.2898   -2.3048   -2.2539 C   0  0  0  0  0  0  0  0  0  0  0  0
   -0.2894   -1.8151   -0.9320 S   0  0  0  0  0  0  0  0  0  0  0  0
   -2.6631   -4.3491   -4.9466 C   0  0  0  0  0  0  0  0  0  0  0  0
   -3.7101   -4.4993   -5.8233 C   0  0  0  0  0  0  0  0  0  0  0  0
   -4.8991   -3.6469   -5.9094 C   0  0  0  0  0  0  0  0  0  0  0  0
   -5.0817   -2.5700   -5.3678 O   0  0  0  0  0  0  0  0  0  0  0  0
   -5.8487   -4.3546   -6.7875 C   0  0  0  0  0  0  0  0  0  0  0  0
   -7.1358   -3.9513   -7.1344 C   0  0  0  0  0  0  0  0  0  0  0  0
   -7.7933   -4.8315   -7.9608 C   0  0  0  0  0  0  0  0  0  0  0  0
   -7.2142   -6.0254   -8.4091 C   0  0  0  0  0  0  0  0  0  0  0  0
   -5.9439   -6.4340   -8.0763 C   0  0  0  0  0  0  0  0  0  0  0  0
   -5.2574   -5.5527   -7.2369 C   0  0  0  0  0  0  0  0  0  0  0  0
   -3.9040   -5.6369   -6.6906 C   0  0  0  0  0  0  0  0  0  0  0  0
   -2.9932   -6.6263   -6.9727 C   0  0  0  0  0  0  0  0  0  0  0  0
   -1.6424   -6.6296   -6.5792 C   0  0  0  0  0  0  0  0  0  0  0  0
   -0.5195   -6.7074   -6.3414 N   0  0  0  0  0  0  0  0  0  0  0  0
   -3.2643   -7.7805   -7.7334 C   0  0  0  0  0  0  0  0  0  0  0  0
   -3.3988   -8.7617   -8.3160 N   0  0  0  0  0  0  0  0  0  0  0  0
   -8.4353   -6.4133   -9.2053 C   0  0  0  0  0  0  0  0  0  0  0  0
   -8.3577   -6.2043  -10.7323 C   0  0  0  0  0  0  0  0  0  0  0  0
   -9.8042   -6.2030  -11.1714 C   0  0  0  0  0  0  0  0  0  0  0  0
  -10.3534   -5.0721  -10.7473 C   0  0  0  0  0  0  0  0  0  0  0  0
   -9.2873   -4.2898  -10.0148 C   0  0  0  0  0  0  0  0  0  0  0  0
   -8.0523   -4.7037  -10.8255 C   0  0  0  0  0  0  0  0  0  0  0  0
   -9.0814   -5.0812   -8.7059 C   0  0  0  0  0  0  0  0  0  0  0  0
    5.3490    2.8657    8.1906 H   0  0  0  0  0  0  0  0  0  0  0  0
    7.9645   -0.9925    3.9568 H   0  0  0  0  0  0  0  0  0  0  0  0
   10.1667    0.0866    8.3925 H   0  0  0  0  0  0  0  0  0  0  0  0
   11.6390   -2.6490    6.9622 H   0  0  0  0  0  0  0  0  0  0  0  0
   13.2310   -0.5429    6.6111 H   0  0  0  0  0  0  0  0  0  0  0  0
   14.4351   -2.6658    5.6383 H   0  0  0  0  0  0  0  0  0  0  0  0
   13.3052   -3.2629    3.3087 H   0  0  0  0  0  0  0  0  0  0  0  0
   11.4038   -1.5090    2.8477 H   0  0  0  0  0  0  0  0  0  0  0  0
   13.1160    0.1167    4.0505 H   0  0  0  0  0  0  0  0  0  0  0  0
   11.5076    0.3730    4.7647 H   0  0  0  0  0  0  0  0  0  0  0  0
   10.5285   -3.2334    4.6757 H   0  0  0  0  0  0  0  0  0  0  0  0
    3.2055    3.9439    7.8744 H   0  0  0  0  0  0  0  0  0  0  0  0
   -1.4153    4.9836    8.6996 H   0  0  0  0  0  0  0  0  0  0  0  0
   -2.5830    7.0619    8.3117 H   0  0  0  0  0  0  0  0  0  0  0  0
   -2.1846    8.0603    6.8973 H   0  0  0  0  0  0  0  0  0  0  0  0
   -1.2284    8.1873    8.3682 H   0  0  0  0  0  0  0  0  0  0  0  0
   -0.0874    7.6163    5.6285 H   0  0  0  0  0  0  0  0  0  0  0  0
    1.6321    7.0395    4.1875 H   0  0  0  0  0  0  0  0  0  0  0  0
    1.6295    5.3351    3.7277 H   0  0  0  0  0  0  0  0  0  0  0  0
    2.8459    5.9354    4.8485 H   0  0  0  0  0  0  0  0  0  0  0  0
   -0.6961    2.7502    8.7551 H   0  0  0  0  0  0  0  0  0  0  0  0
    0.2350    2.0867    7.4067 H   0  0  0  0  0  0  0  0  0  0  0  0
    1.0648    2.8229    8.7750 H   0  0  0  0  0  0  0  0  0  0  0  0
    0.3306    0.4195    5.4149 H   0  0  0  0  0  0  0  0  0  0  0  0
   -0.6710   -1.7024    6.0609 H   0  0  0  0  0  0  0  0  0  0  0  0
   -1.6867   -3.3235    7.4125 H   0  0  0  0  0  0  0  0  0  0  0  0
   -1.5357   -3.8581    5.7060 H   0  0  0  0  0  0  0  0  0  0  0  0
   -2.7085   -4.6372    6.7907 H   0  0  0  0  0  0  0  0  0  0  0  0
   -4.5411   -0.1678    5.0752 H   0  0  0  0  0  0  0  0  0  0  0  0
   -3.5275    1.9682    4.4114 H   0  0  0  0  0  0  0  0  0  0  0  0
   -2.6601    3.3319    6.3133 H   0  0  0  0  0  0  0  0  0  0  0  0
   -3.9014    5.4181    6.3238 H   0  0  0  0  0  0  0  0  0  0  0  0
   -5.7245    6.6138    5.3878 H   0  0  0  0  0  0  0  0  0  0  0  0
   -5.8465    8.3895    5.4484 H   0  0  0  0  0  0  0  0  0  0  0  0
   -4.8381    7.5401    6.6387 H   0  0  0  0  0  0  0  0  0  0  0  0
   -1.8660    6.6519    2.7724 H   0  0  0  0  0  0  0  0  0  0  0  0
   -0.6528    4.5218    2.7305 H   0  0  0  0  0  0  0  0  0  0  0  0
    0.0171    2.7927   -1.3662 H   0  0  0  0  0  0  0  0  0  0  0  0
   -0.4714    3.6186   -3.5994 H   0  0  0  0  0  0  0  0  0  0  0  0
   -0.5998    4.5948   -7.1001 H   0  0  0  0  0  0  0  0  0  0  0  0
    0.0606    4.9323   -5.4863 H   0  0  0  0  0  0  0  0  0  0  0  0
   -1.4529    3.9811   -5.6667 H   0  0  0  0  0  0  0  0  0  0  0  0
    1.9880    0.5498   -5.2778 H   0  0  0  0  0  0  0  0  0  0  0  0
    2.4612   -0.2996   -3.0085 H   0  0  0  0  0  0  0  0  0  0  0  0
    3.8826    1.6778   -1.7754 H   0  0  0  0  0  0  0  0  0  0  0  0
    6.1438    1.1135   -0.9888 H   0  0  0  0  0  0  0  0  0  0  0  0
    8.5024    1.0233    2.1841 H   0  0  0  0  0  0  0  0  0  0  0  0
    7.3564    1.8234    1.0810 H   0  0  0  0  0  0  0  0  0  0  0  0
    6.8004    1.2417    2.6787 H   0  0  0  0  0  0  0  0  0  0  0  0
    4.4946   -1.5416    1.9165 H   0  0  0  0  0  0  0  0  0  0  0  0
    2.2212   -1.0152    1.1017 H   0  0  0  0  0  0  0  0  0  0  0  0
   -1.4610    0.4528   -4.1353 H   0  0  0  0  0  0  0  0  0  0  0  0
   -1.9270    1.1596   -6.3955 H   0  0  0  0  0  0  0  0  0  0  0  0
   -3.2149    2.3233   -9.5840 H   0  0  0  0  0  0  0  0  0  0  0  0
   -3.1082    0.9505   -8.4579 H   0  0  0  0  0  0  0  0  0  0  0  0
   -1.9145    2.2857   -8.3731 H   0  0  0  0  0  0  0  0  0  0  0  0
   -5.3886    3.2711   -5.0354 H   0  0  0  0  0  0  0  0  0  0  0  0
   -4.9737    2.4692   -2.7513 H   0  0  0  0  0  0  0  0  0  0  0  0
   -4.3070   -0.1289    0.0075 H   0  0  0  0  0  0  0  0  0  0  0  0
   -5.2239    1.0614    1.9701 H   0  0  0  0  0  0  0  0  0  0  0  0
   -4.5670    6.0228    2.1851 H   0  0  0  0  0  0  0  0  0  0  0  0
   -5.9241    5.3810    1.2036 H   0  0  0  0  0  0  0  0  0  0  0  0
   -6.1879    5.8711    2.8907 H   0  0  0  0  0  0  0  0  0  0  0  0
   -3.5974    4.7291    0.4928 H   0  0  0  0  0  0  0  0  0  0  0  0
   -2.7323    3.5527   -1.4773 H   0  0  0  0  0  0  0  0  0  0  0  0
    0.5207   -5.8952   -0.7779 H   0  0  0  0  0  0  0  0  0  0  0  0
    2.7864   -5.5212    0.1274 H   0  0  0  0  0  0  0  0  0  0  0  0
    6.7659   -2.6585   -1.2896 H   0  0  0  0  0  0  0  0  0  0  0  0
    5.3124   -1.7566   -1.7496 H   0  0  0  0  0  0  0  0  0  0  0  0
    5.7913   -3.2237   -2.6708 H   0  0  0  0  0  0  0  0  0  0  0  0
    3.4426   -2.4647   -2.7864 H   0  0  0  0  0  0  0  0  0  0  0  0
    1.1909   -2.8216   -3.6696 H   0  0  0  0  0  0  0  0  0  0  0  0
   -3.0236   -5.5094   -2.2202 H   0  0  0  0  0  0  0  0  0  0  0  0
   -3.8463   -7.7798   -2.7101 H   0  0  0  0  0  0  0  0  0  0  0  0
   -1.3236   -9.9119   -5.8785 H   0  0  0  0  0  0  0  0  0  0  0  0
   -0.6330  -11.0477   -4.6738 H   0  0  0  0  0  0  0  0  0  0  0  0
   -2.0635  -11.5079   -5.6224 H   0  0  0  0  0  0  0  0  0  0  0  0
    0.0393   -8.8764   -4.1193 H   0  0  0  0  0  0  0  0  0  0  0  0
    0.8400   -6.6163   -3.6830 H   0  0  0  0  0  0  0  0  0  0  0  0
   -1.9085   -5.1239   -4.9835 H   0  0  0  0  0  0  0  0  0  0  0  0
   -7.5452   -3.0246   -6.7635 H   0  0  0  0  0  0  0  0  0  0  0  0
   -5.5136   -7.3579   -8.4255 H   0  0  0  0  0  0  0  0  0  0  0  0
   -8.9034   -7.3558   -8.9277 H   0  0  0  0  0  0  0  0  0  0  0  0
   -7.6888   -6.8855  -11.2513 H   0  0  0  0  0  0  0  0  0  0  0  0
  -10.2777   -7.0226  -11.6793 H   0  0  0  0  0  0  0  0  0  0  0  0
  -11.3775   -4.7583  -10.8302 H   0  0  0  0  0  0  0  0  0  0  0  0
   -9.4657   -3.2262   -9.8810 H   0  0  0  0  0  0  0  0  0  0  0  0
   -7.1063   -4.4143  -10.3717 H   0  0  0  0  0  0  0  0  0  0  0  0
   -8.0915   -4.3385  -11.8505 H   0  0  0  0  0  0  0  0  0  0  0  0
   -9.9809   -5.1358   -8.0954 H   0  0  0  0  0  0  0  0  0  0  0  0
  1  2  2  0  0  0  0
  2  3  1  0  0  0  0
  3  4  2  0  0  0  0
  3  5  1  0  0  0  0
  5  6  2  0  0  0  0
  6  7  1  0  0  0  0
  7  8  2  0  0  0  0
  8  9  1  0  0  0  0
  9 10  2  0  0  0  0
 10 11  1  0  0  0  0
 11 12  2  0  0  0  0
 12 13  1  0  0  0  0
 13 14  3  0  0  0  0
 12 15  1  0  0  0  0
 15 16  3  0  0  0  0
  8 17  1  0  0  0  0
 17 18  1  0  0  0  0
 18 19  1  0  0  0  0
 19 20  2  0  0  0  0
 20 21  1  0  0  0  0
 21 22  1  0  0  0  0
 21 23  1  0  0  0  0
  1 24  1  0  0  0  0
 24 25  2  0  0  0  0
 25 26  1  0  0  0  0
 26 27  1  0  0  0  0
 27 28  2  0  0  0  0
 28 29  1  0  0  0  0
 29 30  2  0  0  0  0
 30 31  1  0  0  0  0
 30 32  1  0  0  0  0
 32 33  2  0  0  0  0
 33 34  1  0  0  0  0
 28 35  1  0  0  0  0
 26 36  2  0  0  0  0
 36 37  1  0  0  0  0
 36 38  1  0  0  0  0
 38 39  2  0  0  0  0
 39 40  1  0  0  0  0
 40 41  1  0  0  0  0
 41 42  2  0  0  0  0
 42 43  1  0  0  0  0
 43 44  2  0  0  0  0
 44 45  1  0  0  0  0
 45 46  1  0  0  0  0
 44 47  1  0  0  0  0
 47 48  2  0  0  0  0
 40 49  1  0  0  0  0
 49 50  2  0  0  0  0
 50 51  1  0  0  0  0
 51 52  2  0  0  0  0
 52 53  1  0  0  0  0
 53 54  1  0  0  0  0
 52 55  1  0  0  0  0
 55 56  2  0  0  0  0
 39 57  1  0  0  0  0
 57 58  1  0  0  0  0
 58 59  1  0  0  0  0
 59 60  2  0  0  0  0
 60 61  1  0  0  0  0
 61 62  1  0  0  0  0
 62 63  2  0  0  0  0
 63 64  1  0  0  0  0
 64 65  2  0  0  0  0
 65 66  1  0  0  0  0
 66 67  1  0  0  0  0
 65 68  1  0  0  0  0
 68 69  2  0  0  0  0
 61 70  1  0  0  0  0
 70 71  2  0  0  0  0
 71 72  1  0  0  0  0
 72 73  2  0  0  0  0
 73 74  1  0  0  0  0
 74 75  1  0  0  0  0
 73 76  1  0  0  0  0
 76 77  2  0  0  0  0
 60 78  1  0  0  0  0
 78 79  1  0  0  0  0
 59 80  1  0  0  0  0
 80 81  2  0  0  0  0
 81 82  1  0  0  0  0
 82 83  1  0  0  0  0
 83 84  2  0  0  0  0
 84 85  1  0  0  0  0
 85 86  2  0  0  0  0
 86 87  1  0  0  0  0
 87 88  1  0  0  0  0
 86 89  1  0  0  0  0
 89 90  2  0  0  0  0
 82 91  1  0  0  0  0
 91 92  2  0  0  0  0
 92 93  1  0  0  0  0
 93 94  2  0  0  0  0
 94 95  1  0  0  0  0
 95 96  1  0  0  0  0
 94 97  1  0  0  0  0
 97 98  2  0  0  0  0
 81 99  1  0  0  0  0
 99100  1  0  0  0  0
100101  1  0  0  0  0
101102  2  0  0  0  0
102103  1  0  0  0  0
103104  1  0  0  0  0
104105  2  0  0  0  0
105106  1  0  0  0  0
106107  2  0  0  0  0
107108  1  0  0  0  0
108109  1  0  0  0  0
107110  1  0  0  0  0
110111  2  0  0  0  0
103112  1  0  0  0  0
112113  2  0  0  0  0
113114  1  0  0  0  0
114115  2  0  0  0  0
115116  1  0  0  0  0
116117  1  0  0  0  0
115118  1  0  0  0  0
118119  2  0  0  0  0
102120  1  0  0  0  0
120121  1  0  0  0  0
101122  1  0  0  0  0
122123  2  0  0  0  0
123124  1  0  0  0  0
124125  2  0  0  0  0
124126  1  0  0  0  0
126127  2  0  0  0  0
127128  1  0  0  0  0
128129  2  0  0  0  0
129130  1  0  0  0  0
130131  2  0  0  0  0
131132  1  0  0  0  0
132133  2  0  0  0  0
133134  1  0  0  0  0
134135  3  0  0  0  0
133136  1  0  0  0  0
136137  3  0  0  0  0
129138  1  0  0  0  0
138139  1  0  0  0  0
139140  1  0  0  0  0
140141  2  0  0  0  0
141142  1  0  0  0  0
142143  1  0  0  0  0
142144  1  0  0  0  0
 11  2  1  0  0  0  0
 23 17  1  0  0  0  0
 37 24  1  0  0  0  0
 79 38  1  0  0  0  0
121 80  1  0  0  0  0
132123  1  0  0  0  0
144138  1  0  0  0  0
 10  5  1  0  0  0  0
 22 18  1  0  0  0  0
 33 27  1  0  0  0  0
 48 41  1  0  0  0  0
 56 49  1  0  0  0  0
 78 57  2  0  0  0  0
 90 83  1  0  0  0  0
 98 91  1  0  0  0  0
120 99  2  0  0  0  0
131126  1  0  0  0  0
143139  1  0  0  0  0
 23  7  1  0  0  0  0
 69 62  1  0  0  0  0
 77 70  1  0  0  0  0
111104  1  0  0  0  0
119112  1  0  0  0  0
144128  1  0  0  0  0
  1145  1  0  0  0  0
  6146  1  0  0  0  0
  9147  1  0  0  0  0
 17148  1  0  0  0  0
 18149  1  0  0  0  0
 19150  1  0  0  0  0
 20151  1  0  0  0  0
 21152  1  0  0  0  0
 22153  1  0  0  0  0
 22154  1  0  0  0  0
 23155  1  0  0  0  0
 25156  1  0  0  0  0
 29157  1  0  0  0  0
 31158  1  0  0  0  0
 31159  1  0  0  0  0
 31160  1  0  0  0  0
 32161  1  0  0  0  0
 34162  1  0  0  0  0
 34163  1  0  0  0  0
 34164  1  0  0  0  0
 35165  1  0  0  0  0
 35166  1  0  0  0  0
 35167  1  0  0  0  0
 42168  1  0  0  0  0
 43169  1  0  0  0  0
 46170  1  0  0  0  0
 46171  1  0  0  0  0
 46172  1  0  0  0  0
 47173  1  0  0  0  0
 48174  1  0  0  0  0
 50175  1  0  0  0  0
 51176  1  0  0  0  0
 54177  1  0  0  0  0
 54178  1  0  0  0  0
 54179  1  0  0  0  0
 55180  1  0  0  0  0
 56181  1  0  0  0  0
 63182  1  0  0  0  0
 64183  1  0  0  0  0
 67184  1  0  0  0  0
 67185  1  0  0  0  0
 67186  1  0  0  0  0
 68187  1  0  0  0  0
 69188  1  0  0  0  0
 71189  1  0  0  0  0
 72190  1  0  0  0  0
 75191  1  0  0  0  0
 75192  1  0  0  0  0
 75193  1  0  0  0  0
 76194  1  0  0  0  0
 77195  1  0  0  0  0
 84196  1  0  0  0  0
 85197  1  0  0  0  0
 88198  1  0  0  0  0
 88199  1  0  0  0  0
 88200  1  0  0  0  0
 89201  1  0  0  0  0
 90202  1  0  0  0  0
 92203  1  0  0  0  0
 93204  1  0  0  0  0
 96205  1  0  0  0  0
 96206  1  0  0  0  0
 96207  1  0  0  0  0
 97208  1  0  0  0  0
 98209  1  0  0  0  0
105210  1  0  0  0  0
106211  1  0  0  0  0
109212  1  0  0  0  0
109213  1  0  0  0  0
109214  1  0  0  0  0
110215  1  0  0  0  0
111216  1  0  0  0  0
113217  1  0  0  0  0
114218  1  0  0  0  0
117219  1  0  0  0  0
117220  1  0  0  0  0
117221  1  0  0  0  0
118222  1  0  0  0  0
119223  1  0  0  0  0
122224  1  0  0  0  0
127225  1  0  0  0  0
130226  1  0  0  0  0
138227  1  0  0  0  0
139228  1  0  0  0  0
140229  1  0  0  0  0
141230  1  0  0  0  0
142231  1  0  0  0  0
143232  1  0  0  0  0
143233  1  0  0  0  0
144234  1  0  0  0  0
M  END
