
  xtb     02062207153D
 energy: -296.559200686306 gnorm: 0.000463123683 xtb: 6.4.1 (unknown)
182200  0     0  0            999 V2000
   -1.4921    3.1493   -6.1080 C   0  0  0  0  0  0  0  0  0  0  0  0
   -0.6090    4.0665   -6.6325 C   0  0  0  0  0  0  0  0  0  0  0  0
    0.5426    4.6488   -5.9485 C   0  0  0  0  0  0  0  0  0  0  0  0
    0.8353    4.5682   -4.7657 O   0  0  0  0  0  0  0  0  0  0  0  0
    1.3034    5.3879   -6.9725 C   0  0  0  0  0  0  0  0  0  0  0  0
    2.5128    6.0575   -6.7998 C   0  0  0  0  0  0  0  0  0  0  0  0
    3.0126    6.6156   -7.9524 C   0  0  0  0  0  0  0  0  0  0  0  0
    2.3489    6.5287   -9.1820 C   0  0  0  0  0  0  0  0  0  0  0  0
    1.1446    5.8887   -9.3606 C   0  0  0  0  0  0  0  0  0  0  0  0
    0.6242    5.3039   -8.2029 C   0  0  0  0  0  0  0  0  0  0  0  0
   -0.6120    4.5454   -7.9961 C   0  0  0  0  0  0  0  0  0  0  0  0
   -1.5988    4.3804   -8.9368 C   0  0  0  0  0  0  0  0  0  0  0  0
   -1.5367    4.8833  -10.2520 C   0  0  0  0  0  0  0  0  0  0  0  0
   -1.5598    5.2603  -11.3371 N   0  0  0  0  0  0  0  0  0  0  0  0
   -2.8349    3.7320   -8.7399 C   0  0  0  0  0  0  0  0  0  0  0  0
   -3.8746    3.2449   -8.6818 N   0  0  0  0  0  0  0  0  0  0  0  0
    3.4241    7.3010   -9.9075 C   0  0  0  0  0  0  0  0  0  0  0  0
    4.3975    6.4772  -10.7762 C   0  0  0  0  0  0  0  0  0  0  0  0
    5.5915    7.3875  -10.9501 C   0  0  0  0  0  0  0  0  0  0  0  0
    6.2226    7.4528   -9.7847 C   0  0  0  0  0  0  0  0  0  0  0  0
    5.4635    6.5898   -8.8026 C   0  0  0  0  0  0  0  0  0  0  0  0
    4.9657    5.4896   -9.7491 C   0  0  0  0  0  0  0  0  0  0  0  0
    4.1689    7.3880   -8.5367 C   0  0  0  0  0  0  0  0  0  0  0  0
   -1.5310    2.5442   -4.8531 C   0  0  0  0  0  0  0  0  0  0  0  0
   -2.4313    1.5118   -4.4979 C   0  0  0  0  0  0  0  0  0  0  0  0
   -3.4048    0.8930   -5.3628 C   0  0  0  0  0  0  0  0  0  0  0  0
   -4.6465    0.4475   -4.9913 C   0  0  0  0  0  0  0  0  0  0  0  0
   -5.3684   -0.1339   -6.0482 C   0  0  0  0  0  0  0  0  0  0  0  0
   -4.6812   -0.1619   -7.2249 C   0  0  0  0  0  0  0  0  0  0  0  0
   -5.1196   -0.6868   -8.5469 C   0  0  0  0  0  0  0  0  0  0  0  0
   -4.2601   -1.8661   -9.0040 C   0  0  0  0  0  0  0  0  0  0  0  0
   -3.1116    0.5388   -7.0421 S   0  0  0  0  0  0  0  0  0  0  0  0
   -2.2832    1.1069   -3.1757 C   0  0  0  0  0  0  0  0  0  0  0  0
   -1.2717    1.7670   -2.4942 C   0  0  0  0  0  0  0  0  0  0  0  0
   -0.5161    2.9675   -3.4913 S   0  0  0  0  0  0  0  0  0  0  0  0
   -0.9105    1.5077   -1.1502 C   0  0  0  0  0  0  0  0  0  0  0  0
    0.1885    1.9132   -0.3915 C   0  0  0  0  0  0  0  0  0  0  0  0
    1.3127    2.5833   -0.8297 N   0  0  0  0  0  0  0  0  0  0  0  0
    1.9166    2.3312   -2.0650 C   0  0  0  0  0  0  0  0  0  0  0  0
    1.8083    1.0874   -2.6898 C   0  0  0  0  0  0  0  0  0  0  0  0
    2.3616    0.8860   -3.9341 C   0  0  0  0  0  0  0  0  0  0  0  0
    3.0518    1.9119   -4.5763 C   0  0  0  0  0  0  0  0  0  0  0  0
    3.6638    1.5560   -6.1925 S   0  0  0  0  0  0  0  0  0  0  0  0
    4.5861    3.0490   -6.6555 C   0  0  0  0  0  0  0  0  0  0  0  0
    3.2075    3.1334   -3.9357 C   0  0  0  0  0  0  0  0  0  0  0  0
    2.6411    3.3401   -2.6961 C   0  0  0  0  0  0  0  0  0  0  0  0
    1.9667    3.4163    0.0955 C   0  0  0  0  0  0  0  0  0  0  0  0
    1.2334    4.3232    0.8542 C   0  0  0  0  0  0  0  0  0  0  0  0
    1.8537    5.1172    1.7989 C   0  0  0  0  0  0  0  0  0  0  0  0
    3.2238    5.0160    1.9971 C   0  0  0  0  0  0  0  0  0  0  0  0
    4.1258    5.9652    3.1789 S   0  0  0  0  0  0  0  0  0  0  0  0
    2.8336    6.7886    4.1521 C   0  0  0  0  0  0  0  0  0  0  0  0
    3.9648    4.1233    1.2235 C   0  0  0  0  0  0  0  0  0  0  0  0
    3.3460    3.3308    0.2842 C   0  0  0  0  0  0  0  0  0  0  0  0
    0.0568    1.4922    0.9574 C   0  0  0  0  0  0  0  0  0  0  0  0
    1.0638    1.6101    2.3596 S   0  0  0  0  0  0  0  0  0  0  0  0
   -0.0596    0.6581    3.2847 C   0  0  0  0  0  0  0  0  0  0  0  0
   -1.1427    0.2343    2.5313 C   0  0  0  0  0  0  0  0  0  0  0  0
   -2.1399   -0.6599    2.9772 N   0  0  0  0  0  0  0  0  0  0  0  0
   -3.3421   -0.1365    3.4587 C   0  0  0  0  0  0  0  0  0  0  0  0
   -3.8239    1.0829    2.9873 C   0  0  0  0  0  0  0  0  0  0  0  0
   -4.9949    1.6276    3.4800 C   0  0  0  0  0  0  0  0  0  0  0  0
   -5.7133    0.9654    4.4633 C   0  0  0  0  0  0  0  0  0  0  0  0
   -7.2264    1.5517    5.1647 S   0  0  0  0  0  0  0  0  0  0  0  0
   -7.5578    3.0915    4.2630 C   0  0  0  0  0  0  0  0  0  0  0  0
   -5.2249   -0.2412    4.9609 C   0  0  0  0  0  0  0  0  0  0  0  0
   -4.0561   -0.7805    4.4752 C   0  0  0  0  0  0  0  0  0  0  0  0
   -1.8539   -2.0269    2.9688 C   0  0  0  0  0  0  0  0  0  0  0  0
   -2.8747   -2.9668    2.8221 C   0  0  0  0  0  0  0  0  0  0  0  0
   -2.6101   -4.3226    2.8492 C   0  0  0  0  0  0  0  0  0  0  0  0
   -1.3076   -4.7757    2.9996 C   0  0  0  0  0  0  0  0  0  0  0  0
   -0.8432   -6.4810    3.0982 S   0  0  0  0  0  0  0  0  0  0  0  0
   -2.3777   -7.3741    2.7191 C   0  0  0  0  0  0  0  0  0  0  0  0
   -0.2767   -3.8465    3.0825 C   0  0  0  0  0  0  0  0  0  0  0  0
   -0.5414   -2.4962    3.0616 C   0  0  0  0  0  0  0  0  0  0  0  0
   -1.0663    0.7198    1.2115 C   0  0  0  0  0  0  0  0  0  0  0  0
   -2.0351    0.5184   -0.2036 S   0  0  0  0  0  0  0  0  0  0  0  0
    0.2607    0.2149    4.6236 C   0  0  0  0  0  0  0  0  0  0  0  0
    1.5979   -0.0188    4.9782 C   0  0  0  0  0  0  0  0  0  0  0  0
    2.5459    0.4892    4.1526 O   0  0  0  0  0  0  0  0  0  0  0  0
    3.7281   -0.2574    3.8721 C   0  0  0  0  0  0  0  0  0  0  0  0
    4.1569    0.0711    2.4495 C   0  0  0  0  0  0  0  0  0  0  0  0
    1.9001   -0.7601    6.1401 C   0  0  0  0  0  0  0  0  0  0  0  0
    3.2085   -0.8153    6.4685 O   0  0  0  0  0  0  0  0  0  0  0  0
    3.6579   -1.3347    7.6998 C   0  0  0  0  0  0  0  0  0  0  0  0
    4.9909   -0.6736    8.0190 C   0  0  0  0  0  0  0  0  0  0  0  0
    0.8432   -1.2834    6.9053 C   0  0  0  0  0  0  0  0  0  0  0  0
   -0.4626   -0.8257    6.6601 C   0  0  0  0  0  0  0  0  0  0  0  0
   -0.7539   -0.0980    5.5403 C   0  0  0  0  0  0  0  0  0  0  0  0
    0.9707   -2.3673    7.8482 C   0  0  0  0  0  0  0  0  0  0  0  0
    1.5705   -3.5482    7.5494 C   0  0  0  0  0  0  0  0  0  0  0  0
    1.9919   -3.9544    6.1823 C   0  0  0  0  0  0  0  0  0  0  0  0
    2.2442   -3.2389    5.2357 O   0  0  0  0  0  0  0  0  0  0  0  0
    1.9970   -5.4289    6.2042 C   0  0  0  0  0  0  0  0  0  0  0  0
    2.1794   -6.2836    5.1186 C   0  0  0  0  0  0  0  0  0  0  0  0
    2.1122   -7.6181    5.4385 C   0  0  0  0  0  0  0  0  0  0  0  0
    1.8899   -8.0780    6.7441 C   0  0  0  0  0  0  0  0  0  0  0  0
    1.7153   -7.2495    7.8267 C   0  0  0  0  0  0  0  0  0  0  0  0
    1.7694   -5.8861    7.5205 C   0  0  0  0  0  0  0  0  0  0  0  0
    1.6107   -4.7310    8.3916 C   0  0  0  0  0  0  0  0  0  0  0  0
    1.5994   -4.7205    9.7597 C   0  0  0  0  0  0  0  0  0  0  0  0
    1.5878   -3.5280   10.5142 C   0  0  0  0  0  0  0  0  0  0  0  0
    1.6185   -2.5829   11.1651 N   0  0  0  0  0  0  0  0  0  0  0  0
    1.6688   -5.8734   10.5678 C   0  0  0  0  0  0  0  0  0  0  0  0
    1.7171   -6.7783   11.2723 N   0  0  0  0  0  0  0  0  0  0  0  0
    1.9375   -9.5270    6.3276 C   0  0  0  0  0  0  0  0  0  0  0  0
    0.5821  -10.2547    6.2099 C   0  0  0  0  0  0  0  0  0  0  0  0
    0.8876  -11.4531    5.3401 C   0  0  0  0  0  0  0  0  0  0  0  0
    1.0925  -11.0139    4.1047 C   0  0  0  0  0  0  0  0  0  0  0  0
    0.9301   -9.5114    4.1188 C   0  0  0  0  0  0  0  0  0  0  0  0
   -0.1554   -9.3738    5.1939 C   0  0  0  0  0  0  0  0  0  0  0  0
    2.1819   -9.0134    4.8724 C   0  0  0  0  0  0  0  0  0  0  0  0
   -2.2631    2.8043   -6.7847 H   0  0  0  0  0  0  0  0  0  0  0  0
    2.9780    6.1210   -5.8276 H   0  0  0  0  0  0  0  0  0  0  0  0
    0.6454    5.8375  -10.3135 H   0  0  0  0  0  0  0  0  0  0  0  0
    3.1040    8.2253  -10.3844 H   0  0  0  0  0  0  0  0  0  0  0  0
    3.9613    6.0635  -11.6811 H   0  0  0  0  0  0  0  0  0  0  0  0
    5.8157    7.9166  -11.8576 H   0  0  0  0  0  0  0  0  0  0  0  0
    7.0781    8.0479   -9.5238 H   0  0  0  0  0  0  0  0  0  0  0  0
    5.9993    6.2777   -7.9096 H   0  0  0  0  0  0  0  0  0  0  0  0
    5.7831    4.8961  -10.1559 H   0  0  0  0  0  0  0  0  0  0  0  0
    4.2178    4.8301   -9.3132 H   0  0  0  0  0  0  0  0  0  0  0  0
    4.3558    8.3701   -8.1059 H   0  0  0  0  0  0  0  0  0  0  0  0
   -5.0385    0.5706   -3.9974 H   0  0  0  0  0  0  0  0  0  0  0  0
   -6.3687   -0.5153   -5.9434 H   0  0  0  0  0  0  0  0  0  0  0  0
   -6.1643   -0.9957   -8.4709 H   0  0  0  0  0  0  0  0  0  0  0  0
   -5.0531    0.1140   -9.2882 H   0  0  0  0  0  0  0  0  0  0  0  0
   -4.6032   -2.2302   -9.9690 H   0  0  0  0  0  0  0  0  0  0  0  0
   -3.2204   -1.5603   -9.0976 H   0  0  0  0  0  0  0  0  0  0  0  0
   -4.3176   -2.6800   -8.2842 H   0  0  0  0  0  0  0  0  0  0  0  0
   -2.8625    0.3158   -2.7322 H   0  0  0  0  0  0  0  0  0  0  0  0
    1.2776    0.2830   -2.2028 H   0  0  0  0  0  0  0  0  0  0  0  0
    2.2602   -0.0688   -4.4271 H   0  0  0  0  0  0  0  0  0  0  0  0
    3.9098    3.8961   -6.7356 H   0  0  0  0  0  0  0  0  0  0  0  0
    5.3732    3.2370   -5.9311 H   0  0  0  0  0  0  0  0  0  0  0  0
    5.0235    2.8329   -7.6254 H   0  0  0  0  0  0  0  0  0  0  0  0
    3.7453    3.9419   -4.4012 H   0  0  0  0  0  0  0  0  0  0  0  0
    2.7308    4.3061   -2.2249 H   0  0  0  0  0  0  0  0  0  0  0  0
    0.1677    4.4053    0.6994 H   0  0  0  0  0  0  0  0  0  0  0  0
    1.2573    5.8121    2.3674 H   0  0  0  0  0  0  0  0  0  0  0  0
    3.3529    7.2920    4.9617 H   0  0  0  0  0  0  0  0  0  0  0  0
    2.1506    6.0466    4.5550 H   0  0  0  0  0  0  0  0  0  0  0  0
    2.3110    7.5196    3.5418 H   0  0  0  0  0  0  0  0  0  0  0  0
    5.0303    4.0540    1.3811 H   0  0  0  0  0  0  0  0  0  0  0  0
    3.9216    2.6292   -0.3007 H   0  0  0  0  0  0  0  0  0  0  0  0
   -3.2837    1.6176    2.2222 H   0  0  0  0  0  0  0  0  0  0  0  0
   -5.3321    2.5706    3.0808 H   0  0  0  0  0  0  0  0  0  0  0  0
   -6.7684    3.8128    4.4543 H   0  0  0  0  0  0  0  0  0  0  0  0
   -8.4989    3.4630    4.6563 H   0  0  0  0  0  0  0  0  0  0  0  0
   -7.6572    2.8859    3.2011 H   0  0  0  0  0  0  0  0  0  0  0  0
   -5.7710   -0.7446    5.7442 H   0  0  0  0  0  0  0  0  0  0  0  0
   -3.6777   -1.7006    4.8941 H   0  0  0  0  0  0  0  0  0  0  0  0
   -3.8917   -2.6338    2.6801 H   0  0  0  0  0  0  0  0  0  0  0  0
   -3.4336   -5.0113    2.7456 H   0  0  0  0  0  0  0  0  0  0  0  0
   -2.7570   -7.0581    1.7518 H   0  0  0  0  0  0  0  0  0  0  0  0
   -2.1067   -8.4246    2.6855 H   0  0  0  0  0  0  0  0  0  0  0  0
   -3.1105   -7.2082    3.5036 H   0  0  0  0  0  0  0  0  0  0  0  0
    0.7420   -4.1867    3.1778 H   0  0  0  0  0  0  0  0  0  0  0  0
    0.2869   -1.8125    3.1295 H   0  0  0  0  0  0  0  0  0  0  0  0
    3.5285   -1.3271    3.9830 H   0  0  0  0  0  0  0  0  0  0  0  0
    4.5119    0.0335    4.5797 H   0  0  0  0  0  0  0  0  0  0  0  0
    5.1047   -0.4135    2.2327 H   0  0  0  0  0  0  0  0  0  0  0  0
    3.4114   -0.2739    1.7376 H   0  0  0  0  0  0  0  0  0  0  0  0
    4.2681    1.1466    2.3374 H   0  0  0  0  0  0  0  0  0  0  0  0
    2.9272   -1.1317    8.4946 H   0  0  0  0  0  0  0  0  0  0  0  0
    3.7861   -2.4241    7.6236 H   0  0  0  0  0  0  0  0  0  0  0  0
    5.3645   -1.0465    8.9680 H   0  0  0  0  0  0  0  0  0  0  0  0
    4.8669    0.4041    8.0838 H   0  0  0  0  0  0  0  0  0  0  0  0
    5.7135   -0.8953    7.2383 H   0  0  0  0  0  0  0  0  0  0  0  0
   -1.2524   -1.1357    7.3273 H   0  0  0  0  0  0  0  0  0  0  0  0
   -1.7664    0.2120    5.3451 H   0  0  0  0  0  0  0  0  0  0  0  0
    0.3915   -2.2891    8.7615 H   0  0  0  0  0  0  0  0  0  0  0  0
    2.3547   -5.9004    4.1263 H   0  0  0  0  0  0  0  0  0  0  0  0
    1.5405   -7.6094    8.8275 H   0  0  0  0  0  0  0  0  0  0  0  0
    2.7066  -10.1319    6.8040 H   0  0  0  0  0  0  0  0  0  0  0  0
    0.0874  -10.4518    7.1572 H   0  0  0  0  0  0  0  0  0  0  0  0
    0.9747  -12.4573    5.7118 H   0  0  0  0  0  0  0  0  0  0  0  0
    1.3857  -11.5785    3.2390 H   0  0  0  0  0  0  0  0  0  0  0  0
    0.7532   -9.0210    3.1661 H   0  0  0  0  0  0  0  0  0  0  0  0
   -0.3205   -8.3501    5.5224 H   0  0  0  0  0  0  0  0  0  0  0  0
   -1.1013   -9.8141    4.8823 H   0  0  0  0  0  0  0  0  0  0  0  0
    3.1119   -9.2799    4.3740 H   0  0  0  0  0  0  0  0  0  0  0  0
  1  2  2  0  0  0  0
  2  3  1  0  0  0  0
  3  4  2  0  0  0  0
  3  5  1  0  0  0  0
  5  6  2  0  0  0  0
  6  7  1  0  0  0  0
  7  8  2  0  0  0  0
  8  9  1  0  0  0  0
  9 10  2  0  0  0  0
 10 11  1  0  0  0  0
 11 12  2  0  0  0  0
 12 13  1  0  0  0  0
 13 14  3  0  0  0  0
 12 15  1  0  0  0  0
 15 16  3  0  0  0  0
  8 17  1  0  0  0  0
 17 18  1  0  0  0  0
 18 19  1  0  0  0  0
 19 20  2  0  0  0  0
 20 21  1  0  0  0  0
 21 22  1  0  0  0  0
 21 23  1  0  0  0  0
  1 24  1  0  0  0  0
 24 25  2  0  0  0  0
 25 26  1  0  0  0  0
 26 27  2  0  0  0  0
 27 28  1  0  0  0  0
 28 29  2  0  0  0  0
 29 30  1  0  0  0  0
 30 31  1  0  0  0  0
 29 32  1  0  0  0  0
 25 33  1  0  0  0  0
 33 34  2  0  0  0  0
 34 35  1  0  0  0  0
 34 36  1  0  0  0  0
 36 37  2  0  0  0  0
 37 38  1  0  0  0  0
 38 39  1  0  0  0  0
 39 40  2  0  0  0  0
 40 41  1  0  0  0  0
 41 42  2  0  0  0  0
 42 43  1  0  0  0  0
 43 44  1  0  0  0  0
 42 45  1  0  0  0  0
 45 46  2  0  0  0  0
 38 47  1  0  0  0  0
 47 48  2  0  0  0  0
 48 49  1  0  0  0  0
 49 50  2  0  0  0  0
 50 51  1  0  0  0  0
 51 52  1  0  0  0  0
 50 53  1  0  0  0  0
 53 54  2  0  0  0  0
 37 55  1  0  0  0  0
 55 56  1  0  0  0  0
 56 57  1  0  0  0  0
 57 58  2  0  0  0  0
 58 59  1  0  0  0  0
 59 60  1  0  0  0  0
 60 61  2  0  0  0  0
 61 62  1  0  0  0  0
 62 63  2  0  0  0  0
 63 64  1  0  0  0  0
 64 65  1  0  0  0  0
 63 66  1  0  0  0  0
 66 67  2  0  0  0  0
 59 68  1  0  0  0  0
 68 69  2  0  0  0  0
 69 70  1  0  0  0  0
 70 71  2  0  0  0  0
 71 72  1  0  0  0  0
 72 73  1  0  0  0  0
 71 74  1  0  0  0  0
 74 75  2  0  0  0  0
 58 76  1  0  0  0  0
 76 77  1  0  0  0  0
 57 78  1  0  0  0  0
 78 79  2  0  0  0  0
 79 80  1  0  0  0  0
 80 81  1  0  0  0  0
 81 82  1  0  0  0  0
 79 83  1  0  0  0  0
 83 84  1  0  0  0  0
 84 85  1  0  0  0  0
 85 86  1  0  0  0  0
 83 87  2  0  0  0  0
 87 88  1  0  0  0  0
 88 89  2  0  0  0  0
 87 90  1  0  0  0  0
 90 91  2  0  0  0  0
 91 92  1  0  0  0  0
 92 93  2  0  0  0  0
 92 94  1  0  0  0  0
 94 95  2  0  0  0  0
 95 96  1  0  0  0  0
 96 97  2  0  0  0  0
 97 98  1  0  0  0  0
 98 99  2  0  0  0  0
 99100  1  0  0  0  0
100101  2  0  0  0  0
101102  1  0  0  0  0
102103  3  0  0  0  0
101104  1  0  0  0  0
104105  3  0  0  0  0
 97106  1  0  0  0  0
106107  1  0  0  0  0
107108  1  0  0  0  0
108109  2  0  0  0  0
109110  1  0  0  0  0
110111  1  0  0  0  0
110112  1  0  0  0  0
 11  2  1  0  0  0  0
 23 17  1  0  0  0  0
 35 24  1  0  0  0  0
 77 36  1  0  0  0  0
 89 78  1  0  0  0  0
100 91  1  0  0  0  0
112106  1  0  0  0  0
 10  5  1  0  0  0  0
 22 18  1  0  0  0  0
 32 26  1  0  0  0  0
 46 39  1  0  0  0  0
 54 47  1  0  0  0  0
 76 55  2  0  0  0  0
 99 94  1  0  0  0  0
111107  1  0  0  0  0
 23  7  1  0  0  0  0
 67 60  1  0  0  0  0
 75 68  1  0  0  0  0
112 96  1  0  0  0  0
  1113  1  0  0  0  0
  6114  1  0  0  0  0
  9115  1  0  0  0  0
 17116  1  0  0  0  0
 18117  1  0  0  0  0
 19118  1  0  0  0  0
 20119  1  0  0  0  0
 21120  1  0  0  0  0
 22121  1  0  0  0  0
 22122  1  0  0  0  0
 23123  1  0  0  0  0
 27124  1  0  0  0  0
 28125  1  0  0  0  0
 30126  1  0  0  0  0
 30127  1  0  0  0  0
 31128  1  0  0  0  0
 31129  1  0  0  0  0
 31130  1  0  0  0  0
 33131  1  0  0  0  0
 40132  1  0  0  0  0
 41133  1  0  0  0  0
 44134  1  0  0  0  0
 44135  1  0  0  0  0
 44136  1  0  0  0  0
 45137  1  0  0  0  0
 46138  1  0  0  0  0
 48139  1  0  0  0  0
 49140  1  0  0  0  0
 52141  1  0  0  0  0
 52142  1  0  0  0  0
 52143  1  0  0  0  0
 53144  1  0  0  0  0
 54145  1  0  0  0  0
 61146  1  0  0  0  0
 62147  1  0  0  0  0
 65148  1  0  0  0  0
 65149  1  0  0  0  0
 65150  1  0  0  0  0
 66151  1  0  0  0  0
 67152  1  0  0  0  0
 69153  1  0  0  0  0
 70154  1  0  0  0  0
 73155  1  0  0  0  0
 73156  1  0  0  0  0
 73157  1  0  0  0  0
 74158  1  0  0  0  0
 75159  1  0  0  0  0
 81160  1  0  0  0  0
 81161  1  0  0  0  0
 82162  1  0  0  0  0
 82163  1  0  0  0  0
 82164  1  0  0  0  0
 85165  1  0  0  0  0
 85166  1  0  0  0  0
 86167  1  0  0  0  0
 86168  1  0  0  0  0
 86169  1  0  0  0  0
 88170  1  0  0  0  0
 89171  1  0  0  0  0
 90172  1  0  0  0  0
 95173  1  0  0  0  0
 98174  1  0  0  0  0
106175  1  0  0  0  0
107176  1  0  0  0  0
108177  1  0  0  0  0
109178  1  0  0  0  0
110179  1  0  0  0  0
111180  1  0  0  0  0
111181  1  0  0  0  0
112182  1  0  0  0  0
M  END
