169

C          8.81980        2.46070        2.99260
C          8.73550        3.33520        4.01440
C          7.45380        3.73510        4.67430
O          6.33090        3.44930        4.32780
C          7.83850        4.63550        5.77260
C          6.98280        5.21930        6.70480
C          7.61510        6.02960        7.61520
C          9.00120        6.24630        7.60090
C          9.85620        5.67860        6.68860
C          9.23250        4.85070        5.74740
C          9.81060        4.10000        4.63970
C         11.12370        4.11520        4.25940
C         11.66660        3.39880        3.17040
N         12.18470        2.85790        2.30040
C         12.13280        4.87690        4.88870
N         13.00330        5.47070        5.34360
C          8.94740        7.17580        8.78690
C          9.05200        8.69680        8.51370
C          8.53470        8.91870        7.11390
C          7.22460        8.71260        7.12870
C          6.83200        8.34760        8.53920
C          7.84600        9.19030        9.32910
C          7.40520        6.93300        8.80380
C          7.70200        1.65970        2.51830
C          6.91720        0.89970        3.38870
F          7.25020        0.83900        4.69210
C          5.84140        0.16090        2.95260
C          5.51130        0.16060        1.59860
C          6.30000        0.88850        0.70830
C          7.38390        1.60950        1.16100
C          4.31930       -0.54740        1.13500
C          4.23630       -1.30140       -0.01490
C          5.31990       -1.75560       -0.92540
O          6.50430       -1.53240       -0.87850
N          4.70940       -2.56920       -1.86350
C          5.42410       -3.24600       -2.92640
C          6.09010       -2.25030       -3.86580
C          3.35050       -2.73180       -1.64460
O          2.63180       -3.47310       -2.26810
C          3.03050       -1.89130       -0.47590
C          1.82270       -1.75290        0.16600
C          1.87820       -1.03810        1.39400
C          3.10460       -0.45170        1.87220
N          2.92300        0.18890        3.02380
S          1.38340        0.07410        3.45830
N          0.85550       -0.79450        2.20970
C          0.52410       -2.18880       -0.30630
C         -0.21240       -1.64110       -1.33620
N          0.23980       -0.65100       -2.21320
C         -0.42940        0.57400       -2.16370
C         -0.66480        1.32460       -3.31270
C         -1.34960        2.52140       -3.24610
C         -1.82620        2.98630       -2.02810
S         -2.71880        4.49720       -1.82350
C         -3.08140        5.01960       -3.52400
C         -1.59170        2.24130       -0.87480
C         -0.89960        1.05330       -0.93820
C          1.10450       -0.97880       -3.26250
C          2.07590       -0.07290       -3.67860
C          2.91960       -0.37790       -4.72930
C          2.80530       -1.60120       -5.37790
S          3.82760       -2.10200       -6.73140
C          4.66450       -0.57000       -7.23610
C          1.84900       -2.51790       -4.95000
C          1.00730       -2.21390       -3.90310
C         -1.56290       -2.06650       -1.28530
S         -2.95020       -1.71930       -2.25090
C         -3.94260       -2.72260       -1.18770
C         -3.17210       -3.35980       -0.18330
N         -3.64420       -4.22670        0.76870
C         -4.60750       -5.20960        0.49390
C         -4.67240       -5.80990       -0.76140
C         -5.62360       -6.77260       -1.03210
C         -6.51840       -7.16440       -0.04350
S         -7.77650       -8.37880       -0.26830
C         -7.58040       -8.90660       -1.99480
C         -6.43940       -6.58190        1.22010
C         -5.50000       -5.61210        1.48820
C         -3.02590       -4.19320        2.03310
C         -2.75840       -2.96450        2.63090
C         -2.08140       -2.89690        3.83130
C         -1.66630       -4.06510        4.45650
S         -0.75310       -4.09510        5.96430
C         -0.18910       -2.37780        6.14670
C         -1.97760       -5.29850        3.88590
C         -2.64880       -5.36550        2.68570
C         -1.82970       -2.94180       -0.24360
S         -0.40950       -3.26540        0.69760
C         -5.33690       -2.77170       -1.20920
C         -6.23780       -2.19030       -2.06980
C         -5.91580       -1.48200       -3.31010
O         -4.80980       -1.21600       -3.75140
C         -7.20400       -1.16650       -3.95190
C         -7.39890       -0.50240       -5.16060
C         -8.72000       -0.34620       -5.50570
C         -9.76970       -0.82230       -4.71000
C         -9.59070       -1.48290       -3.51720
C         -8.25380       -1.64640       -3.14330
C         -7.67560       -2.26010       -1.94720
C         -8.39160       -2.76080       -0.88640
C         -7.84240       -3.21950        0.32650
N         -7.47940       -3.57250        1.35900
C         -9.79790       -2.84360       -0.84150
N        -10.93690       -2.95320       -0.74060
C        -10.82660       -0.31100       -5.65740
C        -11.55550        0.98420       -5.24140
C        -12.15370        1.49300       -6.53300
C        -11.16000        1.94420       -7.28770
C         -9.87340        1.74830       -6.51850
C        -10.38540        1.96460       -5.08850
C         -9.65570        0.22050       -6.54490
H          9.75320        2.32010        2.46320
H          5.92260        5.02180        6.67920
H         10.91890        5.85400        6.69420
H          9.52230        6.87030        9.65870
H         10.02210        9.13000        8.74090
H          9.16360        9.14020        6.27160
H          6.53970        8.72720        6.30120
H          5.78090        8.46310        8.79040
H          7.67630       10.26070        9.22360
H          7.89930        8.92840       10.38490
H          6.97140        6.46750        9.68650
H          5.26730       -0.40720        3.66580
H          6.05110        0.90140       -0.34020
H          7.98130        2.17930        0.46560
H          4.68240       -3.84790       -3.45710
H          6.17740       -3.90330       -2.48160
H          6.87800       -1.71130       -3.34620
H          5.35340       -1.53850       -4.22810
H          6.51810       -2.77840       -4.71300
H         -0.32250        0.95930       -4.26900
H         -1.51540        3.07400       -4.15680
H         -3.72940        5.88570       -3.43210
H         -3.59980        4.22230       -4.04850
H         -2.16490        5.30000       -4.03530
H         -1.95850        2.60920        0.07140
H         -0.72020        0.48700       -0.03570
H          2.16650        0.87870       -3.17450
H          3.66170        0.34620       -5.02820
H          5.39020       -0.26680       -6.48660
H          5.17710       -0.80960       -8.16230
H          3.92850        0.20890       -7.41160
H          1.77250       -3.47000       -5.45090
H          0.26240       -2.92500       -3.58370
H         -3.97460       -5.51800       -1.53230
H         -5.64830       -7.21450       -2.01510
H         -7.74380       -8.06610       -2.66300
H         -6.59770       -9.34510       -2.14160
H         -8.34620       -9.65880       -2.15660
H         -7.13710       -6.88670        1.98380
H         -5.46010       -5.15260        2.46250
H         -3.08000       -2.05460        2.14630
H         -1.88720       -1.92990        4.26490
H         -1.02150       -1.73200        6.41070
H          0.53520       -2.39020        6.95520
H          0.28560       -2.05260        5.22520
H         -1.66710       -6.20180        4.38770
H         -2.86580       -6.32260        2.23630
H         -5.76350       -3.34880       -0.39890
H         -6.55960       -0.15650       -5.74360
H        -10.41020       -1.84690       -2.92070
H        -11.49640       -1.06150       -6.07280
H        -12.23150        0.87500       -4.39780
H        -13.19680        1.42310       -6.77960
H        -11.20720        2.32630       -8.29070
H         -9.01750        2.33650       -6.83900
H        -10.72350        2.98610       -4.92250
H         -9.67200        1.68700       -4.31480
H         -9.54450       -0.17640       -7.55230
