173

C         -5.79020        4.77360       -2.83930
C         -6.51060        3.61550       -2.89250
C         -6.36070        2.53440       -1.87870
O         -5.63690        2.53000       -0.90430
C         -7.38870        1.53650       -2.20160
C         -7.61390        0.33710       -1.53090
C         -8.62530       -0.41790       -2.07080
C         -9.36210       -0.01000       -3.19170
C         -9.16840        1.18570       -3.84320
C         -8.14160        1.97240       -3.31130
C         -7.63760        3.27690       -3.73530
C         -8.10320        4.01680       -4.79220
C         -7.55280        5.24710       -5.20600
N         -7.14620        6.24370       -5.60660
C         -9.18690        3.64680       -5.61360
N        -10.06130        3.40790       -6.31890
C        -10.17560       -1.28040       -3.21450
C         -9.78890       -2.35790       -4.25980
C         -8.32140       -2.16750       -4.55220
C         -7.64120       -2.54620       -3.47830
C         -8.63680       -2.99990       -2.44010
C         -9.72500       -3.59380       -3.34800
C         -9.36650       -1.72420       -1.95510
C         -4.54780        4.82550       -2.14620
C         -4.07150        5.74580       -1.23790
C         -2.87860        5.35690       -0.61520
C         -2.38490        6.05220        0.58920
C         -1.70370        7.26600        0.49250
C         -1.42470        7.97770        1.64780
C         -1.81400        7.50940        2.89560
C         -1.59740        8.33600        4.12590
C         -2.44220        6.27580        2.97410
C         -2.73740        5.53630        1.83970
C         -3.42420        4.20940        1.96870
C         -1.29980        7.78800       -0.85360
C         -2.38520        4.16180       -1.12390
S         -3.43400        3.50490       -2.33250
C         -1.27570        3.39680       -0.68210
C         -1.11490        2.03270       -0.88600
N         -1.87200        1.27760       -1.79350
C         -1.53460        1.36190       -3.14910
C         -2.48040        1.08900       -4.13710
C         -2.15860        1.18620       -5.47540
C         -0.88220        1.57590       -5.85950
S         -0.34710        1.73060       -7.53530
C         -1.81890        1.30820       -8.50970
C          0.06040        1.87210       -4.87860
C         -0.25840        1.76640       -3.54300
C         -2.74710        0.30310       -1.29970
C         -3.48160        0.56060       -0.14240
C         -4.39510       -0.35980        0.31970
C         -4.59600       -1.55850       -0.35970
S         -5.85760       -2.63760        0.25430
C         -5.39160       -4.25580       -0.42990
C         -3.83840       -1.83720       -1.48830
C         -2.91300       -0.91980       -1.94470
C         -0.05610        1.52460       -0.11010
S          0.59170       -0.05620        0.10680
C          1.84330        0.58870        1.16050
C          1.80270        1.98200        1.25690
N          2.79460        2.76640        1.78700
C          2.56550        4.11520        2.10750
C          3.48760        5.07160        1.69060
C          3.30810        6.40510        1.99250
C          2.19660        6.80590        2.72200
S          1.87930        8.48310        3.16120
C          3.33500        9.38700        2.56060
C          1.27420        5.85270        3.14780
C          1.45490        4.51950        2.84660
C          4.11790        2.30040        1.89820
C          4.72000        1.57130        0.87680
C          5.98000        1.03260        1.04690
C          6.66400        1.23210        2.23920
S          8.22420        0.49690        2.61090
C          8.33140       -0.88540        1.43910
C          6.10710        2.05290        3.21870
C          4.84950        2.58430        3.05050
C          0.66390        2.49240        0.57900
S         -0.03450        4.06770        0.35480
C          2.75250       -0.32700        1.78340
C          3.06160       -1.56470        1.19420
C          4.06790       -2.32450        1.73280
C          4.73130       -1.88490        2.89130
C          4.26590       -0.68500        3.45520
N          3.33180        0.06010        2.92810
C          5.87870       -2.54430        3.43750
C          6.26320       -3.84120        3.32840
C          7.69240       -4.19900        3.55260
O          8.54960       -3.48750        4.02630
C          7.84990       -5.55520        2.99670
C          9.03400       -6.27740        2.86320
C          8.87580       -7.50880        2.27510
C          7.63180       -7.98960        1.84290
C          6.45420       -7.29340        1.97660
C          6.59260       -6.04030        2.57910
C          5.57480       -5.04690        2.91380
C          4.23440       -5.29800        3.04890
C          3.61880       -6.52170        2.71790
N          3.06070       -7.48720        2.44430
C          3.32190       -4.38170        3.61210
N          2.54680       -3.69380        4.10500
C          8.22020       -9.27790        1.32580
C          8.42470       -9.41610       -0.20340
C          8.59750       -8.01790       -0.74250
C          9.77420       -7.56670       -0.32900
C         10.41840       -8.65180        0.49770
C          9.88430       -9.89740       -0.22730
C          9.60480       -8.74530        1.81240
H         -6.15030        5.68010       -3.30870
H         -7.01690        0.05440       -0.67870
H         -9.75500        1.49340       -4.69290
H        -11.25330       -1.16500       -3.11950
H        -10.44760       -2.40500       -5.12290
H         -7.94400       -1.73330       -5.45970
H         -6.58210       -2.47920       -3.30830
H         -8.25140       -3.62490       -1.63950
H        -10.65970       -3.79730       -2.82760
H         -9.39520       -4.48850       -3.87440
H         -9.91030       -1.88340       -1.02670
H         -4.62270        6.62460       -0.95130
H         -0.90980        8.92460        1.57730
H         -1.62910        7.72060        5.02190
H         -2.38390        9.08720        4.20470
H         -0.64260        8.85360        4.08390
H         -2.73140        5.88880        3.94150
H         -3.88840        4.11340        2.94710
H         -2.69650        3.40300        1.86200
H         -4.18730        4.07340        1.20440
H         -0.77810        7.01740       -1.41980
H         -2.17720        8.08430       -1.42840
H         -0.64760        8.65130       -0.75100
H         -3.48290        0.80980       -3.84950
H         -2.91830        0.96560       -6.20790
H         -1.51650        1.40090       -9.54820
H         -2.62060        2.00890       -8.29540
H         -2.12060        0.28510       -8.30400
H          1.05020        2.18040       -5.17850
H          0.49050        1.99290       -2.79930
H         -3.35580        1.49730        0.37600
H         -4.97420       -0.14910        1.20560
H         -5.99500       -4.98650        0.09990
H         -4.33840       -4.43760       -0.23960
H         -5.61280       -4.30020       -1.49280
H         -3.95620       -2.76760       -2.02160
H         -2.31710       -1.15360       -2.81420
H          4.35190        4.76370        1.12080
H          4.03870        7.11790        1.64680
H          3.39090        9.33010        1.47730
H          4.23430        8.99430        3.02590
H          3.18300       10.41760        2.86650
H          0.41640        6.16810        3.71880
H          0.74870        3.78400        3.20010
H          4.18900        1.40090       -0.04850
H          6.41800        0.45800        0.24600
H          8.63890       -0.53110        0.45910
H          7.37290       -1.39390        1.39100
H          9.08300       -1.55490        1.84640
H          6.66440        2.23840        4.12390
H          4.40320        3.18540        3.82730
H          2.55240       -1.87350        0.29390
H          4.39460       -3.22530        1.23200
H          4.67980       -0.32620        4.38830
H          6.59590       -1.89830        3.93730
H          9.97240       -5.87130        3.20730
H          5.50330       -7.67090        1.63770
H          7.83700      -10.19100        1.77660
H          7.68460      -10.03520       -0.70330
H          7.84540       -7.49550       -1.30440
H         10.20140       -6.59190       -0.47600
H         11.49360       -8.57530        0.63610
H         10.27820       -9.99800       -1.23750
H         10.04510      -10.82260        0.32420
H         10.12490       -9.30960        2.58370
