252

C         -3.78670       -2.30050        9.58540
C         -4.90960       -1.54100        9.62500
C         -5.44970       -1.09900       10.94400
O         -5.15080       -1.54220       12.02860
C         -6.36510        0.01450       10.63650
C         -7.02240        0.84170       11.54610
C         -7.79510        1.81580       10.96110
C         -7.89760        1.97160        9.57120
C         -7.25810        1.16420        8.66170
C         -6.48110        0.15400        9.23670
C         -5.71440       -0.91050        8.59550
C         -5.92130       -1.37080        7.32230
C         -5.37170       -2.56300        6.80580
N         -5.00480       -3.54390        6.33580
C         -6.77480       -0.75680        6.38260
N         -7.42910       -0.29230        5.56170
C         -8.83390        3.14730        9.69130
C        -10.32670        2.86490        9.41820
C        -11.03920        4.03060       10.06480
C        -10.94690        3.88070       11.38000
C        -10.17040        2.61070       11.64450
C        -10.62870        1.76780       10.44730
C         -8.72470        2.97050       11.24000
C         -2.93110       -2.54170        8.47710
C         -2.75120       -1.77920        7.35430
C         -1.83950       -2.32980        6.43020
C         -1.51640       -1.84190        5.14640
C         -1.92950       -0.53460        4.69440
C         -2.01330        0.62170        5.42070
C         -2.36830        1.75120        4.65480
Cl        -2.53000        3.28870        5.41960
C         -2.55140        1.47910        3.32240
S         -2.91970        2.42710        1.90560
C         -2.38090        4.13740        2.29270
C         -3.54080        5.02460        2.69520
S         -2.31510       -0.21850        3.02220
C         -0.74490       -2.68640        4.35360
C         -0.22180       -3.92580        4.79220
C         -0.49290       -4.37820        6.09750
C          0.05490       -5.61920        6.59720
S          0.66820       -5.70660        8.22670
C          1.14230       -7.35900        8.01930
S          1.94580       -8.31870        9.22950
C          2.19830       -7.10430       10.56920
C          0.95060       -6.89300       11.40360
C          0.81670       -7.79620        6.76020
C          0.20660       -6.81710        5.95620
Cl         1.14480       -9.39870        6.22400
C         -1.31190       -3.56570        6.87890
S         -1.90350       -3.96000        8.46540
C          0.58850       -4.54510        3.79660
C          0.67650       -3.83150        2.65310
S         -0.24430       -2.33050        2.73250
C          1.36980       -3.99560        1.39180
C          2.56520       -3.37720        1.08280
N          3.44310       -2.89660        2.04220
C          3.99530       -1.62330        1.87220
C          3.28720       -0.64010        1.17960
C          3.87210        0.57720        0.90060
C          5.16280        0.83920        1.33120
S          5.94160        2.38480        0.91880
C          5.88800        2.25780       -0.89600
C          5.84570       -0.10270        2.08860
C          5.27060       -1.32930        2.35300
C          3.60540       -3.61260        3.23830
C          3.77800       -4.99290        3.20560
C          3.91850       -5.71530        4.37460
C          3.89530       -5.06260        5.59970
S          4.08460       -5.87560        7.15360
C          4.50690       -7.58370        6.71490
C          3.71920       -3.68050        5.63630
C          3.57790       -2.96140        4.47080
C          2.68890       -3.17410       -0.31530
S          3.72050       -2.19430       -1.30340
C          2.51060       -2.15880       -2.58350
C          1.46580       -3.02010       -2.32630
N          0.28450       -3.11730       -3.09310
C          0.11000       -4.24830       -3.89210
C          1.01340       -5.31040       -3.85320
C          0.83740       -6.40640       -4.66780
C         -0.23830       -6.46600       -5.54700
S         -0.34760       -7.89960       -6.58250
C         -2.05710       -7.86000       -7.18950
C         -1.13140       -5.40600       -5.60530
C         -0.95940       -4.31040       -4.78370
C         -0.81350       -2.51310       -2.43380
C         -1.95340       -3.22670       -2.07610
C         -2.95640       -2.62860       -1.33810
C         -2.83410       -1.30600       -0.93350
S         -4.04750       -0.45830        0.03000
C         -4.89180       -1.80700        0.90410
C         -1.70730       -0.58110       -1.30990
C         -0.70820       -1.17640       -2.04780
C          1.57870       -3.58830       -1.03470
S          0.42490       -4.39400       -0.03080
C          2.50400       -1.00730       -3.43440
C          2.00670       -0.78260       -4.70690
N          1.64750       -1.72470       -5.64830
C          2.31010       -2.93070       -5.86670
C          1.73140       -3.88550       -6.70240
C          2.35510       -5.09000       -6.95190
C          3.57130       -5.38160       -6.35150
S          4.43000       -6.91090       -6.54690
C          3.36830       -7.87110       -7.66150
C          4.16630       -4.42590       -5.53260
C          3.55430       -3.21380       -5.30160
C          0.63030       -1.30350       -6.54030
C          0.87490       -1.18720       -7.90410
C         -0.08880       -0.66070       -8.73890
C         -1.30330       -0.23540       -8.21570
S         -2.54050        0.52830       -9.21820
C         -1.51660        1.39400      -10.44650
C         -1.56960       -0.39840       -6.86040
C         -0.60770       -0.92710       -6.02620
C          1.87340        0.61390       -4.95620
S          1.36040        1.53870       -6.32290
C          1.57010        3.03380       -5.41380
C          2.09720        2.79900       -4.12070
N          2.40620        3.76580       -3.18820
C          2.96210        4.99150       -3.60090
C          2.57020        6.19220       -3.01580
C          3.04390        7.39490       -3.50360
C          3.90190        7.41630       -4.59430
S          4.47490        8.89650       -5.36240
C          3.32970       10.16360       -4.74840
C          4.35110        6.21120       -5.13580
C          3.89680        5.01220       -4.63860
C          2.11920        3.55210       -1.83140
C          1.00190        2.80830       -1.44780
C          0.69470        2.64230       -0.11240
C          1.50020        3.21270        0.86430
S          1.09670        3.09850        2.59180
C          0.88540        1.30660        2.81120
C          2.61460        3.95530        0.49070
C          2.92570        4.11860       -0.84330
C          2.26180        1.42320       -3.89680
S          2.88700        0.49360       -2.57870
C          1.18160        4.29260       -5.87680
C          0.79570        4.70910       -7.12800
C          0.76550        3.91060       -8.35520
O          0.86380        2.69780       -8.46280
C          0.59000        4.86580       -9.46460
C          0.54930        4.58190      -10.82740
C          0.38550        5.68830      -11.62640
C          0.26680        6.98480      -11.10980
C          0.30160        7.27940       -9.76710
C          0.47330        6.16850       -8.93840
C          0.53700        6.08600       -7.48150
C          0.35290        7.13710       -6.61680
C          0.25790        8.48920       -6.99930
N          0.21520        9.61800       -7.21000
C          0.20180        7.02420       -5.22220
N          0.02220        7.02850       -4.08640
C          0.14530        7.60550      -12.47860
C          1.39070        8.32220      -13.05660
C          2.59320        7.67910      -12.41150
C          2.70710        6.45180      -12.90110
C          1.58320        6.24250      -13.88580
C          1.44560        7.66710      -14.44590
C          0.27850        6.16050      -13.05480
H         -3.48350       -2.73510       10.53260
H         -6.90930        0.69620       12.60890
H         -7.33320        1.30020        7.59530
H         -8.48780        4.07830        9.24660
H        -10.56720        2.65780        8.37920
H        -11.47500        4.84570        9.51750
H        -11.29000        4.54540       12.15080
H        -10.27080        2.17300       12.63400
H        -10.05710        0.85300       10.30240
H        -11.68990        1.52960       10.49460
H         -8.30780        3.78430       11.83040
H         -3.26450       -0.84970        7.19030
H         -1.77550        0.69550        6.46650
H         -1.93230        4.48490        1.36180
H         -1.60680        4.07850        3.05290
H         -4.02160        4.65330        3.59650
H         -3.17880        6.03310        2.88480
H         -4.28180        5.06300        1.90000
H          3.00200       -7.53100       11.16890
H          2.54580       -6.18210       10.10380
H          1.16400       -6.18790       12.20380
H          0.14080       -6.49080       10.79940
H          0.62470       -7.83240       11.84390
H         -0.14560       -7.01710        4.96150
H          1.10630       -5.47320        3.94520
H          2.27360       -0.83250        0.85770
H          3.32150        1.32150        0.34710
H          6.36670        3.15200       -1.28150
H          6.43840        1.37420       -1.20530
H          4.85840        2.20440       -1.23610
H          6.83850        0.12240        2.44610
H          5.81350       -2.07590        2.91310
H          3.79800       -5.50420        2.25450
H          4.04860       -6.78390        4.31550
H          3.67330       -8.05940        6.20750
H          5.40480       -7.59380        6.10430
H          4.69200       -8.08940        7.65740
H          3.69240       -3.18070        6.59250
H          3.43850       -1.89110        4.50570
H          1.85940       -5.27960       -3.18410
H          1.53340       -7.23010       -4.62350
H         -2.22230       -8.81910       -7.67050
H         -2.73600       -7.74210       -6.35030
H         -2.18260       -7.05980       -7.91350
H         -1.96250       -5.41420       -6.29270
H         -1.65650       -3.48790       -4.84100
H         -2.04430       -4.26520       -2.35780
H         -3.82370       -3.20980       -1.06850
H         -5.46920       -1.33210        1.69120
H         -4.15110       -2.47230        1.33710
H         -5.55860       -2.33920        0.23200
H         -1.62660        0.45150       -1.00780
H          0.17220       -0.61120       -2.31230
H          0.77250       -3.68950       -7.15580
H          1.87250       -5.79680       -7.60630
H          3.29210       -7.36970       -8.62190
H          3.86640       -8.82780       -7.78460
H          2.38910       -8.01890       -7.21440
H          5.12310       -4.64240       -5.08220
H          4.05850       -2.48110       -4.69200
H          1.83150       -1.49100       -8.30210
H          0.12090       -0.56500       -9.79170
H         -2.12640        2.20420      -10.83480
H         -1.24100        0.72170      -11.25450
H         -0.64020        1.78620       -9.93870
H         -2.52440       -0.08500       -6.46690
H         -0.79460       -1.02110       -4.96630
H          1.86500        6.19020       -2.20000
H          2.70700        8.30790       -3.04190
H          2.30550        9.83770       -4.90450
H          3.52440       10.37360       -3.70070
H          3.52830       11.04920       -5.34380
H          5.05330        6.23290       -5.95490
H          4.23690        4.08250       -5.07040
H          0.35180        2.38960       -2.20180
H         -0.18990        2.08980        0.16710
H          0.18050        0.91300        2.08670
H          1.85200        0.82190        2.71140
H          0.50110        1.16690        3.81670
H          3.24250        4.39110        1.25170
H          3.79820        4.68850       -1.12450
H          1.22890        5.06890       -5.12430
H          0.64580        3.57080      -11.19160
H          0.21030        8.28170       -9.38260
H         -0.77580        8.15030      -12.67570
H          1.34660        9.40720      -13.01520
H          3.18480        8.14750      -11.64680
H          3.41310        5.68980      -12.62690
H          1.71490        5.43420      -14.60050
H          2.31450        7.97790      -15.02400
H          0.54040        7.81720      -15.03270
H         -0.55550        5.76220      -13.62960
