181

C         -6.38210       -4.15460       -4.19890
C         -7.37170       -3.30760       -4.56570
C         -7.50350       -1.87990       -4.15450
O         -6.99590       -1.31940       -3.20800
C         -8.37850       -1.26320       -5.16790
C         -8.70110        0.08780       -5.27300
C         -9.53010        0.38490       -6.32640
C         -9.99850       -0.58770       -7.22170
C         -9.68670       -1.92220       -7.13270
C         -8.85200       -2.24810       -6.05840
C         -8.31580       -3.53850       -5.65150
C         -8.68030       -4.76130       -6.14500
C         -8.21080       -5.99670       -5.64780
N         -7.89340       -7.03720       -5.28060
C         -9.61420       -4.95420       -7.18460
N        -10.35800       -5.17680       -8.03030
C        -10.77910        0.41820       -8.03000
C        -12.31360        0.46870       -7.82780
C        -12.57820       -0.03470       -6.43040
C        -12.13890        0.88320       -5.57980
C        -11.56960        2.02400       -6.38650
C        -12.49760        1.97920       -7.61080
C        -10.26160        1.49990       -7.03000
C         -5.38810       -3.90890       -3.18280
C         -4.05550       -4.25710       -3.43620
F         -3.75770       -4.88220       -4.59790
C         -3.02520       -3.91220       -2.59790
C         -3.30790       -3.20100       -1.42650
C         -4.64500       -2.99260       -1.07710
C         -5.66190       -3.32600       -1.94130
C         -2.23880       -2.61380       -0.65310
C         -1.11730       -1.96780       -1.14550
N         -0.80850       -1.75460       -2.47990
C          0.54800       -1.62870       -2.82000
C          0.99230       -0.56680       -3.60280
C          2.34130       -0.38560       -3.83230
C          3.26600       -1.26670       -3.28590
S          5.01310       -1.05170       -3.45210
C          5.17500        0.75210       -3.61240
C          2.82050       -2.37320       -2.56840
C          1.47470       -2.55100       -2.33290
C         -1.80980       -1.51130       -3.42660
C         -1.67730       -2.01220       -4.72000
C         -2.71420       -1.90130       -5.62460
C         -3.90240       -1.29350       -5.24380
S         -5.31440       -1.19800       -6.30850
C         -5.12010       -2.67910       -7.34680
C         -4.01080       -0.71660       -3.98200
C         -2.97210       -0.81890       -3.08460
C         -0.33810       -1.43420       -0.08810
S          1.12170       -0.51840       -0.02880
C          0.99290       -0.39580        1.70550
C         -0.11890       -1.02640        2.21150
N         -0.46950       -1.02020        3.55740
C         -1.80280       -0.82220        3.92240
C         -2.32390       -1.41710        5.07300
C         -3.64870       -1.24490        5.40430
C         -4.49000       -0.48490        4.59480
S         -6.17520       -0.34440        5.11060
C         -7.01530        0.32080        3.64380
C         -3.97350        0.12280        3.45970
C         -2.64300       -0.04310        3.12900
C          0.51050       -1.31640        4.51400
C          1.38400       -2.37980        4.31050
C          2.32810       -2.71140        5.26230
C          2.40880       -1.98270        6.44030
S          3.53380       -2.34960        7.75350
C          4.43290       -3.81330        7.16920
C          1.55220       -0.90060        6.63890
C          0.61410       -0.56820        5.68710
C         -0.87200       -1.63210        1.17240
S         -2.36330       -2.49960        1.09730
C          1.93710        0.47670        2.40580
C          3.23860        0.04820        2.67470
S          3.72330       -1.63570        2.32660
C          4.30750       -1.57270        0.58680
C          5.10070       -0.33580        0.23830
C          4.16510        0.90450        3.25910
S          5.81980        0.33020        3.60550
C          5.48880       -0.52250        5.18660
C          5.13940        0.44690        6.29540
C          3.80350        2.21550        3.58020
C          2.48780        2.63580        3.34810
C          1.55480        1.78440        2.74400
C          0.20110        2.28490        2.38700
O         -0.54170        1.72610        1.60440
C         -0.16760        3.54590        3.03530
C          0.79360        4.40520        3.64360
C          2.20360        4.04320        3.69540
O          3.09510        4.80810        4.01860
C          0.23290        5.55990        4.11390
S         -1.45740        5.60450        3.84830
C         -1.42440        4.07930        3.06760
C          4.76900        3.12650        4.17920
C          5.97270        3.46390        3.67300
C          7.01960        4.03110        4.56910
O          6.86010        4.43570        5.69710
C          8.28240        3.89960        3.82140
C          9.56260        4.20850        4.27640
C         10.55810        3.95580        3.36400
C         10.30550        3.41470        2.09520
C          9.05030        3.10060        1.63440
C          8.01910        3.37030        2.53970
C          6.57860        3.21680        2.37610
C          5.93280        3.01550        1.18750
C          4.54000        3.10090        0.99570
N          3.42640        3.19470        0.72950
C          6.56660        2.76310       -0.04790
N          6.98840        2.53400       -1.09110
C         11.76430        3.42670        1.71270
C         12.24550        4.54370        0.75380
C         11.30350        5.70670        0.94500
C         11.53900        6.22550        2.14270
C         12.64460        5.42280        2.78300
C         13.46590        5.05190        1.53800
C         12.04420        4.03570        3.12290
H         -6.23500       -5.06000       -4.77780
H         -8.31030        0.80660       -4.57040
H        -10.04410       -2.65890       -7.83320
H        -10.49430        0.51320       -9.07590
H        -12.88930        0.00250       -8.62280
H        -12.99200       -1.00150       -6.21100
H        -12.11200        0.83640       -4.50680
H        -11.46870        2.97450       -5.86920
H        -12.14460        2.58370       -8.44530
H        -13.52520        2.24800       -7.37050
H         -9.64140        2.30320       -7.42280
H         -2.01400       -4.17790       -2.86020
H         -4.87130       -2.50930       -0.13870
H         -6.68530       -3.13090       -1.66850
H          0.27470        0.13050       -4.00900
H          2.66640        0.45430       -4.42540
H          4.98770        1.05950       -4.63720
H          4.48750        1.23420       -2.92440
H          6.19680        0.99200       -3.33510
H          3.54210       -3.08080       -2.19010
H          1.13180       -3.39430       -1.75120
H         -0.76530       -2.51520       -5.00650
H         -2.59610       -2.31480       -6.61330
H         -4.39780       -2.49580       -8.13680
H         -6.09580       -2.86960       -7.78400
H         -4.81440       -3.51610       -6.72640
H         -4.92440       -0.21730       -3.70220
H         -3.06630       -0.38220       -2.10240
H         -1.68770       -2.02630        5.69710
H         -4.05290       -1.71200        6.28920
H         -6.77920       -0.29160        2.77890
H         -8.07700        0.26150        3.86190
H         -6.73240        1.35720        3.48300
H         -4.59440        0.73290        2.82320
H         -2.24730        0.44940        2.25400
H          1.31080       -2.96450        3.40690
H          2.97980       -3.54820        5.07260
H          5.12980       -4.06160        7.96370
H          4.97810       -3.57960        6.25940
H          3.74080       -4.63600        7.01600
H          1.62980       -0.33140        7.55280
H         -0.05670        0.26310        5.84860
H          4.92170       -2.46940        0.50890
H          3.43400       -1.67240       -0.05630
H          5.92320       -0.18750        0.93500
H          5.51130       -0.45110       -0.76220
H          4.46060        0.54550        0.24850
H          6.41800       -1.05070        5.39760
H          4.68910       -1.23930        5.00000
H          5.89840        1.22160        6.38340
H          5.07510       -0.08890        7.23980
H          4.17470        0.91480        6.10610
H          0.73280        6.37030        4.60660
H         -2.32450        3.64320        2.68190
H          4.58410        3.43970        5.20230
H          9.71650        4.61390        5.26420
H          8.86840        2.67400        0.66170
H         12.20390        2.45940        1.47850
H         12.40700        4.22030       -0.27090
H         10.54750        5.98740        0.23530
H         11.01880        7.02680        2.63390
H         13.17000        5.90060        3.60570
H         14.21340        4.28210        1.72450
H         13.93610        5.91600        1.07120
H         12.67130        3.46970        3.80900
