159

C          1.87610       -3.44760        5.73810
C          0.94520       -4.44730        5.77130
C         -0.28300       -4.50650        4.96920
O         -0.65980       -3.70630        4.12750
C         -0.99870       -5.71760        5.39520
C         -2.22360       -6.17970        4.91810
C         -2.66220       -7.33160        5.52420
C         -1.93400       -7.98030        6.53080
C         -0.71890       -7.54240        7.00190
C         -0.25380       -6.36990        6.39980
C          0.97900       -5.61900        6.62900
C          1.99320       -5.99480        7.46960
C          3.21490       -5.31410        7.65420
N          4.23970       -4.84310        7.87330
C          1.97360       -7.15270        8.27710
N          2.02810       -8.07010        8.96500
C         -2.97410       -9.05900        6.69820
C         -3.92150       -8.96260        7.91980
C         -4.00970       -7.50050        8.28130
C         -4.69810       -6.88820        7.32720
C         -5.08790       -7.92530        6.30290
C         -5.27440       -9.14890        7.21420
C         -3.78410       -8.33770        5.57500
C          1.96460       -2.32580        4.89380
C          3.01530       -1.42540        4.96460
C          3.01460       -0.45060        3.96590
C          4.03260        0.61060        3.97500
O          4.97100        0.62210        4.73590
O          3.77750        1.59140        3.09600
C          4.68180        2.68630        3.09200
C          1.94240       -0.60510        3.08770
S          0.90800       -1.90980        3.56850
C          1.63700        0.05240        1.85960
C          2.45230        0.30560        0.76120
N          3.79440       -0.01360        0.67830
C          4.25680       -1.14240        1.37610
C          5.43430       -1.10830        2.11560
C          5.76960       -2.15960        2.94890
C          4.92400       -3.25490        3.06220
S          5.14860       -4.55610        4.23230
C          6.25610       -3.81390        5.46440
C          3.81040       -3.34650        2.22830
C          3.48500       -2.30650        1.38980
C          4.65560        0.78140       -0.07960
C          5.75450        0.21930       -0.73020
C          6.60440        1.01350       -1.46820
C          6.37320        2.38180       -1.58080
S          7.51390        3.32450       -2.55020
C          7.36360        4.99170       -1.83590
C          5.27340        2.94420       -0.95030
C          4.42930        2.15190       -0.19940
C          1.69200        0.78720       -0.33360
S          2.09060        1.30280       -1.94080
C          0.38790        1.45890       -2.31080
C         -0.44020        1.27300       -1.19880
N         -1.79060        1.54430       -1.13820
C         -2.56710        0.79470       -0.23960
C         -3.52430        1.40860        0.56740
C         -4.19160        0.67440        1.52160
C         -3.91470       -0.68170        1.69590
S         -4.76280       -1.50630        2.99930
C         -3.85920       -3.07040        3.18660
C         -3.00810       -1.30870        0.85090
C         -2.34610       -0.57460       -0.11170
C         -2.36650        2.57390       -1.89190
C         -3.65200        2.43140       -2.41910
C         -4.17660        3.39680       -3.24900
C         -3.43210        4.52910       -3.57490
S         -4.16460        5.65880       -4.71650
C         -2.93850        6.98910       -4.86390
C         -2.17630        4.70560       -3.00710
C         -1.65650        3.74190       -2.16790
C          0.32860        0.85530       -0.08600
S         -0.06020        0.35160        1.52020
C         -0.01420        1.80190       -3.63040
C         -1.23650        1.42550       -4.19220
F         -1.93030        0.42560       -3.60780
C         -1.78190        2.02880       -5.30380
C         -1.08630        3.03010       -5.98060
C          0.28840        3.22530       -5.61570
N          1.08390        4.00880       -6.36300
C          2.31900        4.19870       -5.99260
C          2.83800        3.63100       -4.79620
O          4.06620        3.82360       -4.31070
C          5.06110        4.44000       -5.11730
C          5.56190        3.51750       -6.22100
N          2.07070        2.86160       -4.05200
C          0.81280        2.62680       -4.44570
C         -1.60800        3.92640       -6.95020
C         -2.88260        4.24480       -7.33310
C         -4.17670        3.61700       -6.98360
O         -4.40260        2.67240       -6.26000
C         -5.19580        4.32380       -7.79920
C         -6.54970        4.05850       -7.90060
Cl        -7.31780        2.93580       -6.87300
C         -7.28690        4.73830       -8.88080
Cl        -8.96900        4.46780       -9.02320
C         -6.64370        5.59760       -9.77020
Cl        -7.54280        6.32760      -11.02950
C         -5.27050        5.86560       -9.65830
Cl        -4.51340        6.79140      -10.88810
C         -4.56430        5.27960       -8.61610
C         -3.17660        5.39200       -8.18190
C         -2.39620        6.51050       -8.31740
C         -1.08740        6.67770       -7.81080
N         -0.03910        6.94830       -7.42590
C         -2.85640        7.76190       -8.78430
N         -3.16110        8.84110       -9.02880
H          2.70280       -3.51660        6.43450
H         -2.74970       -5.65080        4.13880
H         -0.17190       -8.05670        7.77390
H         -2.63870      -10.07730        6.51290
H         -3.68130       -9.64390        8.73130
H         -3.52960       -7.06570        9.13830
H         -4.90850       -5.83920        7.22850
H         -5.91030       -7.66280        5.64260
H         -6.12030       -9.04390        7.89150
H         -5.35390      -10.08830        6.66890
H         -3.97750       -8.88500        4.65460
H          3.77270       -1.46440        5.72760
H          5.46190        2.51830        2.34590
H          5.13970        2.79680        4.07700
H          4.10620        3.57290        2.83440
H          6.07990       -0.24450        2.06230
H          6.67510       -2.09510        3.52930
H          6.11870       -4.39480        6.37170
H          7.28740       -3.87620        5.12930
H          5.96130       -2.78370        5.63700
H          3.19290       -4.23070        2.26960
H          2.60670       -2.37110        0.76480
H          5.93560       -0.84220       -0.65250
H          7.45580        0.57970       -1.96990
H          8.19350        5.56350       -2.23920
H          7.44670        4.92770       -0.75520
H          6.42390        5.45270       -2.12670
H          5.06270        3.99760       -1.03610
H          3.59010        2.59910        0.31010
H         -3.71880        2.46510        0.45860
H         -4.91770        1.14800        2.16420
H         -4.04690       -3.71410        2.33140
H         -2.79740       -2.87780        3.31620
H         -4.26660       -3.52620        4.08460
H         -2.80320       -2.36280        0.93810
H         -1.64640       -1.06200       -0.77370
H         -4.21760        1.53840       -2.20320
H         -5.15550        3.26770       -3.68150
H         -3.36010        7.70500       -5.56350
H         -2.00260        6.59670       -5.25300
H         -2.79510        7.46600       -3.89900
H         -1.58870        5.58580       -3.21120
H         -0.67850        3.89100       -1.73450
H         -2.77370        1.74240       -5.61070
H          2.90750        4.82150       -6.65010
H          4.69660        5.39010       -5.52470
H          5.87640        4.64480       -4.42090
H          4.76450        3.26270       -6.91560
H          5.94690        2.60120       -5.78050
H          6.36200        4.00780       -6.76770
H         -0.81920        4.52040       -7.39880
