
  xtb     02052206293D
 energy: -355.828162536074 gnorm: 0.000527234879 xtb: 6.4.1 (unknown)
216239  0     0  0            999 V2000
    1.8281    4.0885    7.7040 C   0  0  0  0  0  0  0  0  0  0  0  0
    1.9355    3.6933    9.0053 C   0  0  0  0  0  0  0  0  0  0  0  0
    1.7188    2.3303    9.5271 C   0  0  0  0  0  0  0  0  0  0  0  0
    1.2685    1.3705    8.9331 O   0  0  0  0  0  0  0  0  0  0  0  0
    2.1785    2.3527   10.9264 C   0  0  0  0  0  0  0  0  0  0  0  0
    2.2280    1.2745   11.8069 C   0  0  0  0  0  0  0  0  0  0  0  0
    2.7240    1.5889   13.0490 C   0  0  0  0  0  0  0  0  0  0  0  0
    3.1459    2.8815   13.3899 C   0  0  0  0  0  0  0  0  0  0  0  0
    3.1012    3.9540   12.5317 C   0  0  0  0  0  0  0  0  0  0  0  0
    2.5931    3.6575   11.2632 C   0  0  0  0  0  0  0  0  0  0  0  0
    2.3981    4.5238   10.1039 C   0  0  0  0  0  0  0  0  0  0  0  0
    2.5784    5.8826   10.0870 C   0  0  0  0  0  0  0  0  0  0  0  0
    2.3278    6.7317    8.9885 C   0  0  0  0  0  0  0  0  0  0  0  0
    2.1392    7.4971    8.1525 N   0  0  0  0  0  0  0  0  0  0  0  0
    3.0163    6.6445   11.1908 C   0  0  0  0  0  0  0  0  0  0  0  0
    3.3709    7.3301   12.0408 N   0  0  0  0  0  0  0  0  0  0  0  0
    3.5296    2.4733   14.7899 C   0  0  0  0  0  0  0  0  0  0  0  0
    2.5698    2.8591   15.9423 C   0  0  0  0  0  0  0  0  0  0  0  0
    1.1940    2.9734   15.3338 C   0  0  0  0  0  0  0  0  0  0  0  0
    0.7910    1.7515   15.0119 C   0  0  0  0  0  0  0  0  0  0  0  0
    1.8870    0.7887   15.3969 C   0  0  0  0  0  0  0  0  0  0  0  0
    2.4441    1.4965   16.6424 C   0  0  0  0  0  0  0  0  0  0  0  0
    3.0565    1.0343   14.4114 C   0  0  0  0  0  0  0  0  0  0  0  0
    1.4256    3.3725    6.5560 C   0  0  0  0  0  0  0  0  0  0  0  0
    1.4927    3.9326    5.2945 C   0  0  0  0  0  0  0  0  0  0  0  0
    1.0546    3.0858    4.2669 C   0  0  0  0  0  0  0  0  0  0  0  0
    1.0149    3.3517    2.8775 C   0  0  0  0  0  0  0  0  0  0  0  0
    1.5138    4.5757    2.2913 C   0  0  0  0  0  0  0  0  0  0  0  0
    1.4048    5.8815    2.7018 C   0  0  0  0  0  0  0  0  0  0  0  0
    2.0179    6.7940    1.8329 C   0  0  0  0  0  0  0  0  0  0  0  0
    2.6119    6.2030    0.7410 C   0  0  0  0  0  0  0  0  0  0  0  0
    3.2802    6.8137   -0.3601 C   0  0  0  0  0  0  0  0  0  0  0  0
    3.6981    6.1086   -1.4327 C   0  0  0  0  0  0  0  0  0  0  0  0
    4.3492    6.6204   -2.5904 C   0  0  0  0  0  0  0  0  0  0  0  0
    4.7602    7.8898   -2.9141 C   0  0  0  0  0  0  0  0  0  0  0  0
    5.3618    7.9739   -4.1814 C   0  0  0  0  0  0  0  0  0  0  0  0
    5.4234    6.7814   -4.8412 C   0  0  0  0  0  0  0  0  0  0  0  0
    5.9583    6.4965   -6.2017 C   0  0  0  0  0  0  0  0  0  0  0  0
    4.8368    6.1330   -7.1771 C   0  0  0  0  0  0  0  0  0  0  0  0
    4.7233    5.5161   -3.8894 S   0  0  0  0  0  0  0  0  0  0  0  0
    2.4159    4.4764    0.8057 S   0  0  0  0  0  0  0  0  0  0  0  0
    0.4971    2.3371    2.0843 C   0  0  0  0  0  0  0  0  0  0  0  0
    0.0659    1.0787    2.5769 C   0  0  0  0  0  0  0  0  0  0  0  0
    0.2054    0.7762    3.9493 C   0  0  0  0  0  0  0  0  0  0  0  0
   -0.0386   -0.5378    4.5043 C   0  0  0  0  0  0  0  0  0  0  0  0
    0.6711   -1.1367    5.5190 C   0  0  0  0  0  0  0  0  0  0  0  0
    0.2488   -2.4352    5.8099 C   0  0  0  0  0  0  0  0  0  0  0  0
   -0.8221   -2.8591    5.0548 C   0  0  0  0  0  0  0  0  0  0  0  0
   -1.3500   -4.1905    5.0740 C   0  0  0  0  0  0  0  0  0  0  0  0
   -2.5134   -4.7019    4.6240 C   0  0  0  0  0  0  0  0  0  0  0  0
   -3.7088   -4.0641    4.1582 C   0  0  0  0  0  0  0  0  0  0  0  0
   -4.6996   -4.6740    3.4278 C   0  0  0  0  0  0  0  0  0  0  0  0
   -5.8243   -3.8619    3.2069 C   0  0  0  0  0  0  0  0  0  0  0  0
   -5.7191   -2.6312    3.7817 C   0  0  0  0  0  0  0  0  0  0  0  0
   -6.7118   -1.5214    3.7942 C   0  0  0  0  0  0  0  0  0  0  0  0
   -7.4017   -1.4077    5.1553 C   0  0  0  0  0  0  0  0  0  0  0  0
   -4.2086   -2.4604    4.6151 S   0  0  0  0  0  0  0  0  0  0  0  0
   -1.2808   -1.6149    3.9318 S   0  0  0  0  0  0  0  0  0  0  0  0
    0.6610    1.8154    4.7663 C   0  0  0  0  0  0  0  0  0  0  0  0
    0.8177    1.7348    6.4981 S   0  0  0  0  0  0  0  0  0  0  0  0
   -0.4600    0.2735    1.5369 C   0  0  0  0  0  0  0  0  0  0  0  0
   -0.4777    0.8875    0.3194 C   0  0  0  0  0  0  0  0  0  0  0  0
    0.2406    2.4767    0.3671 S   0  0  0  0  0  0  0  0  0  0  0  0
   -1.0532    0.4153   -0.9000 C   0  0  0  0  0  0  0  0  0  0  0  0
   -2.2655   -0.2437   -1.0481 C   0  0  0  0  0  0  0  0  0  0  0  0
   -3.2073   -0.4179   -0.0522 N   0  0  0  0  0  0  0  0  0  0  0  0
   -4.0003   -1.5730   -0.0620 C   0  0  0  0  0  0  0  0  0  0  0  0
   -3.4448   -2.8035   -0.3986 C   0  0  0  0  0  0  0  0  0  0  0  0
   -4.2284   -3.9393   -0.4587 C   0  0  0  0  0  0  0  0  0  0  0  0
   -5.5836   -3.8588   -0.1772 C   0  0  0  0  0  0  0  0  0  0  0  0
   -6.6889   -5.2347   -0.2449 S   0  0  0  0  0  0  0  0  0  0  0  0
   -5.5951   -6.6620   -0.4930 C   0  0  0  0  0  0  0  0  0  0  0  0
   -6.1405   -2.6310    0.1774 C   0  0  0  0  0  0  0  0  0  0  0  0
   -5.3599   -1.5002    0.2390 C   0  0  0  0  0  0  0  0  0  0  0  0
   -3.3097    0.5125    0.9926 C   0  0  0  0  0  0  0  0  0  0  0  0
   -3.1226    1.8739    0.7685 C   0  0  0  0  0  0  0  0  0  0  0  0
   -3.0276    2.7540    1.8284 C   0  0  0  0  0  0  0  0  0  0  0  0
   -3.1340    2.2875    3.1323 C   0  0  0  0  0  0  0  0  0  0  0  0
   -2.8791    3.2867    4.5645 S   0  0  0  0  0  0  0  0  0  0  0  0
   -2.2059    4.8338    3.8956 C   0  0  0  0  0  0  0  0  0  0  0  0
   -3.4417    0.9473    3.3526 C   0  0  0  0  0  0  0  0  0  0  0  0
   -3.5286    0.0709    2.2949 C   0  0  0  0  0  0  0  0  0  0  0  0
   -2.4580   -0.6272   -2.3971 C   0  0  0  0  0  0  0  0  0  0  0  0
   -3.6693   -1.5424   -3.2286 S   0  0  0  0  0  0  0  0  0  0  0  0
   -2.7922   -1.3494   -4.7452 C   0  0  0  0  0  0  0  0  0  0  0  0
   -1.6892   -0.5044   -4.6129 C   0  0  0  0  0  0  0  0  0  0  0  0
   -0.9506   -0.0227   -5.6701 N   0  0  0  0  0  0  0  0  0  0  0  0
    0.4413    0.1061   -5.5261 C   0  0  0  0  0  0  0  0  0  0  0  0
    1.1824   -0.9546   -5.0068 C   0  0  0  0  0  0  0  0  0  0  0  0
    2.5503   -0.8505   -4.8891 C   0  0  0  0  0  0  0  0  0  0  0  0
    3.2053    0.3158   -5.2817 C   0  0  0  0  0  0  0  0  0  0  0  0
    4.9613    0.3275   -5.1152 S   0  0  0  0  0  0  0  0  0  0  0  0
    5.4360    2.0258   -5.5449 C   0  0  0  0  0  0  0  0  0  0  0  0
    2.4672    1.3788   -5.7863 C   0  0  0  0  0  0  0  0  0  0  0  0
    1.0960    1.2726   -5.9068 C   0  0  0  0  0  0  0  0  0  0  0  0
   -1.5964    0.4609   -6.8173 C   0  0  0  0  0  0  0  0  0  0  0  0
   -0.9456    0.4422   -8.0487 C   0  0  0  0  0  0  0  0  0  0  0  0
   -1.5804    0.8880   -9.1897 C   0  0  0  0  0  0  0  0  0  0  0  0
   -2.8902    1.3438   -9.1260 C   0  0  0  0  0  0  0  0  0  0  0  0
   -3.7897    1.9017  -10.5330 S   0  0  0  0  0  0  0  0  0  0  0  0
   -2.9732    1.0348  -11.9028 C   0  0  0  0  0  0  0  0  0  0  0  0
   -3.5335    1.3966   -7.8911 C   0  0  0  0  0  0  0  0  0  0  0  0
   -2.8954    0.9669   -6.7505 C   0  0  0  0  0  0  0  0  0  0  0  0
   -1.4750   -0.1647   -3.2596 C   0  0  0  0  0  0  0  0  0  0  0  0
   -0.2460    0.7190   -2.4291 S   0  0  0  0  0  0  0  0  0  0  0  0
   -3.0545   -2.2192   -5.8243 C   0  0  0  0  0  0  0  0  0  0  0  0
   -4.0936   -3.1228   -5.9424 C   0  0  0  0  0  0  0  0  0  0  0  0
   -3.8769   -4.0901   -6.9248 C   0  0  0  0  0  0  0  0  0  0  0  0
   -4.9295   -5.4206   -7.3223 S   0  0  0  0  0  0  0  0  0  0  0  0
   -6.1456   -5.4224   -5.9549 C   0  0  0  0  0  0  0  0  0  0  0  0
   -5.5516   -5.8804   -4.6365 C   0  0  0  0  0  0  0  0  0  0  0  0
   -2.6559   -3.9372   -7.5980 C   0  0  0  0  0  0  0  0  0  0  0  0
   -1.8398   -2.4912   -7.0389 S   0  0  0  0  0  0  0  0  0  0  0  0
   -1.9895   -4.9083   -8.3550 C   0  0  0  0  0  0  0  0  0  0  0  0
   -0.7137   -4.8185   -8.8487 C   0  0  0  0  0  0  0  0  0  0  0  0
    0.1719   -6.0079   -8.8967 C   0  0  0  0  0  0  0  0  0  0  0  0
   -0.1589   -7.1723   -8.9147 O   0  0  0  0  0  0  0  0  0  0  0  0
    1.5476   -5.4568   -8.8184 C   0  0  0  0  0  0  0  0  0  0  0  0
    2.7327   -6.1489   -8.5791 C   0  0  0  0  0  0  0  0  0  0  0  0
    3.8367   -5.3392   -8.4372 C   0  0  0  0  0  0  0  0  0  0  0  0
    3.7769   -3.9433   -8.5356 C   0  0  0  0  0  0  0  0  0  0  0  0
    2.6201   -3.2464   -8.7927 C   0  0  0  0  0  0  0  0  0  0  0  0
    1.4905   -4.0531   -8.9308 C   0  0  0  0  0  0  0  0  0  0  0  0
    0.0982   -3.6659   -9.1295 C   0  0  0  0  0  0  0  0  0  0  0  0
   -0.3271   -2.5015   -9.7215 C   0  0  0  0  0  0  0  0  0  0  0  0
    0.5488   -1.5067  -10.1901 C   0  0  0  0  0  0  0  0  0  0  0  0
    1.2189   -0.6702  -10.6057 N   0  0  0  0  0  0  0  0  0  0  0  0
   -1.6739   -2.2490  -10.0407 C   0  0  0  0  0  0  0  0  0  0  0  0
   -2.7529   -2.0093  -10.3543 N   0  0  0  0  0  0  0  0  0  0  0  0
    5.2433   -3.7741   -8.2307 C   0  0  0  0  0  0  0  0  0  0  0  0
    5.5961   -3.3109   -6.8007 C   0  0  0  0  0  0  0  0  0  0  0  0
    7.0497   -3.6942   -6.6459 C   0  0  0  0  0  0  0  0  0  0  0  0
    7.1115   -5.0164   -6.5535 C   0  0  0  0  0  0  0  0  0  0  0  0
    5.6995   -5.5497   -6.6428 C   0  0  0  0  0  0  0  0  0  0  0  0
    4.9437   -4.4082   -5.9501 C   0  0  0  0  0  0  0  0  0  0  0  0
    5.3136   -5.3312   -8.1215 C   0  0  0  0  0  0  0  0  0  0  0  0
    2.1202    5.1073    7.4773 H   0  0  0  0  0  0  0  0  0  0  0  0
    1.8986    0.2941   11.5000 H   0  0  0  0  0  0  0  0  0  0  0  0
    3.4358    4.9397   12.8084 H   0  0  0  0  0  0  0  0  0  0  0  0
    4.5754    2.6127   15.0564 H   0  0  0  0  0  0  0  0  0  0  0  0
    2.9010    3.7025   16.5421 H   0  0  0  0  0  0  0  0  0  0  0  0
    0.6952    3.9075   15.1533 H   0  0  0  0  0  0  0  0  0  0  0  0
   -0.1120    1.4605   14.5079 H   0  0  0  0  0  0  0  0  0  0  0  0
    1.5962   -0.2533   15.5012 H   0  0  0  0  0  0  0  0  0  0  0  0
    1.7364    1.5119   17.4698 H   0  0  0  0  0  0  0  0  0  0  0  0
    3.3974    1.0930   16.9810 H   0  0  0  0  0  0  0  0  0  0  0  0
    3.7927    0.2330   14.4337 H   0  0  0  0  0  0  0  0  0  0  0  0
    1.8725    4.9249    5.1314 H   0  0  0  0  0  0  0  0  0  0  0  0
    0.8548    6.1834    3.5756 H   0  0  0  0  0  0  0  0  0  0  0  0
    2.0125    7.8578    1.9915 H   0  0  0  0  0  0  0  0  0  0  0  0
    3.4182    7.8842   -0.3060 H   0  0  0  0  0  0  0  0  0  0  0  0
    3.5177    5.0402   -1.4415 H   0  0  0  0  0  0  0  0  0  0  0  0
    4.6347    8.7336   -2.2601 H   0  0  0  0  0  0  0  0  0  0  0  0
    5.7433    8.8905   -4.5963 H   0  0  0  0  0  0  0  0  0  0  0  0
    6.6696    5.6674   -6.1507 H   0  0  0  0  0  0  0  0  0  0  0  0
    6.4887    7.3801   -6.5624 H   0  0  0  0  0  0  0  0  0  0  0  0
    4.3034    5.2526   -6.8257 H   0  0  0  0  0  0  0  0  0  0  0  0
    4.1281    6.9536   -7.2617 H   0  0  0  0  0  0  0  0  0  0  0  0
    5.2457    5.9237   -8.1622 H   0  0  0  0  0  0  0  0  0  0  0  0
    1.5067   -0.6740    6.0103 H   0  0  0  0  0  0  0  0  0  0  0  0
    0.7080   -3.0518    6.5623 H   0  0  0  0  0  0  0  0  0  0  0  0
   -0.6498   -4.9003    5.5011 H   0  0  0  0  0  0  0  0  0  0  0  0
   -2.6013   -5.7830    4.6439 H   0  0  0  0  0  0  0  0  0  0  0  0
   -4.6091   -5.6796    3.0552 H   0  0  0  0  0  0  0  0  0  0  0  0
   -6.6852   -4.1800    2.6466 H   0  0  0  0  0  0  0  0  0  0  0  0
   -7.4570   -1.7095    3.0186 H   0  0  0  0  0  0  0  0  0  0  0  0
   -6.2091   -0.5774    3.5678 H   0  0  0  0  0  0  0  0  0  0  0  0
   -6.6669   -1.2195    5.9347 H   0  0  0  0  0  0  0  0  0  0  0  0
   -8.1177   -0.5897    5.1479 H   0  0  0  0  0  0  0  0  0  0  0  0
   -7.9282   -2.3299    5.3911 H   0  0  0  0  0  0  0  0  0  0  0  0
   -0.8159   -0.7296    1.6754 H   0  0  0  0  0  0  0  0  0  0  0  0
   -2.3880   -2.8711   -0.6122 H   0  0  0  0  0  0  0  0  0  0  0  0
   -3.7664   -4.8756   -0.7262 H   0  0  0  0  0  0  0  0  0  0  0  0
   -5.1125   -6.6031   -1.4644 H   0  0  0  0  0  0  0  0  0  0  0  0
   -4.8639   -6.7070    0.3086 H   0  0  0  0  0  0  0  0  0  0  0  0
   -6.2397   -7.5347   -0.4551 H   0  0  0  0  0  0  0  0  0  0  0  0
   -7.1972   -2.5763    0.3893 H   0  0  0  0  0  0  0  0  0  0  0  0
   -5.7946   -0.5499    0.5095 H   0  0  0  0  0  0  0  0  0  0  0  0
   -3.0150    2.2451   -0.2401 H   0  0  0  0  0  0  0  0  0  0  0  0
   -2.8529    3.7977    1.6221 H   0  0  0  0  0  0  0  0  0  0  0  0
   -2.9740    5.3759    3.3515 H   0  0  0  0  0  0  0  0  0  0  0  0
   -1.3505    4.6166    3.2626 H   0  0  0  0  0  0  0  0  0  0  0  0
   -1.8920    5.4116    4.7596 H   0  0  0  0  0  0  0  0  0  0  0  0
   -3.5674    0.5909    4.3634 H   0  0  0  0  0  0  0  0  0  0  0  0
   -3.7194   -0.9754    2.4701 H   0  0  0  0  0  0  0  0  0  0  0  0
    0.6763   -1.8627   -4.7134 H   0  0  0  0  0  0  0  0  0  0  0  0
    3.1300   -1.6740   -4.5007 H   0  0  0  0  0  0  0  0  0  0  0  0
    5.2114    2.2232   -6.5891 H   0  0  0  0  0  0  0  0  0  0  0  0
    6.5085    2.0760   -5.3843 H   0  0  0  0  0  0  0  0  0  0  0  0
    4.9327    2.7297   -4.8881 H   0  0  0  0  0  0  0  0  0  0  0  0
    2.9453    2.2964   -6.0872 H   0  0  0  0  0  0  0  0  0  0  0  0
    0.5251    2.1001   -6.3006 H   0  0  0  0  0  0  0  0  0  0  0  0
    0.0684    0.0778   -8.1096 H   0  0  0  0  0  0  0  0  0  0  0  0
   -1.0437    0.8664  -10.1242 H   0  0  0  0  0  0  0  0  0  0  0  0
   -2.0068    1.4825  -12.1161 H   0  0  0  0  0  0  0  0  0  0  0  0
   -3.6295    1.1509  -12.7595 H   0  0  0  0  0  0  0  0  0  0  0  0
   -2.8771   -0.0156  -11.6427 H   0  0  0  0  0  0  0  0  0  0  0  0
   -4.5410    1.7793   -7.8396 H   0  0  0  0  0  0  0  0  0  0  0  0
   -3.4065    1.0195   -5.8008 H   0  0  0  0  0  0  0  0  0  0  0  0
   -4.9497   -3.0720   -5.2950 H   0  0  0  0  0  0  0  0  0  0  0  0
   -6.5831   -4.4275   -5.8893 H   0  0  0  0  0  0  0  0  0  0  0  0
   -6.9114   -6.1188   -6.2959 H   0  0  0  0  0  0  0  0  0  0  0  0
   -4.7502   -5.2180   -4.3150 H   0  0  0  0  0  0  0  0  0  0  0  0
   -5.1502   -6.8867   -4.7344 H   0  0  0  0  0  0  0  0  0  0  0  0
   -6.3268   -5.8834   -3.8722 H   0  0  0  0  0  0  0  0  0  0  0  0
   -2.4550   -5.8886   -8.3775 H   0  0  0  0  0  0  0  0  0  0  0  0
    2.7438   -7.2250   -8.5026 H   0  0  0  0  0  0  0  0  0  0  0  0
    2.5731   -2.1709   -8.8519 H   0  0  0  0  0  0  0  0  0  0  0  0
    5.8357   -3.2785   -8.9973 H   0  0  0  0  0  0  0  0  0  0  0  0
    5.3361   -2.2807   -6.5730 H   0  0  0  0  0  0  0  0  0  0  0  0
    7.8607   -2.9904   -6.6735 H   0  0  0  0  0  0  0  0  0  0  0  0
    7.9847   -5.6392   -6.4910 H   0  0  0  0  0  0  0  0  0  0  0  0
    5.5338   -6.5582   -6.2728 H   0  0  0  0  0  0  0  0  0  0  0  0
    3.8615   -4.4649   -6.0534 H   0  0  0  0  0  0  0  0  0  0  0  0
    5.2062   -4.3206   -4.8969 H   0  0  0  0  0  0  0  0  0  0  0  0
    5.9546   -5.8736   -8.8141 H   0  0  0  0  0  0  0  0  0  0  0  0
  1  2  2  0  0  0  0
  2  3  1  0  0  0  0
  3  4  2  0  0  0  0
  3  5  1  0  0  0  0
  5  6  2  0  0  0  0
  6  7  1  0  0  0  0
  7  8  2  0  0  0  0
  8  9  1  0  0  0  0
  9 10  2  0  0  0  0
 10 11  1  0  0  0  0
 11 12  2  0  0  0  0
 12 13  1  0  0  0  0
 13 14  3  0  0  0  0
 12 15  1  0  0  0  0
 15 16  3  0  0  0  0
  8 17  1  0  0  0  0
 17 18  1  0  0  0  0
 18 19  1  0  0  0  0
 19 20  2  0  0  0  0
 20 21  1  0  0  0  0
 21 22  1  0  0  0  0
 21 23  1  0  0  0  0
  1 24  1  0  0  0  0
 24 25  2  0  0  0  0
 25 26  1  0  0  0  0
 26 27  2  0  0  0  0
 27 28  1  0  0  0  0
 28 29  2  0  0  0  0
 29 30  1  0  0  0  0
 30 31  2  0  0  0  0
 31 32  1  0  0  0  0
 32 33  2  0  0  0  0
 33 34  1  0  0  0  0
 34 35  2  0  0  0  0
 35 36  1  0  0  0  0
 36 37  2  0  0  0  0
 37 38  1  0  0  0  0
 38 39  1  0  0  0  0
 37 40  1  0  0  0  0
 31 41  1  0  0  0  0
 27 42  1  0  0  0  0
 42 43  2  0  0  0  0
 43 44  1  0  0  0  0
 44 45  1  0  0  0  0
 45 46  2  0  0  0  0
 46 47  1  0  0  0  0
 47 48  2  0  0  0  0
 48 49  1  0  0  0  0
 49 50  2  0  0  0  0
 50 51  1  0  0  0  0
 51 52  2  0  0  0  0
 52 53  1  0  0  0  0
 53 54  2  0  0  0  0
 54 55  1  0  0  0  0
 55 56  1  0  0  0  0
 54 57  1  0  0  0  0
 48 58  1  0  0  0  0
 44 59  2  0  0  0  0
 59 60  1  0  0  0  0
 43 61  1  0  0  0  0
 61 62  2  0  0  0  0
 62 63  1  0  0  0  0
 62 64  1  0  0  0  0
 64 65  2  0  0  0  0
 65 66  1  0  0  0  0
 66 67  1  0  0  0  0
 67 68  2  0  0  0  0
 68 69  1  0  0  0  0
 69 70  2  0  0  0  0
 70 71  1  0  0  0  0
 71 72  1  0  0  0  0
 70 73  1  0  0  0  0
 73 74  2  0  0  0  0
 66 75  1  0  0  0  0
 75 76  2  0  0  0  0
 76 77  1  0  0  0  0
 77 78  2  0  0  0  0
 78 79  1  0  0  0  0
 79 80  1  0  0  0  0
 78 81  1  0  0  0  0
 81 82  2  0  0  0  0
 65 83  1  0  0  0  0
 83 84  1  0  0  0  0
 84 85  1  0  0  0  0
 85 86  2  0  0  0  0
 86 87  1  0  0  0  0
 87 88  1  0  0  0  0
 88 89  2  0  0  0  0
 89 90  1  0  0  0  0
 90 91  2  0  0  0  0
 91 92  1  0  0  0  0
 92 93  1  0  0  0  0
 91 94  1  0  0  0  0
 94 95  2  0  0  0  0
 87 96  1  0  0  0  0
 96 97  2  0  0  0  0
 97 98  1  0  0  0  0
 98 99  2  0  0  0  0
 99100  1  0  0  0  0
100101  1  0  0  0  0
 99102  1  0  0  0  0
102103  2  0  0  0  0
 86104  1  0  0  0  0
104105  1  0  0  0  0
 85106  1  0  0  0  0
106107  2  0  0  0  0
107108  1  0  0  0  0
108109  1  0  0  0  0
109110  1  0  0  0  0
110111  1  0  0  0  0
108112  2  0  0  0  0
112113  1  0  0  0  0
112114  1  0  0  0  0
114115  2  0  0  0  0
115116  1  0  0  0  0
116117  2  0  0  0  0
116118  1  0  0  0  0
118119  2  0  0  0  0
119120  1  0  0  0  0
120121  2  0  0  0  0
121122  1  0  0  0  0
122123  2  0  0  0  0
123124  1  0  0  0  0
124125  2  0  0  0  0
125126  1  0  0  0  0
126127  3  0  0  0  0
125128  1  0  0  0  0
128129  3  0  0  0  0
121130  1  0  0  0  0
130131  1  0  0  0  0
131132  1  0  0  0  0
132133  2  0  0  0  0
133134  1  0  0  0  0
134135  1  0  0  0  0
134136  1  0  0  0  0
 11  2  1  0  0  0  0
 23 17  1  0  0  0  0
 60 24  1  0  0  0  0
105 64  1  0  0  0  0
113106  1  0  0  0  0
124115  1  0  0  0  0
136130  1  0  0  0  0
 10  5  1  0  0  0  0
 22 18  1  0  0  0  0
 59 26  1  0  0  0  0
 74 67  1  0  0  0  0
 82 75  1  0  0  0  0
104 83  2  0  0  0  0
123118  1  0  0  0  0
135131  1  0  0  0  0
 23  7  1  0  0  0  0
 41 28  1  0  0  0  0
 63 42  1  0  0  0  0
 95 88  1  0  0  0  0
103 96  1  0  0  0  0
136120  1  0  0  0  0
 40 34  1  0  0  0  0
 58 45  1  0  0  0  0
 57 51  1  0  0  0  0
  1137  1  0  0  0  0
  6138  1  0  0  0  0
  9139  1  0  0  0  0
 17140  1  0  0  0  0
 18141  1  0  0  0  0
 19142  1  0  0  0  0
 20143  1  0  0  0  0
 21144  1  0  0  0  0
 22145  1  0  0  0  0
 22146  1  0  0  0  0
 23147  1  0  0  0  0
 25148  1  0  0  0  0
 29149  1  0  0  0  0
 30150  1  0  0  0  0
 32151  1  0  0  0  0
 33152  1  0  0  0  0
 35153  1  0  0  0  0
 36154  1  0  0  0  0
 38155  1  0  0  0  0
 38156  1  0  0  0  0
 39157  1  0  0  0  0
 39158  1  0  0  0  0
 39159  1  0  0  0  0
 46160  1  0  0  0  0
 47161  1  0  0  0  0
 49162  1  0  0  0  0
 50163  1  0  0  0  0
 52164  1  0  0  0  0
 53165  1  0  0  0  0
 55166  1  0  0  0  0
 55167  1  0  0  0  0
 56168  1  0  0  0  0
 56169  1  0  0  0  0
 56170  1  0  0  0  0
 61171  1  0  0  0  0
 68172  1  0  0  0  0
 69173  1  0  0  0  0
 72174  1  0  0  0  0
 72175  1  0  0  0  0
 72176  1  0  0  0  0
 73177  1  0  0  0  0
 74178  1  0  0  0  0
 76179  1  0  0  0  0
 77180  1  0  0  0  0
 80181  1  0  0  0  0
 80182  1  0  0  0  0
 80183  1  0  0  0  0
 81184  1  0  0  0  0
 82185  1  0  0  0  0
 89186  1  0  0  0  0
 90187  1  0  0  0  0
 93188  1  0  0  0  0
 93189  1  0  0  0  0
 93190  1  0  0  0  0
 94191  1  0  0  0  0
 95192  1  0  0  0  0
 97193  1  0  0  0  0
 98194  1  0  0  0  0
101195  1  0  0  0  0
101196  1  0  0  0  0
101197  1  0  0  0  0
102198  1  0  0  0  0
103199  1  0  0  0  0
107200  1  0  0  0  0
110201  1  0  0  0  0
110202  1  0  0  0  0
111203  1  0  0  0  0
111204  1  0  0  0  0
111205  1  0  0  0  0
114206  1  0  0  0  0
119207  1  0  0  0  0
122208  1  0  0  0  0
130209  1  0  0  0  0
131210  1  0  0  0  0
132211  1  0  0  0  0
133212  1  0  0  0  0
134213  1  0  0  0  0
135214  1  0  0  0  0
135215  1  0  0  0  0
136216  1  0  0  0  0
M  END
