
  xtb     02172217133D
 energy: -306.262978780966 gnorm: 0.000600164629 xtb: 6.4.1 (unknown)
181200  0     0  0            999 V2000
   -6.3821   -4.1546   -4.1989 C   0  0  0  0  0  0  0  0  0  0  0  0
   -7.3717   -3.3076   -4.5657 C   0  0  0  0  0  0  0  0  0  0  0  0
   -7.5035   -1.8799   -4.1545 C   0  0  0  0  0  0  0  0  0  0  0  0
   -6.9959   -1.3194   -3.2080 O   0  0  0  0  0  0  0  0  0  0  0  0
   -8.3785   -1.2632   -5.1679 C   0  0  0  0  0  0  0  0  0  0  0  0
   -8.7011    0.0878   -5.2730 C   0  0  0  0  0  0  0  0  0  0  0  0
   -9.5301    0.3849   -6.3264 C   0  0  0  0  0  0  0  0  0  0  0  0
   -9.9985   -0.5877   -7.2217 C   0  0  0  0  0  0  0  0  0  0  0  0
   -9.6867   -1.9222   -7.1327 C   0  0  0  0  0  0  0  0  0  0  0  0
   -8.8520   -2.2481   -6.0584 C   0  0  0  0  0  0  0  0  0  0  0  0
   -8.3158   -3.5385   -5.6515 C   0  0  0  0  0  0  0  0  0  0  0  0
   -8.6803   -4.7613   -6.1450 C   0  0  0  0  0  0  0  0  0  0  0  0
   -8.2108   -5.9967   -5.6478 C   0  0  0  0  0  0  0  0  0  0  0  0
   -7.8934   -7.0372   -5.2806 N   0  0  0  0  0  0  0  0  0  0  0  0
   -9.6142   -4.9542   -7.1846 C   0  0  0  0  0  0  0  0  0  0  0  0
  -10.3580   -5.1768   -8.0303 N   0  0  0  0  0  0  0  0  0  0  0  0
  -10.7791    0.4182   -8.0300 C   0  0  0  0  0  0  0  0  0  0  0  0
  -12.3136    0.4687   -7.8278 C   0  0  0  0  0  0  0  0  0  0  0  0
  -12.5782   -0.0347   -6.4304 C   0  0  0  0  0  0  0  0  0  0  0  0
  -12.1389    0.8832   -5.5798 C   0  0  0  0  0  0  0  0  0  0  0  0
  -11.5696    2.0240   -6.3865 C   0  0  0  0  0  0  0  0  0  0  0  0
  -12.4976    1.9792   -7.6108 C   0  0  0  0  0  0  0  0  0  0  0  0
  -10.2616    1.4999   -7.0300 C   0  0  0  0  0  0  0  0  0  0  0  0
   -5.3881   -3.9089   -3.1828 C   0  0  0  0  0  0  0  0  0  0  0  0
   -4.0555   -4.2571   -3.4362 C   0  0  0  0  0  0  0  0  0  0  0  0
   -3.7577   -4.8822   -4.5979 F   0  0  0  0  0  0  0  0  0  0  0  0
   -3.0252   -3.9122   -2.5979 C   0  0  0  0  0  0  0  0  0  0  0  0
   -3.3079   -3.2010   -1.4265 C   0  0  0  0  0  0  0  0  0  0  0  0
   -4.6450   -2.9926   -1.0771 C   0  0  0  0  0  0  0  0  0  0  0  0
   -5.6619   -3.3260   -1.9413 C   0  0  0  0  0  0  0  0  0  0  0  0
   -2.2388   -2.6138   -0.6531 C   0  0  0  0  0  0  0  0  0  0  0  0
   -1.1173   -1.9678   -1.1455 C   0  0  0  0  0  0  0  0  0  0  0  0
   -0.8085   -1.7546   -2.4799 N   0  0  0  0  0  0  0  0  0  0  0  0
    0.5480   -1.6287   -2.8200 C   0  0  0  0  0  0  0  0  0  0  0  0
    0.9923   -0.5668   -3.6028 C   0  0  0  0  0  0  0  0  0  0  0  0
    2.3413   -0.3856   -3.8323 C   0  0  0  0  0  0  0  0  0  0  0  0
    3.2660   -1.2667   -3.2859 C   0  0  0  0  0  0  0  0  0  0  0  0
    5.0131   -1.0517   -3.4521 S   0  0  0  0  0  0  0  0  0  0  0  0
    5.1750    0.7521   -3.6124 C   0  0  0  0  0  0  0  0  0  0  0  0
    2.8205   -2.3732   -2.5684 C   0  0  0  0  0  0  0  0  0  0  0  0
    1.4747   -2.5510   -2.3329 C   0  0  0  0  0  0  0  0  0  0  0  0
   -1.8098   -1.5113   -3.4266 C   0  0  0  0  0  0  0  0  0  0  0  0
   -1.6773   -2.0122   -4.7200 C   0  0  0  0  0  0  0  0  0  0  0  0
   -2.7142   -1.9013   -5.6246 C   0  0  0  0  0  0  0  0  0  0  0  0
   -3.9024   -1.2935   -5.2438 C   0  0  0  0  0  0  0  0  0  0  0  0
   -5.3144   -1.1980   -6.3085 S   0  0  0  0  0  0  0  0  0  0  0  0
   -5.1201   -2.6791   -7.3468 C   0  0  0  0  0  0  0  0  0  0  0  0
   -4.0108   -0.7166   -3.9820 C   0  0  0  0  0  0  0  0  0  0  0  0
   -2.9721   -0.8189   -3.0846 C   0  0  0  0  0  0  0  0  0  0  0  0
   -0.3381   -1.4342   -0.0881 C   0  0  0  0  0  0  0  0  0  0  0  0
    1.1217   -0.5184   -0.0288 S   0  0  0  0  0  0  0  0  0  0  0  0
    0.9929   -0.3958    1.7055 C   0  0  0  0  0  0  0  0  0  0  0  0
   -0.1189   -1.0264    2.2115 C   0  0  0  0  0  0  0  0  0  0  0  0
   -0.4695   -1.0202    3.5574 N   0  0  0  0  0  0  0  0  0  0  0  0
   -1.8028   -0.8222    3.9224 C   0  0  0  0  0  0  0  0  0  0  0  0
   -2.3239   -1.4171    5.0730 C   0  0  0  0  0  0  0  0  0  0  0  0
   -3.6487   -1.2449    5.4043 C   0  0  0  0  0  0  0  0  0  0  0  0
   -4.4900   -0.4849    4.5948 C   0  0  0  0  0  0  0  0  0  0  0  0
   -6.1752   -0.3444    5.1106 S   0  0  0  0  0  0  0  0  0  0  0  0
   -7.0153    0.3208    3.6438 C   0  0  0  0  0  0  0  0  0  0  0  0
   -3.9735    0.1228    3.4597 C   0  0  0  0  0  0  0  0  0  0  0  0
   -2.6430   -0.0431    3.1290 C   0  0  0  0  0  0  0  0  0  0  0  0
    0.5105   -1.3164    4.5140 C   0  0  0  0  0  0  0  0  0  0  0  0
    1.3840   -2.3798    4.3105 C   0  0  0  0  0  0  0  0  0  0  0  0
    2.3281   -2.7114    5.2623 C   0  0  0  0  0  0  0  0  0  0  0  0
    2.4088   -1.9827    6.4403 C   0  0  0  0  0  0  0  0  0  0  0  0
    3.5338   -2.3496    7.7535 S   0  0  0  0  0  0  0  0  0  0  0  0
    4.4329   -3.8133    7.1692 C   0  0  0  0  0  0  0  0  0  0  0  0
    1.5522   -0.9006    6.6389 C   0  0  0  0  0  0  0  0  0  0  0  0
    0.6141   -0.5682    5.6871 C   0  0  0  0  0  0  0  0  0  0  0  0
   -0.8720   -1.6321    1.1724 C   0  0  0  0  0  0  0  0  0  0  0  0
   -2.3633   -2.4996    1.0973 S   0  0  0  0  0  0  0  0  0  0  0  0
    1.9371    0.4767    2.4058 C   0  0  0  0  0  0  0  0  0  0  0  0
    3.2386    0.0482    2.6747 C   0  0  0  0  0  0  0  0  0  0  0  0
    3.7233   -1.6357    2.3266 S   0  0  0  0  0  0  0  0  0  0  0  0
    4.3075   -1.5727    0.5868 C   0  0  0  0  0  0  0  0  0  0  0  0
    5.1007   -0.3358    0.2383 C   0  0  0  0  0  0  0  0  0  0  0  0
    4.1651    0.9045    3.2591 C   0  0  0  0  0  0  0  0  0  0  0  0
    5.8198    0.3302    3.6055 S   0  0  0  0  0  0  0  0  0  0  0  0
    5.4888   -0.5225    5.1866 C   0  0  0  0  0  0  0  0  0  0  0  0
    5.1394    0.4469    6.2954 C   0  0  0  0  0  0  0  0  0  0  0  0
    3.8035    2.2155    3.5802 C   0  0  0  0  0  0  0  0  0  0  0  0
    2.4878    2.6358    3.3481 C   0  0  0  0  0  0  0  0  0  0  0  0
    1.5548    1.7844    2.7440 C   0  0  0  0  0  0  0  0  0  0  0  0
    0.2011    2.2849    2.3870 C   0  0  0  0  0  0  0  0  0  0  0  0
   -0.5417    1.7261    1.6044 O   0  0  0  0  0  0  0  0  0  0  0  0
   -0.1676    3.5459    3.0353 C   0  0  0  0  0  0  0  0  0  0  0  0
    0.7936    4.4052    3.6436 C   0  0  0  0  0  0  0  0  0  0  0  0
    2.2036    4.0432    3.6954 C   0  0  0  0  0  0  0  0  0  0  0  0
    3.0951    4.8081    4.0186 O   0  0  0  0  0  0  0  0  0  0  0  0
    0.2329    5.5599    4.1139 C   0  0  0  0  0  0  0  0  0  0  0  0
   -1.4574    5.6045    3.8483 S   0  0  0  0  0  0  0  0  0  0  0  0
   -1.4244    4.0793    3.0676 C   0  0  0  0  0  0  0  0  0  0  0  0
    4.7690    3.1265    4.1792 C   0  0  0  0  0  0  0  0  0  0  0  0
    5.9727    3.4639    3.6730 C   0  0  0  0  0  0  0  0  0  0  0  0
    7.0196    4.0311    4.5691 C   0  0  0  0  0  0  0  0  0  0  0  0
    6.8601    4.4357    5.6971 O   0  0  0  0  0  0  0  0  0  0  0  0
    8.2824    3.8996    3.8214 C   0  0  0  0  0  0  0  0  0  0  0  0
    9.5626    4.2085    4.2764 C   0  0  0  0  0  0  0  0  0  0  0  0
   10.5581    3.9558    3.3640 C   0  0  0  0  0  0  0  0  0  0  0  0
   10.3055    3.4147    2.0952 C   0  0  0  0  0  0  0  0  0  0  0  0
    9.0503    3.1006    1.6344 C   0  0  0  0  0  0  0  0  0  0  0  0
    8.0191    3.3703    2.5397 C   0  0  0  0  0  0  0  0  0  0  0  0
    6.5786    3.2168    2.3761 C   0  0  0  0  0  0  0  0  0  0  0  0
    5.9328    3.0155    1.1875 C   0  0  0  0  0  0  0  0  0  0  0  0
    4.5400    3.1009    0.9957 C   0  0  0  0  0  0  0  0  0  0  0  0
    3.4264    3.1947    0.7295 N   0  0  0  0  0  0  0  0  0  0  0  0
    6.5666    2.7631   -0.0479 C   0  0  0  0  0  0  0  0  0  0  0  0
    6.9884    2.5340   -1.0911 N   0  0  0  0  0  0  0  0  0  0  0  0
   11.7643    3.4267    1.7127 C   0  0  0  0  0  0  0  0  0  0  0  0
   12.2455    4.5437    0.7538 C   0  0  0  0  0  0  0  0  0  0  0  0
   11.3035    5.7067    0.9450 C   0  0  0  0  0  0  0  0  0  0  0  0
   11.5390    6.2255    2.1427 C   0  0  0  0  0  0  0  0  0  0  0  0
   12.6446    5.4228    2.7830 C   0  0  0  0  0  0  0  0  0  0  0  0
   13.4659    5.0519    1.5380 C   0  0  0  0  0  0  0  0  0  0  0  0
   12.0442    4.0357    3.1229 C   0  0  0  0  0  0  0  0  0  0  0  0
   -6.2350   -5.0600   -4.7778 H   0  0  0  0  0  0  0  0  0  0  0  0
   -8.3103    0.8066   -4.5704 H   0  0  0  0  0  0  0  0  0  0  0  0
  -10.0441   -2.6589   -7.8332 H   0  0  0  0  0  0  0  0  0  0  0  0
  -10.4943    0.5132   -9.0759 H   0  0  0  0  0  0  0  0  0  0  0  0
  -12.8893    0.0025   -8.6228 H   0  0  0  0  0  0  0  0  0  0  0  0
  -12.9920   -1.0015   -6.2110 H   0  0  0  0  0  0  0  0  0  0  0  0
  -12.1120    0.8364   -4.5068 H   0  0  0  0  0  0  0  0  0  0  0  0
  -11.4687    2.9745   -5.8692 H   0  0  0  0  0  0  0  0  0  0  0  0
  -12.1446    2.5837   -8.4453 H   0  0  0  0  0  0  0  0  0  0  0  0
  -13.5252    2.2480   -7.3705 H   0  0  0  0  0  0  0  0  0  0  0  0
   -9.6414    2.3032   -7.4228 H   0  0  0  0  0  0  0  0  0  0  0  0
   -2.0140   -4.1779   -2.8602 H   0  0  0  0  0  0  0  0  0  0  0  0
   -4.8713   -2.5093   -0.1387 H   0  0  0  0  0  0  0  0  0  0  0  0
   -6.6853   -3.1309   -1.6685 H   0  0  0  0  0  0  0  0  0  0  0  0
    0.2747    0.1305   -4.0090 H   0  0  0  0  0  0  0  0  0  0  0  0
    2.6664    0.4543   -4.4254 H   0  0  0  0  0  0  0  0  0  0  0  0
    4.9877    1.0595   -4.6372 H   0  0  0  0  0  0  0  0  0  0  0  0
    4.4875    1.2342   -2.9244 H   0  0  0  0  0  0  0  0  0  0  0  0
    6.1968    0.9920   -3.3351 H   0  0  0  0  0  0  0  0  0  0  0  0
    3.5421   -3.0808   -2.1901 H   0  0  0  0  0  0  0  0  0  0  0  0
    1.1318   -3.3943   -1.7512 H   0  0  0  0  0  0  0  0  0  0  0  0
   -0.7653   -2.5152   -5.0065 H   0  0  0  0  0  0  0  0  0  0  0  0
   -2.5961   -2.3148   -6.6133 H   0  0  0  0  0  0  0  0  0  0  0  0
   -4.3978   -2.4958   -8.1368 H   0  0  0  0  0  0  0  0  0  0  0  0
   -6.0958   -2.8696   -7.7840 H   0  0  0  0  0  0  0  0  0  0  0  0
   -4.8144   -3.5161   -6.7264 H   0  0  0  0  0  0  0  0  0  0  0  0
   -4.9244   -0.2173   -3.7022 H   0  0  0  0  0  0  0  0  0  0  0  0
   -3.0663   -0.3822   -2.1024 H   0  0  0  0  0  0  0  0  0  0  0  0
   -1.6877   -2.0263    5.6971 H   0  0  0  0  0  0  0  0  0  0  0  0
   -4.0529   -1.7120    6.2892 H   0  0  0  0  0  0  0  0  0  0  0  0
   -6.7792   -0.2916    2.7789 H   0  0  0  0  0  0  0  0  0  0  0  0
   -8.0770    0.2615    3.8619 H   0  0  0  0  0  0  0  0  0  0  0  0
   -6.7324    1.3572    3.4830 H   0  0  0  0  0  0  0  0  0  0  0  0
   -4.5944    0.7329    2.8232 H   0  0  0  0  0  0  0  0  0  0  0  0
   -2.2473    0.4494    2.2540 H   0  0  0  0  0  0  0  0  0  0  0  0
    1.3108   -2.9645    3.4069 H   0  0  0  0  0  0  0  0  0  0  0  0
    2.9798   -3.5482    5.0726 H   0  0  0  0  0  0  0  0  0  0  0  0
    5.1298   -4.0616    7.9637 H   0  0  0  0  0  0  0  0  0  0  0  0
    4.9781   -3.5796    6.2594 H   0  0  0  0  0  0  0  0  0  0  0  0
    3.7408   -4.6360    7.0160 H   0  0  0  0  0  0  0  0  0  0  0  0
    1.6298   -0.3314    7.5528 H   0  0  0  0  0  0  0  0  0  0  0  0
   -0.0567    0.2631    5.8486 H   0  0  0  0  0  0  0  0  0  0  0  0
    4.9217   -2.4694    0.5089 H   0  0  0  0  0  0  0  0  0  0  0  0
    3.4340   -1.6724   -0.0563 H   0  0  0  0  0  0  0  0  0  0  0  0
    5.9232   -0.1875    0.9350 H   0  0  0  0  0  0  0  0  0  0  0  0
    5.5113   -0.4511   -0.7622 H   0  0  0  0  0  0  0  0  0  0  0  0
    4.4606    0.5455    0.2485 H   0  0  0  0  0  0  0  0  0  0  0  0
    6.4180   -1.0507    5.3976 H   0  0  0  0  0  0  0  0  0  0  0  0
    4.6891   -1.2393    5.0000 H   0  0  0  0  0  0  0  0  0  0  0  0
    5.8984    1.2216    6.3834 H   0  0  0  0  0  0  0  0  0  0  0  0
    5.0751   -0.0889    7.2398 H   0  0  0  0  0  0  0  0  0  0  0  0
    4.1747    0.9148    6.1061 H   0  0  0  0  0  0  0  0  0  0  0  0
    0.7328    6.3703    4.6066 H   0  0  0  0  0  0  0  0  0  0  0  0
   -2.3245    3.6432    2.6819 H   0  0  0  0  0  0  0  0  0  0  0  0
    4.5841    3.4397    5.2023 H   0  0  0  0  0  0  0  0  0  0  0  0
    9.7165    4.6139    5.2642 H   0  0  0  0  0  0  0  0  0  0  0  0
    8.8684    2.6740    0.6617 H   0  0  0  0  0  0  0  0  0  0  0  0
   12.2039    2.4594    1.4785 H   0  0  0  0  0  0  0  0  0  0  0  0
   12.4070    4.2203   -0.2709 H   0  0  0  0  0  0  0  0  0  0  0  0
   10.5475    5.9874    0.2353 H   0  0  0  0  0  0  0  0  0  0  0  0
   11.0188    7.0268    2.6339 H   0  0  0  0  0  0  0  0  0  0  0  0
   13.1700    5.9006    3.6057 H   0  0  0  0  0  0  0  0  0  0  0  0
   14.2134    4.2821    1.7245 H   0  0  0  0  0  0  0  0  0  0  0  0
   13.9361    5.9160    1.0712 H   0  0  0  0  0  0  0  0  0  0  0  0
   12.6713    3.4697    3.8090 H   0  0  0  0  0  0  0  0  0  0  0  0
  1  2  2  0  0  0  0
  2  3  1  0  0  0  0
  3  4  2  0  0  0  0
  3  5  1  0  0  0  0
  5  6  2  0  0  0  0
  6  7  1  0  0  0  0
  7  8  2  0  0  0  0
  8  9  1  0  0  0  0
  9 10  2  0  0  0  0
 10 11  1  0  0  0  0
 11 12  2  0  0  0  0
 12 13  1  0  0  0  0
 13 14  3  0  0  0  0
 12 15  1  0  0  0  0
 15 16  3  0  0  0  0
  8 17  1  0  0  0  0
 17 18  1  0  0  0  0
 18 19  1  0  0  0  0
 19 20  2  0  0  0  0
 20 21  1  0  0  0  0
 21 22  1  0  0  0  0
 21 23  1  0  0  0  0
  1 24  1  0  0  0  0
 24 25  2  0  0  0  0
 25 26  1  0  0  0  0
 25 27  1  0  0  0  0
 27 28  2  0  0  0  0
 28 29  1  0  0  0  0
 29 30  2  0  0  0  0
 28 31  1  0  0  0  0
 31 32  2  0  0  0  0
 32 33  1  0  0  0  0
 33 34  1  0  0  0  0
 34 35  2  0  0  0  0
 35 36  1  0  0  0  0
 36 37  2  0  0  0  0
 37 38  1  0  0  0  0
 38 39  1  0  0  0  0
 37 40  1  0  0  0  0
 40 41  2  0  0  0  0
 33 42  1  0  0  0  0
 42 43  2  0  0  0  0
 43 44  1  0  0  0  0
 44 45  2  0  0  0  0
 45 46  1  0  0  0  0
 46 47  1  0  0  0  0
 45 48  1  0  0  0  0
 48 49  2  0  0  0  0
 32 50  1  0  0  0  0
 50 51  1  0  0  0  0
 51 52  1  0  0  0  0
 52 53  2  0  0  0  0
 53 54  1  0  0  0  0
 54 55  1  0  0  0  0
 55 56  2  0  0  0  0
 56 57  1  0  0  0  0
 57 58  2  0  0  0  0
 58 59  1  0  0  0  0
 59 60  1  0  0  0  0
 58 61  1  0  0  0  0
 61 62  2  0  0  0  0
 54 63  1  0  0  0  0
 63 64  2  0  0  0  0
 64 65  1  0  0  0  0
 65 66  2  0  0  0  0
 66 67  1  0  0  0  0
 67 68  1  0  0  0  0
 66 69  1  0  0  0  0
 69 70  2  0  0  0  0
 53 71  1  0  0  0  0
 71 72  1  0  0  0  0
 52 73  1  0  0  0  0
 73 74  2  0  0  0  0
 74 75  1  0  0  0  0
 75 76  1  0  0  0  0
 76 77  1  0  0  0  0
 74 78  1  0  0  0  0
 78 79  1  0  0  0  0
 79 80  1  0  0  0  0
 80 81  1  0  0  0  0
 78 82  2  0  0  0  0
 82 83  1  0  0  0  0
 83 84  2  0  0  0  0
 84 85  1  0  0  0  0
 85 86  2  0  0  0  0
 85 87  1  0  0  0  0
 87 88  1  0  0  0  0
 88 89  1  0  0  0  0
 89 90  2  0  0  0  0
 88 91  2  0  0  0  0
 91 92  1  0  0  0  0
 92 93  1  0  0  0  0
 82 94  1  0  0  0  0
 94 95  2  0  0  0  0
 95 96  1  0  0  0  0
 96 97  2  0  0  0  0
 96 98  1  0  0  0  0
 98 99  2  0  0  0  0
 99100  1  0  0  0  0
100101  2  0  0  0  0
101102  1  0  0  0  0
102103  2  0  0  0  0
103104  1  0  0  0  0
104105  2  0  0  0  0
105106  1  0  0  0  0
106107  3  0  0  0  0
105108  1  0  0  0  0
108109  3  0  0  0  0
101110  1  0  0  0  0
110111  1  0  0  0  0
111112  1  0  0  0  0
112113  2  0  0  0  0
113114  1  0  0  0  0
114115  1  0  0  0  0
114116  1  0  0  0  0
 11  2  1  0  0  0  0
 23 17  1  0  0  0  0
 30 24  1  0  0  0  0
 72 31  1  0  0  0  0
 84 73  1  0  0  0  0
 93 87  2  0  0  0  0
104 95  1  0  0  0  0
116110  1  0  0  0  0
 10  5  1  0  0  0  0
 22 18  1  0  0  0  0
 41 34  1  0  0  0  0
 49 42  1  0  0  0  0
 71 50  2  0  0  0  0
 89 83  1  0  0  0  0
103 98  1  0  0  0  0
115111  1  0  0  0  0
 23  7  1  0  0  0  0
 62 55  1  0  0  0  0
 70 63  1  0  0  0  0
116100  1  0  0  0  0
  1117  1  0  0  0  0
  6118  1  0  0  0  0
  9119  1  0  0  0  0
 17120  1  0  0  0  0
 18121  1  0  0  0  0
 19122  1  0  0  0  0
 20123  1  0  0  0  0
 21124  1  0  0  0  0
 22125  1  0  0  0  0
 22126  1  0  0  0  0
 23127  1  0  0  0  0
 27128  1  0  0  0  0
 29129  1  0  0  0  0
 30130  1  0  0  0  0
 35131  1  0  0  0  0
 36132  1  0  0  0  0
 39133  1  0  0  0  0
 39134  1  0  0  0  0
 39135  1  0  0  0  0
 40136  1  0  0  0  0
 41137  1  0  0  0  0
 43138  1  0  0  0  0
 44139  1  0  0  0  0
 47140  1  0  0  0  0
 47141  1  0  0  0  0
 47142  1  0  0  0  0
 48143  1  0  0  0  0
 49144  1  0  0  0  0
 56145  1  0  0  0  0
 57146  1  0  0  0  0
 60147  1  0  0  0  0
 60148  1  0  0  0  0
 60149  1  0  0  0  0
 61150  1  0  0  0  0
 62151  1  0  0  0  0
 64152  1  0  0  0  0
 65153  1  0  0  0  0
 68154  1  0  0  0  0
 68155  1  0  0  0  0
 68156  1  0  0  0  0
 69157  1  0  0  0  0
 70158  1  0  0  0  0
 76159  1  0  0  0  0
 76160  1  0  0  0  0
 77161  1  0  0  0  0
 77162  1  0  0  0  0
 77163  1  0  0  0  0
 80164  1  0  0  0  0
 80165  1  0  0  0  0
 81166  1  0  0  0  0
 81167  1  0  0  0  0
 81168  1  0  0  0  0
 91169  1  0  0  0  0
 93170  1  0  0  0  0
 94171  1  0  0  0  0
 99172  1  0  0  0  0
102173  1  0  0  0  0
110174  1  0  0  0  0
111175  1  0  0  0  0
112176  1  0  0  0  0
113177  1  0  0  0  0
114178  1  0  0  0  0
115179  1  0  0  0  0
115180  1  0  0  0  0
116181  1  0  0  0  0
M  END
