
  xtb     02122211573D
 energy: -281.443523827319 gnorm: 0.000433315094 xtb: 6.4.1 (unknown)
164181  0     0  0            999 V2000
    2.7365    5.8613   -2.2568 C   0  0  0  0  0  0  0  0  0  0  0  0
    3.8577    5.2201   -2.7026 C   0  0  0  0  0  0  0  0  0  0  0  0
    4.0890    3.7687   -2.6556 C   0  0  0  0  0  0  0  0  0  0  0  0
    3.2868    2.9039   -2.3454 O   0  0  0  0  0  0  0  0  0  0  0  0
    5.4769    3.5522   -3.0809 C   0  0  0  0  0  0  0  0  0  0  0  0
    6.1576    2.3371   -3.1256 C   0  0  0  0  0  0  0  0  0  0  0  0
    7.4534    2.4429   -3.5693 C   0  0  0  0  0  0  0  0  0  0  0  0
    8.0321    3.6669   -3.9336 C   0  0  0  0  0  0  0  0  0  0  0  0
    7.3722    4.8724   -3.8875 C   0  0  0  0  0  0  0  0  0  0  0  0
    6.0495    4.7898   -3.4428 C   0  0  0  0  0  0  0  0  0  0  0  0
    5.0517    5.8409   -3.2540 C   0  0  0  0  0  0  0  0  0  0  0  0
    5.2188    7.1615   -3.5758 C   0  0  0  0  0  0  0  0  0  0  0  0
    6.3980    7.7070   -4.1275 C   0  0  0  0  0  0  0  0  0  0  0  0
    7.3188    8.2241   -4.5776 N   0  0  0  0  0  0  0  0  0  0  0  0
    4.2437    8.1723   -3.4355 C   0  0  0  0  0  0  0  0  0  0  0  0
    3.5087    9.0521   -3.3676 N   0  0  0  0  0  0  0  0  0  0  0  0
    9.3619    3.0327   -4.2542 C   0  0  0  0  0  0  0  0  0  0  0  0
   10.5013    3.1880   -3.2161 C   0  0  0  0  0  0  0  0  0  0  0  0
    9.8386    3.3649   -1.8722 C   0  0  0  0  0  0  0  0  0  0  0  0
    9.2908    2.2051   -1.5346 C   0  0  0  0  0  0  0  0  0  0  0  0
    9.5730    1.2225   -2.6442 C   0  0  0  0  0  0  0  0  0  0  0  0
   10.9516    1.7225   -3.1047 C   0  0  0  0  0  0  0  0  0  0  0  0
    8.7154    1.6689   -3.8539 C   0  0  0  0  0  0  0  0  0  0  0  0
    1.5675    5.3247   -1.6785 C   0  0  0  0  0  0  0  0  0  0  0  0
    0.5135    6.1139   -1.2382 C   0  0  0  0  0  0  0  0  0  0  0  0
   -0.5578    5.3994   -0.6964 C   0  0  0  0  0  0  0  0  0  0  0  0
   -1.8365    6.0766   -0.3926 C   0  0  0  0  0  0  0  0  0  0  0  0
   -1.9323    7.2062    0.0093 O   0  0  0  0  0  0  0  0  0  0  0  0
   -2.8800    5.3029   -0.7285 O   0  0  0  0  0  0  0  0  0  0  0  0
   -4.1558    5.9275   -0.6950 C   0  0  0  0  0  0  0  0  0  0  0  0
   -0.3188    4.0322   -0.6909 C   0  0  0  0  0  0  0  0  0  0  0  0
    1.2164    3.6394   -1.3984 S   0  0  0  0  0  0  0  0  0  0  0  0
   -1.0205    2.9419   -0.0925 C   0  0  0  0  0  0  0  0  0  0  0  0
   -1.5437    2.8299    1.1847 C   0  0  0  0  0  0  0  0  0  0  0  0
   -1.6398    3.8895    2.1031 N   0  0  0  0  0  0  0  0  0  0  0  0
   -0.6376    3.9414    3.0833 C   0  0  0  0  0  0  0  0  0  0  0  0
    0.6750    3.6145    2.7500 C   0  0  0  0  0  0  0  0  0  0  0  0
    1.6800    3.6512    3.6979 C   0  0  0  0  0  0  0  0  0  0  0  0
    1.3918    4.0147    5.0049 C   0  0  0  0  0  0  0  0  0  0  0  0
    2.5876    4.1135    6.3003 S   0  0  0  0  0  0  0  0  0  0  0  0
    4.1094    3.4804    5.5396 C   0  0  0  0  0  0  0  0  0  0  0  0
    0.0778    4.3283    5.3476 C   0  0  0  0  0  0  0  0  0  0  0  0
   -0.9244    4.2850    4.4060 C   0  0  0  0  0  0  0  0  0  0  0  0
   -2.8620    4.5490    2.2717 C   0  0  0  0  0  0  0  0  0  0  0  0
   -4.0677    3.9256    1.9672 C   0  0  0  0  0  0  0  0  0  0  0  0
   -5.2716    4.5801    2.1561 C   0  0  0  0  0  0  0  0  0  0  0  0
   -5.2888    5.8757    2.6498 C   0  0  0  0  0  0  0  0  0  0  0  0
   -6.7582    6.8168    2.9285 S   0  0  0  0  0  0  0  0  0  0  0  0
   -8.1005    5.6449    2.5798 C   0  0  0  0  0  0  0  0  0  0  0  0
   -4.0808    6.5147    2.9318 C   0  0  0  0  0  0  0  0  0  0  0  0
   -2.8836    5.8647    2.7417 C   0  0  0  0  0  0  0  0  0  0  0  0
   -1.7959    1.4773    1.5095 C   0  0  0  0  0  0  0  0  0  0  0  0
   -2.3747    0.6535    2.9176 S   0  0  0  0  0  0  0  0  0  0  0  0
   -2.1355   -0.9037    2.1334 C   0  0  0  0  0  0  0  0  0  0  0  0
   -1.6962   -0.7731    0.8163 C   0  0  0  0  0  0  0  0  0  0  0  0
   -1.3578   -1.7941   -0.0622 N   0  0  0  0  0  0  0  0  0  0  0  0
   -0.1143   -1.6065   -0.7109 C   0  0  0  0  0  0  0  0  0  0  0  0
   -0.0078   -1.5899   -2.0962 C   0  0  0  0  0  0  0  0  0  0  0  0
    1.2048   -1.3187   -2.6982 C   0  0  0  0  0  0  0  0  0  0  0  0
    2.3252   -1.0535   -1.9213 C   0  0  0  0  0  0  0  0  0  0  0  0
    3.9045   -0.6737   -2.5960 S   0  0  0  0  0  0  0  0  0  0  0  0
    3.5191   -0.1664   -4.2975 C   0  0  0  0  0  0  0  0  0  0  0  0
    2.2252   -1.0978   -0.5325 C   0  0  0  0  0  0  0  0  0  0  0  0
    1.0172   -1.3706    0.0680 C   0  0  0  0  0  0  0  0  0  0  0  0
   -2.2521   -2.7734   -0.4795 C   0  0  0  0  0  0  0  0  0  0  0  0
   -3.6208   -2.6494   -0.2482 C   0  0  0  0  0  0  0  0  0  0  0  0
   -4.4939   -3.6601   -0.6023 C   0  0  0  0  0  0  0  0  0  0  0  0
   -4.0155   -4.8144   -1.2047 C   0  0  0  0  0  0  0  0  0  0  0  0
   -5.0202   -6.1884   -1.6715 S   0  0  0  0  0  0  0  0  0  0  0  0
   -6.7065   -5.6630   -1.2559 C   0  0  0  0  0  0  0  0  0  0  0  0
   -2.6502   -4.9326   -1.4634 C   0  0  0  0  0  0  0  0  0  0  0  0
   -1.7792   -3.9319   -1.1049 C   0  0  0  0  0  0  0  0  0  0  0  0
   -1.4889    0.5853    0.4927 C   0  0  0  0  0  0  0  0  0  0  0  0
   -0.8845    1.3954   -0.9039 S   0  0  0  0  0  0  0  0  0  0  0  0
   -2.2073   -2.0928    2.8947 C   0  0  0  0  0  0  0  0  0  0  0  0
   -2.4095   -2.2417    4.2531 C   0  0  0  0  0  0  0  0  0  0  0  0
   -2.2324   -3.5535    4.7078 C   0  0  0  0  0  0  0  0  0  0  0  0
   -2.3876   -3.8674    6.1421 C   0  0  0  0  0  0  0  0  0  0  0  0
   -2.9033   -3.1178    6.9342 O   0  0  0  0  0  0  0  0  0  0  0  0
   -1.8928   -5.0661    6.4727 O   0  0  0  0  0  0  0  0  0  0  0  0
   -1.9938   -5.4223    7.8440 C   0  0  0  0  0  0  0  0  0  0  0  0
   -1.8720   -4.4438    3.6940 C   0  0  0  0  0  0  0  0  0  0  0  0
   -1.8210   -3.6173    2.1666 S   0  0  0  0  0  0  0  0  0  0  0  0
   -1.6975   -5.8454    3.7287 C   0  0  0  0  0  0  0  0  0  0  0  0
   -1.1747   -6.6298    2.7449 C   0  0  0  0  0  0  0  0  0  0  0  0
   -1.5697   -8.0624    2.6604 C   0  0  0  0  0  0  0  0  0  0  0  0
   -2.0448   -8.7402    3.5425 O   0  0  0  0  0  0  0  0  0  0  0  0
   -1.3288   -8.4407    1.2530 C   0  0  0  0  0  0  0  0  0  0  0  0
   -1.7032   -9.6255    0.6217 C   0  0  0  0  0  0  0  0  0  0  0  0
   -1.3785   -9.6761   -0.7127 C   0  0  0  0  0  0  0  0  0  0  0  0
   -0.7185   -8.6316   -1.3750 C   0  0  0  0  0  0  0  0  0  0  0  0
   -0.3281   -7.4647   -0.7633 C   0  0  0  0  0  0  0  0  0  0  0  0
   -0.6634   -7.3871    0.5910 C   0  0  0  0  0  0  0  0  0  0  0  0
   -0.4139   -6.3181    1.5515 C   0  0  0  0  0  0  0  0  0  0  0  0
    0.5493   -5.3495    1.4315 C   0  0  0  0  0  0  0  0  0  0  0  0
    0.9303   -4.4969    2.4892 C   0  0  0  0  0  0  0  0  0  0  0  0
    1.3013   -3.8043    3.3263 N   0  0  0  0  0  0  0  0  0  0  0  0
    1.2884   -5.0951    0.2613 C   0  0  0  0  0  0  0  0  0  0  0  0
    1.8898   -4.8042   -0.6734 N   0  0  0  0  0  0  0  0  0  0  0  0
   -0.7293   -9.3552   -2.6979 C   0  0  0  0  0  0  0  0  0  0  0  0
   -1.7811   -8.8902   -3.7277 C   0  0  0  0  0  0  0  0  0  0  0  0
   -1.8795  -10.0507   -4.6913 C   0  0  0  0  0  0  0  0  0  0  0  0
   -2.4994  -11.0429   -4.0654 C   0  0  0  0  0  0  0  0  0  0  0  0
   -2.8313  -10.5691   -2.6689 C   0  0  0  0  0  0  0  0  0  0  0  0
   -3.0879   -9.0828   -2.9479 C   0  0  0  0  0  0  0  0  0  0  0  0
   -1.4609  -10.5217   -1.9596 C   0  0  0  0  0  0  0  0  0  0  0  0
    2.7194    6.9426   -2.3187 H   0  0  0  0  0  0  0  0  0  0  0  0
    5.6796    1.4201   -2.8174 H   0  0  0  0  0  0  0  0  0  0  0  0
    7.8363    5.8041   -4.1642 H   0  0  0  0  0  0  0  0  0  0  0  0
    9.7142    3.1521   -5.2767 H   0  0  0  0  0  0  0  0  0  0  0  0
   11.2542    3.9254   -3.4806 H   0  0  0  0  0  0  0  0  0  0  0  0
    9.7897    4.3014   -1.3481 H   0  0  0  0  0  0  0  0  0  0  0  0
    8.6915    1.9775   -0.6727 H   0  0  0  0  0  0  0  0  0  0  0  0
    9.4795    0.1705   -2.3891 H   0  0  0  0  0  0  0  0  0  0  0  0
   11.2743    1.2944   -4.0528 H   0  0  0  0  0  0  0  0  0  0  0  0
   11.7252    1.5760   -2.3527 H   0  0  0  0  0  0  0  0  0  0  0  0
    8.6397    0.8967   -4.6168 H   0  0  0  0  0  0  0  0  0  0  0  0
    0.5079    7.1863   -1.3255 H   0  0  0  0  0  0  0  0  0  0  0  0
   -4.2467    6.5613    0.1878 H   0  0  0  0  0  0  0  0  0  0  0  0
   -4.2872    6.5395   -1.5902 H   0  0  0  0  0  0  0  0  0  0  0  0
   -4.8907    5.1275   -0.6740 H   0  0  0  0  0  0  0  0  0  0  0  0
    0.9236    3.3297    1.7388 H   0  0  0  0  0  0  0  0  0  0  0  0
    2.6829    3.3961    3.3956 H   0  0  0  0  0  0  0  0  0  0  0  0
    4.4336    4.1431    4.7424 H   0  0  0  0  0  0  0  0  0  0  0  0
    4.8499    3.4712    6.3334 H   0  0  0  0  0  0  0  0  0  0  0  0
    3.9469    2.4707    5.1742 H   0  0  0  0  0  0  0  0  0  0  0  0
   -0.1486    4.5945    6.3686 H   0  0  0  0  0  0  0  0  0  0  0  0
   -1.9396    4.5066    4.6964 H   0  0  0  0  0  0  0  0  0  0  0  0
   -4.0729    2.9160    1.5848 H   0  0  0  0  0  0  0  0  0  0  0  0
   -6.1862    4.0611    1.9178 H   0  0  0  0  0  0  0  0  0  0  0  0
   -8.0887    5.3620    1.5309 H   0  0  0  0  0  0  0  0  0  0  0  0
   -8.0109    4.7766    3.2257 H   0  0  0  0  0  0  0  0  0  0  0  0
   -9.0184    6.1788    2.8052 H   0  0  0  0  0  0  0  0  0  0  0  0
   -4.0958    7.5315    3.2923 H   0  0  0  0  0  0  0  0  0  0  0  0
   -1.9542    6.3724    2.9475 H   0  0  0  0  0  0  0  0  0  0  0  0
   -0.8817   -1.7774   -2.7025 H   0  0  0  0  0  0  0  0  0  0  0  0
    1.2593   -1.3090   -3.7745 H   0  0  0  0  0  0  0  0  0  0  0  0
    4.4434    0.2242   -4.7122 H   0  0  0  0  0  0  0  0  0  0  0  0
    2.7664    0.6156   -4.2696 H   0  0  0  0  0  0  0  0  0  0  0  0
    3.1907   -1.0198   -4.8834 H   0  0  0  0  0  0  0  0  0  0  0  0
    3.1028   -0.9125    0.0667 H   0  0  0  0  0  0  0  0  0  0  0  0
    0.9389   -1.4010    1.1452 H   0  0  0  0  0  0  0  0  0  0  0  0
   -4.0064   -1.7553    0.2188 H   0  0  0  0  0  0  0  0  0  0  0  0
   -5.5445   -3.5299   -0.3993 H   0  0  0  0  0  0  0  0  0  0  0  0
   -6.9638   -4.7681   -1.8149 H   0  0  0  0  0  0  0  0  0  0  0  0
   -7.3501   -6.4836   -1.5574 H   0  0  0  0  0  0  0  0  0  0  0  0
   -6.7932   -5.5013   -0.1854 H   0  0  0  0  0  0  0  0  0  0  0  0
   -2.2841   -5.8295   -1.9391 H   0  0  0  0  0  0  0  0  0  0  0  0
   -0.7222   -4.0411   -1.2906 H   0  0  0  0  0  0  0  0  0  0  0  0
   -2.6586   -1.4274    4.9100 H   0  0  0  0  0  0  0  0  0  0  0  0
   -3.0369   -5.4000    8.1665 H   0  0  0  0  0  0  0  0  0  0  0  0
   -1.4215   -4.7243    8.4582 H   0  0  0  0  0  0  0  0  0  0  0  0
   -1.5867   -6.4266    7.9256 H   0  0  0  0  0  0  0  0  0  0  0  0
   -2.1193   -6.3681    4.5791 H   0  0  0  0  0  0  0  0  0  0  0  0
   -2.2013  -10.4115    1.1672 H   0  0  0  0  0  0  0  0  0  0  0  0
    0.1847   -6.6680   -1.2766 H   0  0  0  0  0  0  0  0  0  0  0  0
    0.2456   -9.5483   -3.1415 H   0  0  0  0  0  0  0  0  0  0  0  0
   -1.5945   -7.9107   -4.1599 H   0  0  0  0  0  0  0  0  0  0  0  0
   -1.4525  -10.0505   -5.6770 H   0  0  0  0  0  0  0  0  0  0  0  0
   -2.6935  -12.0367   -4.4242 H   0  0  0  0  0  0  0  0  0  0  0  0
   -3.6015  -11.1191   -2.1354 H   0  0  0  0  0  0  0  0  0  0  0  0
   -3.1706   -8.4691   -2.0533 H   0  0  0  0  0  0  0  0  0  0  0  0
   -3.9661   -8.9240   -3.5708 H   0  0  0  0  0  0  0  0  0  0  0  0
   -0.9726  -11.4931   -1.9093 H   0  0  0  0  0  0  0  0  0  0  0  0
  1  2  2  0  0  0  0
  2  3  1  0  0  0  0
  3  4  2  0  0  0  0
  3  5  1  0  0  0  0
  5  6  2  0  0  0  0
  6  7  1  0  0  0  0
  7  8  2  0  0  0  0
  8  9  1  0  0  0  0
  9 10  2  0  0  0  0
 10 11  1  0  0  0  0
 11 12  2  0  0  0  0
 12 13  1  0  0  0  0
 13 14  3  0  0  0  0
 12 15  1  0  0  0  0
 15 16  3  0  0  0  0
  8 17  1  0  0  0  0
 17 18  1  0  0  0  0
 18 19  1  0  0  0  0
 19 20  2  0  0  0  0
 20 21  1  0  0  0  0
 21 22  1  0  0  0  0
 21 23  1  0  0  0  0
  1 24  1  0  0  0  0
 24 25  2  0  0  0  0
 25 26  1  0  0  0  0
 26 27  1  0  0  0  0
 27 28  2  0  0  0  0
 27 29  1  0  0  0  0
 29 30  1  0  0  0  0
 26 31  2  0  0  0  0
 31 32  1  0  0  0  0
 31 33  1  0  0  0  0
 33 34  2  0  0  0  0
 34 35  1  0  0  0  0
 35 36  1  0  0  0  0
 36 37  2  0  0  0  0
 37 38  1  0  0  0  0
 38 39  2  0  0  0  0
 39 40  1  0  0  0  0
 40 41  1  0  0  0  0
 39 42  1  0  0  0  0
 42 43  2  0  0  0  0
 35 44  1  0  0  0  0
 44 45  2  0  0  0  0
 45 46  1  0  0  0  0
 46 47  2  0  0  0  0
 47 48  1  0  0  0  0
 48 49  1  0  0  0  0
 47 50  1  0  0  0  0
 50 51  2  0  0  0  0
 34 52  1  0  0  0  0
 52 53  1  0  0  0  0
 53 54  1  0  0  0  0
 54 55  2  0  0  0  0
 55 56  1  0  0  0  0
 56 57  1  0  0  0  0
 57 58  2  0  0  0  0
 58 59  1  0  0  0  0
 59 60  2  0  0  0  0
 60 61  1  0  0  0  0
 61 62  1  0  0  0  0
 60 63  1  0  0  0  0
 63 64  2  0  0  0  0
 56 65  1  0  0  0  0
 65 66  2  0  0  0  0
 66 67  1  0  0  0  0
 67 68  2  0  0  0  0
 68 69  1  0  0  0  0
 69 70  1  0  0  0  0
 68 71  1  0  0  0  0
 71 72  2  0  0  0  0
 55 73  1  0  0  0  0
 73 74  1  0  0  0  0
 54 75  1  0  0  0  0
 75 76  2  0  0  0  0
 76 77  1  0  0  0  0
 77 78  1  0  0  0  0
 78 79  2  0  0  0  0
 78 80  1  0  0  0  0
 80 81  1  0  0  0  0
 77 82  2  0  0  0  0
 82 83  1  0  0  0  0
 82 84  1  0  0  0  0
 84 85  2  0  0  0  0
 85 86  1  0  0  0  0
 86 87  2  0  0  0  0
 86 88  1  0  0  0  0
 88 89  2  0  0  0  0
 89 90  1  0  0  0  0
 90 91  2  0  0  0  0
 91 92  1  0  0  0  0
 92 93  2  0  0  0  0
 93 94  1  0  0  0  0
 94 95  2  0  0  0  0
 95 96  1  0  0  0  0
 96 97  3  0  0  0  0
 95 98  1  0  0  0  0
 98 99  3  0  0  0  0
 91100  1  0  0  0  0
100101  1  0  0  0  0
101102  1  0  0  0  0
102103  2  0  0  0  0
103104  1  0  0  0  0
104105  1  0  0  0  0
104106  1  0  0  0  0
 11  2  1  0  0  0  0
 23 17  1  0  0  0  0
 32 24  1  0  0  0  0
 74 33  1  0  0  0  0
 83 75  1  0  0  0  0
 94 85  1  0  0  0  0
106100  1  0  0  0  0
 10  5  1  0  0  0  0
 22 18  1  0  0  0  0
 43 36  1  0  0  0  0
 51 44  1  0  0  0  0
 73 52  2  0  0  0  0
 93 88  1  0  0  0  0
105101  1  0  0  0  0
 23  7  1  0  0  0  0
 64 57  1  0  0  0  0
 72 65  1  0  0  0  0
106 90  1  0  0  0  0
  1107  1  0  0  0  0
  6108  1  0  0  0  0
  9109  1  0  0  0  0
 17110  1  0  0  0  0
 18111  1  0  0  0  0
 19112  1  0  0  0  0
 20113  1  0  0  0  0
 21114  1  0  0  0  0
 22115  1  0  0  0  0
 22116  1  0  0  0  0
 23117  1  0  0  0  0
 25118  1  0  0  0  0
 30119  1  0  0  0  0
 30120  1  0  0  0  0
 30121  1  0  0  0  0
 37122  1  0  0  0  0
 38123  1  0  0  0  0
 41124  1  0  0  0  0
 41125  1  0  0  0  0
 41126  1  0  0  0  0
 42127  1  0  0  0  0
 43128  1  0  0  0  0
 45129  1  0  0  0  0
 46130  1  0  0  0  0
 49131  1  0  0  0  0
 49132  1  0  0  0  0
 49133  1  0  0  0  0
 50134  1  0  0  0  0
 51135  1  0  0  0  0
 58136  1  0  0  0  0
 59137  1  0  0  0  0
 62138  1  0  0  0  0
 62139  1  0  0  0  0
 62140  1  0  0  0  0
 63141  1  0  0  0  0
 64142  1  0  0  0  0
 66143  1  0  0  0  0
 67144  1  0  0  0  0
 70145  1  0  0  0  0
 70146  1  0  0  0  0
 70147  1  0  0  0  0
 71148  1  0  0  0  0
 72149  1  0  0  0  0
 76150  1  0  0  0  0
 81151  1  0  0  0  0
 81152  1  0  0  0  0
 81153  1  0  0  0  0
 84154  1  0  0  0  0
 89155  1  0  0  0  0
 92156  1  0  0  0  0
100157  1  0  0  0  0
101158  1  0  0  0  0
102159  1  0  0  0  0
103160  1  0  0  0  0
104161  1  0  0  0  0
105162  1  0  0  0  0
105163  1  0  0  0  0
106164  1  0  0  0  0
M  END
