176

C         -6.19230        1.19040       -3.72430
C         -5.91560        2.15390       -4.66460
C         -4.57280        2.61030       -5.03310
O         -3.50740        2.21240       -4.58950
C         -4.75000        3.61450       -6.09180
C         -3.75000        4.33430       -6.73950
C         -4.21890        5.21040       -7.68850
C         -5.58260        5.35720       -7.97260
C         -6.57960        4.65680       -7.33480
C         -6.12450        3.76070       -6.36520
C         -6.87210        2.87190       -5.47590
C         -8.24140        2.80790       -5.38780
C         -8.96180        2.03320       -4.45790
N         -9.62040        1.45790       -3.71100
C         -9.13170        3.54990       -6.18910
N         -9.92360        4.11580       -6.79930
C         -5.33000        6.39140       -9.04100
C         -5.41910        5.93840      -10.51940
C         -5.09780        4.46470      -10.53730
C         -3.80680        4.32810      -10.26600
C         -3.23160        5.70760      -10.05990
C         -4.09350        6.51050      -11.04700
C         -3.81020        6.23020       -8.72170
C         -5.34690        0.64250       -2.75230
C         -5.79290       -0.21990       -1.74620
C         -4.88540       -0.42450       -0.72110
C         -5.15630       -1.27560        0.45460
C         -4.88810       -2.64510        0.38260
C         -5.18780       -3.44730        1.47120
C         -5.73640       -2.91940        2.63030
C         -6.04430       -3.79510        3.80770
C         -5.98500       -1.55630        2.68690
C         -5.70920       -0.72610        1.61210
C         -5.97960        0.74560        1.70720
C         -4.27990       -3.23170       -0.85410
C         -3.71300        0.31730       -0.91050
S         -3.69530        1.11020       -2.45460
C         -2.64160        0.45790        0.00340
C         -1.69410        1.48260        0.10720
N         -1.60010        2.65710       -0.62150
C         -0.29050        3.15410       -0.79970
C          0.70650        2.31300       -1.28770
C          2.03190        2.69970       -1.25780
C          2.37040        3.94320       -0.74090
S          4.03310        4.48040       -0.48860
C          5.02580        2.98420       -0.74000
C          1.36520        4.83150       -0.36100
C          0.04420        4.44430       -0.39160
C         -2.69270        3.39330       -1.06710
C         -2.58170        4.16650       -2.22670
C         -3.69500        4.76130       -2.77080
C         -4.94640        4.59800       -2.17850
S         -6.32990        5.25230       -3.06020
C         -7.75940        4.51860       -2.21620
C         -5.04420        3.92410       -0.96890
C         -3.92340        3.33850       -0.41480
C         -0.72900        1.16880        1.09110
S          0.66280        2.00660        1.68860
C          1.13070        0.58850        2.61620
C          0.10860       -0.38050        2.64750
N          0.04090       -1.46590        3.48270
C          0.58720       -1.44310        4.76680
C          1.02420       -2.62680        5.36950
C          1.57840       -2.60550        6.62710
C          1.71180       -1.40520        7.32600
S          2.45100       -1.50370        8.92190
C          2.57130        0.22530        9.46130
C          1.25620       -0.22960        6.74310
C          0.69600       -0.25210        5.48160
C         -0.62790       -2.61320        3.02190
C         -0.38860       -3.08530        1.73110
C         -1.05220       -4.19750        1.26670
C         -1.96190       -4.86720        2.08290
S         -2.75260       -6.27960        1.38610
C         -3.54360       -7.08190        2.81090
C         -2.20110       -4.40100        3.36900
C         -1.54050       -3.28090        3.83220
C         -0.91390       -0.04760        1.72930
S         -2.36740       -0.82130        1.19310
C          2.49260        0.52050        2.98220
C          3.23300       -0.66810        3.19180
C          4.68340       -0.67640        3.23500
N          5.15910       -1.91260        3.37750
S          3.93450       -2.95690        3.41760
N          2.73390       -1.89930        3.26400
C          5.47010        0.49250        3.10340
C          4.72480        1.68510        2.99550
N          5.22920        2.91190        2.82600
S          4.03060        3.94900        2.57860
N          2.80740        2.91300        2.68180
C          3.28860        1.68700        2.90660
C          6.88470        0.52280        3.04220
C          7.73760       -0.46030        2.63050
C          9.16950       -0.43150        3.01870
O          9.77250        0.48990        3.52360
C          9.68790       -1.77960        2.69870
C         10.95440       -2.28710        2.97840
C         11.13840       -3.58870        2.57530
C         10.13360       -4.33910        1.95120
C          8.88070       -3.85100        1.66470
C          8.67870       -2.52490        2.05460
C          7.51040       -1.66630        1.87970
C          6.50020       -1.87680        0.97070
C          5.55560       -0.90220        0.60700
N          4.78110       -0.14060        0.22770
C          6.32530       -3.06200        0.23260
N          6.10600       -4.00960       -0.37920
C         11.00990       -5.56110        1.82890
C         11.60230       -5.84480        0.43240
C         12.76270       -6.77200        0.71250
C         13.71650       -6.05890        1.29770
C         13.21660       -4.63780        1.42300
C         12.36570       -4.54450        0.14990
C         12.13300       -4.72230        2.51900
H         -7.21400        0.83480       -3.65880
H         -2.71100        4.18940       -6.48700
H         -7.62380        4.78570       -7.56470
H         -5.78510        7.36630       -8.87780
H         -6.33160        6.23680      -11.02850
H         -5.83160        3.69370      -10.68340
H         -3.24640        3.42030      -10.13970
H         -2.15200        5.79610      -10.15080
H         -3.90330        6.24430      -12.08560
H         -4.00610        7.58890      -10.92160
H         -3.27330        7.10040       -8.34870
H         -6.78460       -0.63940       -1.75070
H         -4.99590       -4.50780        1.40390
H         -6.92370       -3.43590        4.33760
H         -5.20710       -3.78780        4.50700
H         -6.22290       -4.82110        3.49270
H         -6.41250       -1.13140        3.58450
H         -6.72700        0.95130        2.46960
H         -6.32490        1.14240        0.75470
H         -5.06380        1.27150        1.98160
H         -4.06970       -4.28870       -0.71430
H         -3.34870       -2.72050       -1.09520
H         -4.95150       -3.11640       -1.70420
H          0.44010        1.33110       -1.64980
H          2.78720        2.01510       -1.60710
H          6.01990        3.22790       -0.37640
H          5.07070        2.74190       -1.79770
H          4.62080        2.15340       -0.16880
H          1.63890        5.81080       -0.00030
H         -0.73100        5.11510       -0.05320
H         -1.62770        4.24750       -2.72330
H         -3.61980        5.32470       -3.68840
H         -7.64750        3.43840       -2.17370
H         -8.62440        4.77710       -2.81970
H         -7.87010        4.94350       -1.22300
H         -5.98770        3.83480       -0.45460
H         -4.01000        2.80070        0.51670
H          0.95280       -3.55660        4.82740
H          1.92900       -3.51820        7.08420
H          3.16430        0.79370        8.75100
H          1.57890        0.65020        9.58020
H          3.07550        0.19580       10.42220
H          1.32320        0.71270        7.26250
H          0.33450        0.67010        5.05250
H          0.33540       -2.58150        1.10900
H         -0.86630       -4.56900        0.27100
H         -4.35890       -6.47050        3.18640
H         -2.80310       -7.26790        3.58280
H         -3.93330       -8.02380        2.43740
H         -2.90530       -4.89610        4.01710
H         -1.73670       -2.91450        4.82900
H          7.34760        1.43890        3.39420
H         11.69940       -1.68040        3.46900
H          8.11010       -4.43810        1.19270
H         10.64860       -6.45790        2.32890
H         10.88000       -6.17340       -0.30990
H         12.74900       -7.82770        0.51400
H         14.65850       -6.40010        1.68560
H         13.96670       -3.86760        1.58200
H         12.96910       -4.60940       -0.75410
H         11.73290       -3.66030        0.10260
H         12.52300       -5.06180        3.47700
