167

C          3.24160       -7.71030        0.24310
C          3.24410       -7.40880       -1.07710
C          2.45630       -6.29250       -1.68750
O          1.64760       -5.56460       -1.15360
C          2.94160       -6.17170       -3.06870
C          2.50830       -5.24130       -4.01180
C          3.15010       -5.33530       -5.22130
C          4.16460       -6.27210       -5.46940
C          4.59700       -7.19730       -4.54950
C          3.94510       -7.13120       -3.31280
C          4.12680       -7.93600       -2.10990
C          4.93740       -9.03160       -1.99070
C          5.76370       -9.53090       -3.02030
N          6.45650       -9.99090       -3.81140
C          5.05160       -9.82900       -0.83130
N          5.19850      -10.52460        0.07000
C          4.39340       -5.76780       -6.87230
C          5.62060       -4.85410       -7.11810
C          5.91380       -4.16150       -5.81000
C          4.94050       -3.28880       -5.58620
C          3.97140       -3.37470       -6.73900
C          4.94080       -3.70740       -7.88410
C          3.25150       -4.73800       -6.60120
C          2.28900       -7.12110        1.16030
C          0.92710       -7.03790        0.84040
F          0.43950       -7.79090       -0.16180
C          0.06990       -6.21980        1.52660
C          0.55730       -5.42560        2.57410
C          1.85970       -5.65230        3.03430
C          2.70200       -6.49330        2.33880
C         -0.22000       -4.28070        2.96710
S         -1.18290       -3.58380        1.70020
C         -1.52540       -2.13260        2.60050
C         -0.96530       -2.24410        3.86040
S         -0.95320       -1.19000        5.23950
C          0.01470       -2.34800        6.12660
C          0.36890       -2.07510        7.52300
O          1.05980       -2.77940        8.21390
O         -0.19630       -0.93190        7.92810
C          0.00090       -0.56950        9.29560
C         -1.04270        0.46290        9.67660
C          0.31710       -3.45830        5.38870
C         -0.21900       -3.43940        4.07280
F          1.03270       -4.47720        5.85870
C         -2.06510       -1.00440        1.94490
C         -2.38230       -0.91780        0.58900
N         -2.50530       -2.00730       -0.26570
C         -1.77180       -1.99440       -1.46150
C         -0.46230       -1.51320       -1.45860
C          0.28680       -1.53010       -2.61280
C         -0.25180       -2.02940       -3.79680
S          0.81870       -2.03910       -5.20230
C         -0.19390       -2.76900       -6.52100
C         -1.56280       -2.48520       -3.81060
C         -2.31670       -2.46050       -2.65330
C         -3.43860       -3.01030        0.01520
C         -4.56750       -2.73210        0.78750
C         -5.46710       -3.72890        1.08960
C         -5.26970       -5.02930        0.62750
S         -6.49170       -6.21700        1.08180
C         -5.92110       -7.75560        0.30600
C         -4.14860       -5.31210       -0.14240
C         -3.24170       -4.31480       -0.43920
C         -2.52250        0.42590        0.19090
S         -2.85790        1.18520       -1.31800
C         -2.70380        2.78350       -0.56990
C         -2.52240        2.69790        0.82710
N         -2.57880        3.72790        1.72120
C         -3.24300        4.93060        1.44610
C         -2.67020        6.14480        1.83040
C         -3.27590        7.33450        1.49320
C         -4.47200        7.34370        0.77630
S         -5.10150        8.92090        0.31770
C         -6.59230        8.54610       -0.64520
C         -5.08280        6.13450        0.45830
C         -4.47050        4.94320        0.78750
C         -1.94620        3.59080        2.97380
C         -2.61710        3.96480        4.13640
C         -2.01380        3.79620        5.36260
C         -0.73370        3.25130        5.45030
S         -0.06070        3.06540        7.06760
C          1.36680        1.97380        6.81290
C         -0.05040        2.91340        4.28990
C         -0.65310        3.08550        3.05970
C         -2.37670        1.34710        1.22110
S         -2.08450        0.55710        2.73980
C         -2.78310        3.89020       -1.42150
C         -2.21880        5.12400       -1.18360
C         -1.04110        5.33500       -0.32580
O         -0.44320        4.49930        0.32780
C         -0.64630        6.74380       -0.52650
C          0.41950        7.40950        0.07100
C          0.53390        8.72860       -0.30030
C         -0.34280        9.34020       -1.20440
C         -1.39870        8.69340       -1.80320
C         -1.53180        7.35240       -1.43700
C         -2.53120        6.36500       -1.83540
C         -3.66400        6.61430       -2.57110
C         -4.69400        5.67360       -2.76410
N         -5.59950        4.98390       -2.92400
C         -3.98980        7.85460       -3.15070
N         -4.33230        8.83170       -3.64910
C          0.37250       10.66640       -1.12520
C          1.29960       11.02190       -2.30670
C          2.20440       12.09580       -1.74690
C          3.03340       11.51740       -0.88730
C          2.70270       10.04280       -0.85190
C          2.27070        9.83410       -2.30910
C          1.34860        9.98470       -0.11340
H          4.00910       -8.34480        0.66620
H          1.73920       -4.52480       -3.76950
H          5.37850       -7.90940       -4.75660
H          4.25180       -6.49310       -7.67100
H          6.46070       -5.34870       -7.59810
H          6.74370       -4.41080       -5.17480
H          4.78940       -2.66160       -4.72770
H          3.30800       -2.52370       -6.86550
H          5.62310       -2.88920       -8.10890
H          4.44180       -4.03130       -8.79660
H          2.35550       -4.80240       -7.21500
H         -0.95880       -6.14380        1.20940
H          2.23530       -5.10930        3.88550
H          3.73140       -6.59450        2.64830
H          1.01590       -0.17130        9.40950
H         -0.07870       -1.47230        9.91150
H         -0.96270        1.33460        9.03260
H         -0.89210        0.76680       10.70820
H         -2.03970        0.04410        9.57090
H         -0.03160       -1.14320       -0.54020
H          1.30410       -1.17000       -2.60820
H          0.43810       -2.78210       -7.40360
H         -0.47770       -3.78300       -6.25360
H         -1.06630       -2.14920       -6.70660
H         -2.01550       -2.85850       -4.71490
H         -3.33900       -2.80690       -2.67550
H         -4.73970       -1.72790        1.14470
H         -6.34100       -3.51120        1.68400
H         -6.66700       -8.50260        0.55930
H         -4.95740       -8.04510        0.71480
H         -5.87400       -7.63340       -0.77210
H         -3.95930       -6.30830       -0.50810
H         -2.36010       -4.55030       -1.01600
H         -1.73800        6.14440        2.37430
H         -2.81860        8.27440        1.76110
H         -6.34100        7.93270       -1.50530
H         -7.33210        8.06210       -0.01440
H         -6.96550        9.50800       -0.98270
H         -6.02890        6.10530       -0.05670
H         -4.94840        4.01280        0.52020
H         -3.61390        4.37490        4.07100
H         -2.53040        4.07320        6.26850
H          1.73690        1.73830        7.80560
H          2.14060        2.48740        6.24990
H          1.03950        1.06790        6.31160
H          0.95330        2.52300        4.32750
H         -0.11700        2.85790        2.15200
H         -3.29270        3.72440       -2.36350
H          1.07130        6.90360        0.76640
H         -2.06730        9.17440       -2.49780
H         -0.22640       11.50890       -0.78490
H          0.78520       11.25090       -3.23600
H          2.11460       13.13970       -1.98380
H          3.77410       11.98150       -0.26270
H          3.46700        9.37920       -0.45590
H          3.09410        9.97690       -3.00710
H          1.79590        8.87300       -2.49750
H          1.40010       10.37310        0.90210
