
  xtb     02172218473D
 energy: -333.153393225597 gnorm: 0.000783640674 xtb: 6.4.1 (unknown)
190211  0     0  0            999 V2000
   -2.2116   -9.7073    5.4399 C   0  0  0  0  0  0  0  0  0  0  0  0
   -2.6648   -8.4869    5.7881 C   0  0  0  0  0  0  0  0  0  0  0  0
   -2.1532   -7.2193    5.1708 C   0  0  0  0  0  0  0  0  0  0  0  0
   -1.4669   -7.0960    4.1801 O   0  0  0  0  0  0  0  0  0  0  0  0
   -2.7199   -6.1284    5.9681 C   0  0  0  0  0  0  0  0  0  0  0  0
   -2.4362   -4.7719    5.8151 C   0  0  0  0  0  0  0  0  0  0  0  0
   -3.1244   -3.9584    6.6793 C   0  0  0  0  0  0  0  0  0  0  0  0
   -4.0456   -4.4575    7.6145 C   0  0  0  0  0  0  0  0  0  0  0  0
   -4.3279   -5.7929    7.7788 C   0  0  0  0  0  0  0  0  0  0  0  0
   -3.6251   -6.6465    6.9166 C   0  0  0  0  0  0  0  0  0  0  0  0
   -3.6570   -8.1003    6.7934 C   0  0  0  0  0  0  0  0  0  0  0  0
   -4.4761   -8.9506    7.4796 C   0  0  0  0  0  0  0  0  0  0  0  0
   -5.4341   -8.5432    8.4340 C   0  0  0  0  0  0  0  0  0  0  0  0
   -6.2311   -8.2804    9.2162 N   0  0  0  0  0  0  0  0  0  0  0  0
   -4.4977  -10.3519    7.3054 C   0  0  0  0  0  0  0  0  0  0  0  0
   -4.5727  -11.4923    7.2029 N   0  0  0  0  0  0  0  0  0  0  0  0
   -4.3962   -3.0773    8.1153 C   0  0  0  0  0  0  0  0  0  0  0  0
   -5.7231   -2.4758    7.6029 C   0  0  0  0  0  0  0  0  0  0  0  0
   -5.5698   -0.9922    7.8563 C   0  0  0  0  0  0  0  0  0  0  0  0
   -4.6835   -0.5229    6.9873 C   0  0  0  0  0  0  0  0  0  0  0  0
   -4.2231   -1.6795    6.1311 C   0  0  0  0  0  0  0  0  0  0  0  0
   -5.5170   -2.5029    6.0824 C   0  0  0  0  0  0  0  0  0  0  0  0
   -3.3570   -2.5271    7.0864 C   0  0  0  0  0  0  0  0  0  0  0  0
   -1.1004   -9.7471    4.4786 C   0  0  0  0  0  0  0  0  0  0  0  0
    0.1456   -9.2725    4.8926 C   0  0  0  0  0  0  0  0  0  0  0  0
    0.4031   -9.1915    6.2162 F   0  0  0  0  0  0  0  0  0  0  0  0
    1.0582   -8.7592    4.0055 C   0  0  0  0  0  0  0  0  0  0  0  0
    0.7263   -8.7055    2.6495 C   0  0  0  0  0  0  0  0  0  0  0  0
   -0.3856   -9.4209    2.2029 C   0  0  0  0  0  0  0  0  0  0  0  0
   -1.2912   -9.9325    3.1126 C   0  0  0  0  0  0  0  0  0  0  0  0
    1.2644   -7.6235    1.8440 C   0  0  0  0  0  0  0  0  0  0  0  0
    1.4061   -7.4387    0.5053 C   0  0  0  0  0  0  0  0  0  0  0  0
    1.5481   -6.0705    0.1285 C   0  0  0  0  0  0  0  0  0  0  0  0
    1.6210   -5.4965   -1.1574 C   0  0  0  0  0  0  0  0  0  0  0  0
    1.5679   -6.3096   -2.3583 C   0  0  0  0  0  0  0  0  0  0  0  0
    0.4504   -7.6358   -2.5016 S   0  0  0  0  0  0  0  0  0  0  0  0
    0.8877   -7.9572   -4.1404 C   0  0  0  0  0  0  0  0  0  0  0  0
    0.2504   -9.0496   -4.9263 C   0  0  0  0  0  0  0  0  0  0  0  0
    0.4429  -10.4116   -4.2611 C   0  0  0  0  0  0  0  0  0  0  0  0
    1.8541   -7.0839   -4.5372 C   0  0  0  0  0  0  0  0  0  0  0  0
    2.3904   -7.0915   -5.7690 F   0  0  0  0  0  0  0  0  0  0  0  0
    2.2364   -6.1524   -3.5422 C   0  0  0  0  0  0  0  0  0  0  0  0
    3.2138   -5.2579   -3.7422 F   0  0  0  0  0  0  0  0  0  0  0  0
    1.6321   -4.1017   -1.2322 C   0  0  0  0  0  0  0  0  0  0  0  0
    1.4810   -3.2795   -0.0898 C   0  0  0  0  0  0  0  0  0  0  0  0
    1.4050   -3.8456    1.1856 C   0  0  0  0  0  0  0  0  0  0  0  0
    1.0661   -3.0655    2.3690 C   0  0  0  0  0  0  0  0  0  0  0  0
    2.0063   -3.0876    3.8270 S   0  0  0  0  0  0  0  0  0  0  0  0
    0.8518   -2.1262    4.6885 C   0  0  0  0  0  0  0  0  0  0  0  0
    1.0300   -1.7732    6.1247 C   0  0  0  0  0  0  0  0  0  0  0  0
    0.9003   -3.0057    7.0217 C   0  0  0  0  0  0  0  0  0  0  0  0
   -0.1952   -1.8158    3.8743 C   0  0  0  0  0  0  0  0  0  0  0  0
   -0.0740   -2.3391    2.5649 C   0  0  0  0  0  0  0  0  0  0  0  0
   -1.0228   -2.1863    1.6302 F   0  0  0  0  0  0  0  0  0  0  0  0
   -1.2554   -1.0994    4.2777 F   0  0  0  0  0  0  0  0  0  0  0  0
    1.5012   -5.2265    1.2646 C   0  0  0  0  0  0  0  0  0  0  0  0
    1.3618   -6.1210    2.7377 S   0  0  0  0  0  0  0  0  0  0  0  0
    1.3562   -1.9096   -0.4248 C   0  0  0  0  0  0  0  0  0  0  0  0
    1.4162   -1.6692   -1.7586 C   0  0  0  0  0  0  0  0  0  0  0  0
    1.6613   -3.1336   -2.6829 S   0  0  0  0  0  0  0  0  0  0  0  0
    1.1480   -0.3621   -2.3165 C   0  0  0  0  0  0  0  0  0  0  0  0
   -0.0773    0.2516   -2.1434 C   0  0  0  0  0  0  0  0  0  0  0  0
   -1.2012   -0.4500   -1.7036 N   0  0  0  0  0  0  0  0  0  0  0  0
   -1.4168   -1.6818   -2.3456 C   0  0  0  0  0  0  0  0  0  0  0  0
   -1.2961   -1.7313   -3.7333 C   0  0  0  0  0  0  0  0  0  0  0  0
   -1.3901   -2.9280   -4.4120 C   0  0  0  0  0  0  0  0  0  0  0  0
   -1.6022   -4.1052   -3.7088 C   0  0  0  0  0  0  0  0  0  0  0  0
   -1.6915   -5.6868   -4.4936 S   0  0  0  0  0  0  0  0  0  0  0  0
   -0.8417   -5.4076   -6.0754 C   0  0  0  0  0  0  0  0  0  0  0  0
   -1.7648   -4.0592   -2.3271 C   0  0  0  0  0  0  0  0  0  0  0  0
   -1.6782   -2.8612   -1.6496 C   0  0  0  0  0  0  0  0  0  0  0  0
   -1.8535   -0.0812   -0.5283 C   0  0  0  0  0  0  0  0  0  0  0  0
   -3.1516   -0.5161   -0.2751 C   0  0  0  0  0  0  0  0  0  0  0  0
   -3.7932   -0.1813    0.9006 C   0  0  0  0  0  0  0  0  0  0  0  0
   -3.1545    0.6118    1.8433 C   0  0  0  0  0  0  0  0  0  0  0  0
   -3.8636    1.0787    3.3936 S   0  0  0  0  0  0  0  0  0  0  0  0
   -5.5410    0.3861    3.3348 C   0  0  0  0  0  0  0  0  0  0  0  0
   -1.8704    1.0801    1.5794 C   0  0  0  0  0  0  0  0  0  0  0  0
   -1.2262    0.7385    0.4110 C   0  0  0  0  0  0  0  0  0  0  0  0
   -0.0367    1.5999   -2.5626 C   0  0  0  0  0  0  0  0  0  0  0  0
   -1.1562    2.9111   -2.5780 S   0  0  0  0  0  0  0  0  0  0  0  0
    0.0720    3.9905   -3.2187 C   0  0  0  0  0  0  0  0  0  0  0  0
    1.2867    3.3422   -3.4305 C   0  0  0  0  0  0  0  0  0  0  0  0
    2.3866    3.8746   -4.0936 N   0  0  0  0  0  0  0  0  0  0  0  0
    3.1663    4.8753   -3.4886 C   0  0  0  0  0  0  0  0  0  0  0  0
    3.5989    4.7160   -2.1777 C   0  0  0  0  0  0  0  0  0  0  0  0
    4.3440    5.7034   -1.5597 C   0  0  0  0  0  0  0  0  0  0  0  0
    4.6550    6.8660   -2.2477 C   0  0  0  0  0  0  0  0  0  0  0  0
    5.5696    8.2092   -1.5594 S   0  0  0  0  0  0  0  0  0  0  0  0
    5.9092    7.6812    0.1444 C   0  0  0  0  0  0  0  0  0  0  0  0
    4.2311    7.0227   -3.5676 C   0  0  0  0  0  0  0  0  0  0  0  0
    3.4990    6.0346   -4.1861 C   0  0  0  0  0  0  0  0  0  0  0  0
    2.7772    3.2987   -5.3025 C   0  0  0  0  0  0  0  0  0  0  0  0
    4.1079    3.3494   -5.7229 C   0  0  0  0  0  0  0  0  0  0  0  0
    4.4763    2.7982   -6.9284 C   0  0  0  0  0  0  0  0  0  0  0  0
    3.5340    2.1711   -7.7419 C   0  0  0  0  0  0  0  0  0  0  0  0
    4.1275    1.5061   -9.2656 S   0  0  0  0  0  0  0  0  0  0  0  0
    2.6217    0.9494  -10.1135 C   0  0  0  0  0  0  0  0  0  0  0  0
    2.2133    2.1032   -7.3213 C   0  0  0  0  0  0  0  0  0  0  0  0
    1.8397    2.6671   -6.1176 C   0  0  0  0  0  0  0  0  0  0  0  0
    1.2001    1.9791   -3.0637 C   0  0  0  0  0  0  0  0  0  0  0  0
    2.3369    0.6726   -3.0656 S   0  0  0  0  0  0  0  0  0  0  0  0
   -0.3093    5.2883   -3.6636 C   0  0  0  0  0  0  0  0  0  0  0  0
    0.3576    6.4375   -3.3687 C   0  0  0  0  0  0  0  0  0  0  0  0
    1.1427    6.6150   -2.1256 C   0  0  0  0  0  0  0  0  0  0  0  0
    1.3994    5.7654   -1.2978 O   0  0  0  0  0  0  0  0  0  0  0  0
    1.4228    8.0585   -2.0378 C   0  0  0  0  0  0  0  0  0  0  0  0
    2.1096    8.7177   -1.0210 C   0  0  0  0  0  0  0  0  0  0  0  0
    2.2341   10.0725   -1.2124 C   0  0  0  0  0  0  0  0  0  0  0  0
    1.6903   10.7331   -2.3224 C   0  0  0  0  0  0  0  0  0  0  0  0
    0.9958   10.1000   -3.3253 C   0  0  0  0  0  0  0  0  0  0  0  0
    0.8753    8.7171   -3.1582 C   0  0  0  0  0  0  0  0  0  0  0  0
    0.2312    7.7263   -4.0113 C   0  0  0  0  0  0  0  0  0  0  0  0
   -0.2882    7.9320   -5.2632 C   0  0  0  0  0  0  0  0  0  0  0  0
   -0.3689    9.1860   -5.9003 C   0  0  0  0  0  0  0  0  0  0  0  0
   -0.4718   10.1811   -6.4638 N   0  0  0  0  0  0  0  0  0  0  0  0
   -0.7606    6.8894   -6.0874 C   0  0  0  0  0  0  0  0  0  0  0  0
   -1.1275    6.0808   -6.8155 N   0  0  0  0  0  0  0  0  0  0  0  0
    2.1784   12.0834   -1.8593 C   0  0  0  0  0  0  0  0  0  0  0  0
    3.4199   12.6516   -2.5781 C   0  0  0  0  0  0  0  0  0  0  0  0
    3.9447   13.6993   -1.6232 C   0  0  0  0  0  0  0  0  0  0  0  0
    4.4709   13.0681   -0.5813 C   0  0  0  0  0  0  0  0  0  0  0  0
    4.3091   11.5837   -0.8142 C   0  0  0  0  0  0  0  0  0  0  0  0
    4.4478   11.5387   -2.3407 C   0  0  0  0  0  0  0  0  0  0  0  0
    2.7954   11.3445   -0.6284 C   0  0  0  0  0  0  0  0  0  0  0  0
   -2.6065  -10.6226    5.8567 H   0  0  0  0  0  0  0  0  0  0  0  0
   -1.7323   -4.4392    5.0678 H   0  0  0  0  0  0  0  0  0  0  0  0
   -5.0293   -6.1579    8.5106 H   0  0  0  0  0  0  0  0  0  0  0  0
   -4.2312   -2.8990    9.1759 H   0  0  0  0  0  0  0  0  0  0  0  0
   -6.6184   -2.9496    7.9963 H   0  0  0  0  0  0  0  0  0  0  0  0
   -6.0665   -0.4669    8.6509 H   0  0  0  0  0  0  0  0  0  0  0  0
   -4.2900    0.4727    6.9023 H   0  0  0  0  0  0  0  0  0  0  0  0
   -3.7392   -1.4242    5.1938 H   0  0  0  0  0  0  0  0  0  0  0  0
   -5.3948   -3.5020    5.6672 H   0  0  0  0  0  0  0  0  0  0  0  0
   -6.3171   -1.9862    5.5546 H   0  0  0  0  0  0  0  0  0  0  0  0
   -2.4869   -1.9903    7.4582 H   0  0  0  0  0  0  0  0  0  0  0  0
    1.9549   -8.2892    4.3789 H   0  0  0  0  0  0  0  0  0  0  0  0
   -0.6133   -9.4464    1.1484 H   0  0  0  0  0  0  0  0  0  0  0  0
   -2.2211  -10.3560    2.7649 H   0  0  0  0  0  0  0  0  0  0  0  0
    1.3992   -8.2531   -0.1951 H   0  0  0  0  0  0  0  0  0  0  0  0
    0.6905   -9.0558   -5.9258 H   0  0  0  0  0  0  0  0  0  0  0  0
   -0.8198   -8.8433   -5.0193 H   0  0  0  0  0  0  0  0  0  0  0  0
   -0.0305  -11.1876   -4.8563 H   0  0  0  0  0  0  0  0  0  0  0  0
   -0.0036  -10.4110   -3.2694 H   0  0  0  0  0  0  0  0  0  0  0  0
    1.5012  -10.6433   -4.1667 H   0  0  0  0  0  0  0  0  0  0  0  0
    2.0161   -1.3262    6.2700 H   0  0  0  0  0  0  0  0  0  0  0  0
    0.2725   -1.0336    6.3926 H   0  0  0  0  0  0  0  0  0  0  0  0
    1.6470   -3.7482    6.7503 H   0  0  0  0  0  0  0  0  0  0  0  0
   -0.0854   -3.4540    6.9184 H   0  0  0  0  0  0  0  0  0  0  0  0
    1.0477   -2.7269    8.0616 H   0  0  0  0  0  0  0  0  0  0  0  0
    1.2184   -1.1335    0.3062 H   0  0  0  0  0  0  0  0  0  0  0  0
   -1.1153   -0.8200   -4.2843 H   0  0  0  0  0  0  0  0  0  0  0  0
   -1.2940   -2.9294   -5.4855 H   0  0  0  0  0  0  0  0  0  0  0  0
   -0.6484   -6.3917   -6.4906 H   0  0  0  0  0  0  0  0  0  0  0  0
   -1.4781   -4.8457   -6.7530 H   0  0  0  0  0  0  0  0  0  0  0  0
    0.0955   -4.8891   -5.8958 H   0  0  0  0  0  0  0  0  0  0  0  0
   -1.9373   -4.9774   -1.7859 H   0  0  0  0  0  0  0  0  0  0  0  0
   -1.7770   -2.8397   -0.5765 H   0  0  0  0  0  0  0  0  0  0  0  0
   -3.6610   -1.1275   -1.0044 H   0  0  0  0  0  0  0  0  0  0  0  0
   -4.7938   -0.5477    1.0646 H   0  0  0  0  0  0  0  0  0  0  0  0
   -5.4957   -0.6955    3.2454 H   0  0  0  0  0  0  0  0  0  0  0  0
   -6.0018    0.6572    4.2798 H   0  0  0  0  0  0  0  0  0  0  0  0
   -6.0956    0.8270    2.5115 H   0  0  0  0  0  0  0  0  0  0  0  0
   -1.3779    1.7034    2.3104 H   0  0  0  0  0  0  0  0  0  0  0  0
   -0.2243    1.0995    0.2281 H   0  0  0  0  0  0  0  0  0  0  0  0
    3.3445    3.8175   -1.6375 H   0  0  0  0  0  0  0  0  0  0  0  0
    4.6602    5.5523   -0.5410 H   0  0  0  0  0  0  0  0  0  0  0  0
    6.4667    8.4950    0.5978 H   0  0  0  0  0  0  0  0  0  0  0  0
    6.5151    6.7800    0.1416 H   0  0  0  0  0  0  0  0  0  0  0  0
    4.9770    7.5278    0.6801 H   0  0  0  0  0  0  0  0  0  0  0  0
    4.4780    7.9320   -4.0949 H   0  0  0  0  0  0  0  0  0  0  0  0
    3.1667    6.1556   -5.2069 H   0  0  0  0  0  0  0  0  0  0  0  0
    4.8493    3.8227   -5.0975 H   0  0  0  0  0  0  0  0  0  0  0  0
    5.5043    2.8413   -7.2540 H   0  0  0  0  0  0  0  0  0  0  0  0
    1.9324    1.7812  -10.2247 H   0  0  0  0  0  0  0  0  0  0  0  0
    2.1671    0.1274   -9.5684 H   0  0  0  0  0  0  0  0  0  0  0  0
    2.9470    0.6064  -11.0907 H   0  0  0  0  0  0  0  0  0  0  0  0
    1.4585    1.6252   -7.9241 H   0  0  0  0  0  0  0  0  0  0  0  0
    0.8032    2.6293   -5.8171 H   0  0  0  0  0  0  0  0  0  0  0  0
   -1.2031    5.3282   -4.2763 H   0  0  0  0  0  0  0  0  0  0  0  0
    2.4934    8.1737   -0.1725 H   0  0  0  0  0  0  0  0  0  0  0  0
    0.5683   10.6201   -4.1667 H   0  0  0  0  0  0  0  0  0  0  0  0
    1.4065   12.8304   -1.6842 H   0  0  0  0  0  0  0  0  0  0  0  0
    3.2471   12.9666   -3.6035 H   0  0  0  0  0  0  0  0  0  0  0  0
    3.8343   14.7574   -1.7729 H   0  0  0  0  0  0  0  0  0  0  0  0
    4.8869   13.4943    0.3129 H   0  0  0  0  0  0  0  0  0  0  0  0
    4.9498   10.9224   -0.2385 H   0  0  0  0  0  0  0  0  0  0  0  0
    5.4468   11.8188   -2.6691 H   0  0  0  0  0  0  0  0  0  0  0  0
    4.1791   10.5799   -2.7783 H   0  0  0  0  0  0  0  0  0  0  0  0
    2.4428   11.6063    0.3678 H   0  0  0  0  0  0  0  0  0  0  0  0
  1  2  2  0  0  0  0
  2  3  1  0  0  0  0
  3  4  2  0  0  0  0
  3  5  1  0  0  0  0
  5  6  2  0  0  0  0
  6  7  1  0  0  0  0
  7  8  2  0  0  0  0
  8  9  1  0  0  0  0
  9 10  2  0  0  0  0
 10 11  1  0  0  0  0
 11 12  2  0  0  0  0
 12 13  1  0  0  0  0
 13 14  3  0  0  0  0
 12 15  1  0  0  0  0
 15 16  3  0  0  0  0
  8 17  1  0  0  0  0
 17 18  1  0  0  0  0
 18 19  1  0  0  0  0
 19 20  2  0  0  0  0
 20 21  1  0  0  0  0
 21 22  1  0  0  0  0
 21 23  1  0  0  0  0
  1 24  1  0  0  0  0
 24 25  2  0  0  0  0
 25 26  1  0  0  0  0
 25 27  1  0  0  0  0
 27 28  2  0  0  0  0
 28 29  1  0  0  0  0
 29 30  2  0  0  0  0
 28 31  1  0  0  0  0
 31 32  2  0  0  0  0
 32 33  1  0  0  0  0
 33 34  2  0  0  0  0
 34 35  1  0  0  0  0
 35 36  1  0  0  0  0
 36 37  1  0  0  0  0
 37 38  1  0  0  0  0
 38 39  1  0  0  0  0
 37 40  2  0  0  0  0
 40 41  1  0  0  0  0
 40 42  1  0  0  0  0
 42 43  1  0  0  0  0
 34 44  1  0  0  0  0
 44 45  2  0  0  0  0
 45 46  1  0  0  0  0
 46 47  1  0  0  0  0
 47 48  1  0  0  0  0
 48 49  1  0  0  0  0
 49 50  1  0  0  0  0
 50 51  1  0  0  0  0
 49 52  2  0  0  0  0
 52 53  1  0  0  0  0
 53 54  1  0  0  0  0
 52 55  1  0  0  0  0
 46 56  2  0  0  0  0
 56 57  1  0  0  0  0
 45 58  1  0  0  0  0
 58 59  2  0  0  0  0
 59 60  1  0  0  0  0
 59 61  1  0  0  0  0
 61 62  2  0  0  0  0
 62 63  1  0  0  0  0
 63 64  1  0  0  0  0
 64 65  2  0  0  0  0
 65 66  1  0  0  0  0
 66 67  2  0  0  0  0
 67 68  1  0  0  0  0
 68 69  1  0  0  0  0
 67 70  1  0  0  0  0
 70 71  2  0  0  0  0
 63 72  1  0  0  0  0
 72 73  2  0  0  0  0
 73 74  1  0  0  0  0
 74 75  2  0  0  0  0
 75 76  1  0  0  0  0
 76 77  1  0  0  0  0
 75 78  1  0  0  0  0
 78 79  2  0  0  0  0
 62 80  1  0  0  0  0
 80 81  1  0  0  0  0
 81 82  1  0  0  0  0
 82 83  2  0  0  0  0
 83 84  1  0  0  0  0
 84 85  1  0  0  0  0
 85 86  2  0  0  0  0
 86 87  1  0  0  0  0
 87 88  2  0  0  0  0
 88 89  1  0  0  0  0
 89 90  1  0  0  0  0
 88 91  1  0  0  0  0
 91 92  2  0  0  0  0
 84 93  1  0  0  0  0
 93 94  2  0  0  0  0
 94 95  1  0  0  0  0
 95 96  2  0  0  0  0
 96 97  1  0  0  0  0
 97 98  1  0  0  0  0
 96 99  1  0  0  0  0
 99100  2  0  0  0  0
 83101  1  0  0  0  0
101102  1  0  0  0  0
 82103  1  0  0  0  0
103104  2  0  0  0  0
104105  1  0  0  0  0
105106  2  0  0  0  0
105107  1  0  0  0  0
107108  2  0  0  0  0
108109  1  0  0  0  0
109110  2  0  0  0  0
110111  1  0  0  0  0
111112  2  0  0  0  0
112113  1  0  0  0  0
113114  2  0  0  0  0
114115  1  0  0  0  0
115116  3  0  0  0  0
114117  1  0  0  0  0
117118  3  0  0  0  0
110119  1  0  0  0  0
119120  1  0  0  0  0
120121  1  0  0  0  0
121122  2  0  0  0  0
122123  1  0  0  0  0
123124  1  0  0  0  0
123125  1  0  0  0  0
 11  2  1  0  0  0  0
 23 17  1  0  0  0  0
 30 24  1  0  0  0  0
 57 31  1  0  0  0  0
102 61  1  0  0  0  0
113104  1  0  0  0  0
125119  1  0  0  0  0
 10  5  1  0  0  0  0
 22 18  1  0  0  0  0
 56 33  1  0  0  0  0
 71 64  1  0  0  0  0
 79 72  1  0  0  0  0
101 80  2  0  0  0  0
112107  1  0  0  0  0
124120  1  0  0  0  0
 23  7  1  0  0  0  0
 42 35  2  0  0  0  0
 60 44  1  0  0  0  0
 92 85  1  0  0  0  0
100 93  1  0  0  0  0
125109  1  0  0  0  0
 53 47  2  0  0  0  0
  1126  1  0  0  0  0
  6127  1  0  0  0  0
  9128  1  0  0  0  0
 17129  1  0  0  0  0
 18130  1  0  0  0  0
 19131  1  0  0  0  0
 20132  1  0  0  0  0
 21133  1  0  0  0  0
 22134  1  0  0  0  0
 22135  1  0  0  0  0
 23136  1  0  0  0  0
 27137  1  0  0  0  0
 29138  1  0  0  0  0
 30139  1  0  0  0  0
 32140  1  0  0  0  0
 38141  1  0  0  0  0
 38142  1  0  0  0  0
 39143  1  0  0  0  0
 39144  1  0  0  0  0
 39145  1  0  0  0  0
 50146  1  0  0  0  0
 50147  1  0  0  0  0
 51148  1  0  0  0  0
 51149  1  0  0  0  0
 51150  1  0  0  0  0
 58151  1  0  0  0  0
 65152  1  0  0  0  0
 66153  1  0  0  0  0
 69154  1  0  0  0  0
 69155  1  0  0  0  0
 69156  1  0  0  0  0
 70157  1  0  0  0  0
 71158  1  0  0  0  0
 73159  1  0  0  0  0
 74160  1  0  0  0  0
 77161  1  0  0  0  0
 77162  1  0  0  0  0
 77163  1  0  0  0  0
 78164  1  0  0  0  0
 79165  1  0  0  0  0
 86166  1  0  0  0  0
 87167  1  0  0  0  0
 90168  1  0  0  0  0
 90169  1  0  0  0  0
 90170  1  0  0  0  0
 91171  1  0  0  0  0
 92172  1  0  0  0  0
 94173  1  0  0  0  0
 95174  1  0  0  0  0
 98175  1  0  0  0  0
 98176  1  0  0  0  0
 98177  1  0  0  0  0
 99178  1  0  0  0  0
100179  1  0  0  0  0
103180  1  0  0  0  0
108181  1  0  0  0  0
111182  1  0  0  0  0
119183  1  0  0  0  0
120184  1  0  0  0  0
121185  1  0  0  0  0
122186  1  0  0  0  0
123187  1  0  0  0  0
124188  1  0  0  0  0
124189  1  0  0  0  0
125190  1  0  0  0  0
M  END
