130

C         -1.93580        4.48940        7.41000
C         -1.04040        5.00380        8.27150
C          0.37200        4.51760        8.39790
O          0.91180        3.67250        7.72370
C          0.91920        5.20680        9.57560
C          2.20140        5.05610       10.10360
C          2.44090        5.81960       11.21990
C          1.47560        6.67320       11.77610
C          0.20870        6.83020       11.27010
C         -0.05890        6.06050       10.13120
C         -1.27320        5.97840        9.33280
C         -2.40420        6.72790        9.49610
C         -2.59360        7.68210       10.52020
N         -2.81710        8.46580       11.32770
C         -3.53560        6.67420        8.65190
N         -4.48000        6.69820        8.00050
C          2.39600        7.12500       12.88120
C          2.15270        6.50850       14.27530
C          3.45360        6.74660       15.00750
C          4.36570        5.93790       14.48300
C          3.69670        5.13930       13.38750
C          2.28730        5.00910       13.97970
C          3.47040        6.17350       12.26320
C         -1.58820        3.59890        6.30960
C         -0.59220        3.91890        5.38420
F          0.05900        5.08050        5.49500
C         -0.32850        3.09260        4.30190
F          0.58190        3.46760        3.39760
C         -1.03220        1.90480        4.10820
C         -2.01420        1.57380        5.04150
F         -2.68080        0.42000        4.92760
C         -2.29630        2.41410        6.10620
F         -3.25520        2.07790        6.98060
C         -0.83730        1.07980        2.90820
C          0.37720        0.55950        2.52750
F          1.46140        0.74940        3.28950
C          0.50770       -0.21920        1.36380
F          1.72860       -0.71060        1.08600
C         -0.56320       -0.51600        0.54760
C         -1.82550        0.02310        0.91770
N         -2.90390       -0.20100        0.14400
C         -4.05920        0.30740        0.48320
C         -5.22000       -0.04920       -0.39350
C         -5.90840       -1.31200        0.13190
C         -4.18270        1.13680        1.64040
N         -3.14180        1.37970        2.39200
C         -1.95800        0.82250        2.07860
C         -5.47600        1.78850        2.02390
C         -5.37590        2.55300        3.33720
C         -0.43160       -1.34220       -0.65760
C          0.60640       -1.10350       -1.54960
C          0.67340       -1.87590       -2.69900
N          1.56330       -1.81300       -3.74060
C          2.72280       -0.96120       -3.79920
C          3.91980       -1.59120       -3.08960
C          1.22680       -2.78000       -4.65810
C          0.07100       -3.47390       -4.20750
C         -0.28210       -2.89370       -2.95210
C         -1.30240       -3.13230       -2.03660
C         -1.37190       -2.35590       -0.90380
C         -0.46640       -4.49620       -4.98420
C          0.12200       -4.81100       -6.18580
C          1.26060       -4.12030       -6.65110
C          1.82160       -3.10180       -5.86020
C          1.92790       -4.37240       -7.89490
C          1.68830       -5.16700       -8.97590
C          0.53860       -6.05090       -9.29880
O         -0.37870       -6.41010       -8.59040
C          0.71120       -6.44260      -10.70950
C         -0.17000       -7.21550      -11.46310
C          0.23030       -7.41250      -12.76180
C          1.42180       -6.87960      -13.27400
C          2.30310       -6.12480      -12.53860
C          1.91470       -5.91320      -11.21110
C          2.57650       -5.17940      -10.13850
C          3.84000       -4.65480      -10.21750
C          4.55270       -4.00170       -9.18790
N          5.22680       -3.46470       -8.42710
C          4.65930       -4.71750      -11.36580
N          5.38830       -4.72470      -12.25250
C          1.18210       -7.45590      -14.64680
C          0.67750       -6.49760      -15.75390
C         -0.06510       -5.38600      -15.05500
C         -1.19100       -5.89290      -14.57050
C         -1.22980       -7.35690      -14.93280
C         -0.50640       -7.31950      -16.28840
C         -0.14300       -8.05190      -14.07550
H         -2.99190        4.70520        7.50910
H          2.91430        4.39270        9.63980
H         -0.52200        7.48820       11.70990
H          2.60280        8.19260       12.91770
H          1.24450        6.84380       14.76840
H          3.58530        7.49250       15.76900
H          5.41150        5.87350       14.71880
H          4.19510        4.22660       13.07290
H          1.54550        4.62480       13.28190
H          2.27730        4.40890       14.88780
H          4.39690        6.60440       11.88900
H         -4.83730       -0.24700       -1.39550
H         -5.93450        0.77290       -0.43850
H         -6.27300       -1.16720        1.14640
H         -5.20740       -2.14260        0.13430
H         -6.75050       -1.56970       -0.50510
H         -5.77050        2.46970        1.21920
H         -6.25080        1.02170        2.09850
H         -5.10150        1.87810        4.14290
H         -4.61620        3.32660        3.26690
H         -6.33040        3.01510        3.57540
H          1.32190       -0.31940       -1.35810
H          2.47220       -0.00350       -3.33500
H          2.96260       -0.77580       -4.84900
H          3.68660       -1.76940       -2.04240
H          4.77930       -0.92950       -3.14910
H          4.17700       -2.54010       -3.55450
H         -2.02570       -3.91230       -2.21780
H         -2.14990       -2.52620       -0.17820
H         -1.33750       -5.03540       -4.64500
H         -0.29300       -5.59930       -6.78820
H          2.70530       -2.58370       -6.20280
H          2.81520       -3.75710       -7.99540
H         -1.07660       -7.60380      -11.02590
H          3.21350       -5.72350      -12.95080
H          1.93810       -8.14860      -15.01130
H          1.43830       -6.19210      -16.46720
H          0.31930       -4.38960      -14.93900
H         -1.93490       -5.40470      -13.96840
H         -2.20570       -7.83430      -14.89890
H         -0.22060       -8.30440      -16.65520
H         -1.07380       -6.79220      -17.05400
H         -0.25190       -9.13470      -14.06530
