190

C         -2.21160       -9.70730        5.43990
C         -2.66480       -8.48690        5.78810
C         -2.15320       -7.21930        5.17080
O         -1.46690       -7.09600        4.18010
C         -2.71990       -6.12840        5.96810
C         -2.43620       -4.77190        5.81510
C         -3.12440       -3.95840        6.67930
C         -4.04560       -4.45750        7.61450
C         -4.32790       -5.79290        7.77880
C         -3.62510       -6.64650        6.91660
C         -3.65700       -8.10030        6.79340
C         -4.47610       -8.95060        7.47960
C         -5.43410       -8.54320        8.43400
N         -6.23110       -8.28040        9.21620
C         -4.49770      -10.35190        7.30540
N         -4.57270      -11.49230        7.20290
C         -4.39620       -3.07730        8.11530
C         -5.72310       -2.47580        7.60290
C         -5.56980       -0.99220        7.85630
C         -4.68350       -0.52290        6.98730
C         -4.22310       -1.67950        6.13110
C         -5.51700       -2.50290        6.08240
C         -3.35700       -2.52710        7.08640
C         -1.10040       -9.74710        4.47860
C          0.14560       -9.27250        4.89260
F          0.40310       -9.19150        6.21620
C          1.05820       -8.75920        4.00550
C          0.72630       -8.70550        2.64950
C         -0.38560       -9.42090        2.20290
C         -1.29120       -9.93250        3.11260
C          1.26440       -7.62350        1.84400
C          1.40610       -7.43870        0.50530
C          1.54810       -6.07050        0.12850
C          1.62100       -5.49650       -1.15740
C          1.56790       -6.30960       -2.35830
S          0.45040       -7.63580       -2.50160
C          0.88770       -7.95720       -4.14040
C          0.25040       -9.04960       -4.92630
C          0.44290      -10.41160       -4.26110
C          1.85410       -7.08390       -4.53720
F          2.39040       -7.09150       -5.76900
C          2.23640       -6.15240       -3.54220
F          3.21380       -5.25790       -3.74220
C          1.63210       -4.10170       -1.23220
C          1.48100       -3.27950       -0.08980
C          1.40500       -3.84560        1.18560
C          1.06610       -3.06550        2.36900
S          2.00630       -3.08760        3.82700
C          0.85180       -2.12620        4.68850
C          1.03000       -1.77320        6.12470
C          0.90030       -3.00570        7.02170
C         -0.19520       -1.81580        3.87430
C         -0.07400       -2.33910        2.56490
F         -1.02280       -2.18630        1.63020
F         -1.25540       -1.09940        4.27770
C          1.50120       -5.22650        1.26460
S          1.36180       -6.12100        2.73770
C          1.35620       -1.90960       -0.42480
C          1.41620       -1.66920       -1.75860
S          1.66130       -3.13360       -2.68290
C          1.14800       -0.36210       -2.31650
C         -0.07730        0.25160       -2.14340
N         -1.20120       -0.45000       -1.70360
C         -1.41680       -1.68180       -2.34560
C         -1.29610       -1.73130       -3.73330
C         -1.39010       -2.92800       -4.41200
C         -1.60220       -4.10520       -3.70880
S         -1.69150       -5.68680       -4.49360
C         -0.84170       -5.40760       -6.07540
C         -1.76480       -4.05920       -2.32710
C         -1.67820       -2.86120       -1.64960
C         -1.85350       -0.08120       -0.52830
C         -3.15160       -0.51610       -0.27510
C         -3.79320       -0.18130        0.90060
C         -3.15450        0.61180        1.84330
S         -3.86360        1.07870        3.39360
C         -5.54100        0.38610        3.33480
C         -1.87040        1.08010        1.57940
C         -1.22620        0.73850        0.41100
C         -0.03670        1.59990       -2.56260
S         -1.15620        2.91110       -2.57800
C          0.07200        3.99050       -3.21870
C          1.28670        3.34220       -3.43050
N          2.38660        3.87460       -4.09360
C          3.16630        4.87530       -3.48860
C          3.59890        4.71600       -2.17770
C          4.34400        5.70340       -1.55970
C          4.65500        6.86600       -2.24770
S          5.56960        8.20920       -1.55940
C          5.90920        7.68120        0.14440
C          4.23110        7.02270       -3.56760
C          3.49900        6.03460       -4.18610
C          2.77720        3.29870       -5.30250
C          4.10790        3.34940       -5.72290
C          4.47630        2.79820       -6.92840
C          3.53400        2.17110       -7.74190
S          4.12750        1.50610       -9.26560
C          2.62170        0.94940      -10.11350
C          2.21330        2.10320       -7.32130
C          1.83970        2.66710       -6.11760
C          1.20010        1.97910       -3.06370
S          2.33690        0.67260       -3.06560
C         -0.30930        5.28830       -3.66360
C          0.35760        6.43750       -3.36870
C          1.14270        6.61500       -2.12560
O          1.39940        5.76540       -1.29780
C          1.42280        8.05850       -2.03780
C          2.10960        8.71770       -1.02100
C          2.23410       10.07250       -1.21240
C          1.69030       10.73310       -2.32240
C          0.99580       10.10000       -3.32530
C          0.87530        8.71710       -3.15820
C          0.23120        7.72630       -4.01130
C         -0.28820        7.93200       -5.26320
C         -0.36890        9.18600       -5.90030
N         -0.47180       10.18110       -6.46380
C         -0.76060        6.88940       -6.08740
N         -1.12750        6.08080       -6.81550
C          2.17840       12.08340       -1.85930
C          3.41990       12.65160       -2.57810
C          3.94470       13.69930       -1.62320
C          4.47090       13.06810       -0.58130
C          4.30910       11.58370       -0.81420
C          4.44780       11.53870       -2.34070
C          2.79540       11.34450       -0.62840
H         -2.60650      -10.62260        5.85670
H         -1.73230       -4.43920        5.06780
H         -5.02930       -6.15790        8.51060
H         -4.23120       -2.89900        9.17590
H         -6.61840       -2.94960        7.99630
H         -6.06650       -0.46690        8.65090
H         -4.29000        0.47270        6.90230
H         -3.73920       -1.42420        5.19380
H         -5.39480       -3.50200        5.66720
H         -6.31710       -1.98620        5.55460
H         -2.48690       -1.99030        7.45820
H          1.95490       -8.28920        4.37890
H         -0.61330       -9.44640        1.14840
H         -2.22110      -10.35600        2.76490
H          1.39920       -8.25310       -0.19510
H          0.69050       -9.05580       -5.92580
H         -0.81980       -8.84330       -5.01930
H         -0.03050      -11.18760       -4.85630
H         -0.00360      -10.41100       -3.26940
H          1.50120      -10.64330       -4.16670
H          2.01610       -1.32620        6.27000
H          0.27250       -1.03360        6.39260
H          1.64700       -3.74820        6.75030
H         -0.08540       -3.45400        6.91840
H          1.04770       -2.72690        8.06160
H          1.21840       -1.13350        0.30620
H         -1.11530       -0.82000       -4.28430
H         -1.29400       -2.92940       -5.48550
H         -0.64840       -6.39170       -6.49060
H         -1.47810       -4.84570       -6.75300
H          0.09550       -4.88910       -5.89580
H         -1.93730       -4.97740       -1.78590
H         -1.77700       -2.83970       -0.57650
H         -3.66100       -1.12750       -1.00440
H         -4.79380       -0.54770        1.06460
H         -5.49570       -0.69550        3.24540
H         -6.00180        0.65720        4.27980
H         -6.09560        0.82700        2.51150
H         -1.37790        1.70340        2.31040
H         -0.22430        1.09950        0.22810
H          3.34450        3.81750       -1.63750
H          4.66020        5.55230       -0.54100
H          6.46670        8.49500        0.59780
H          6.51510        6.78000        0.14160
H          4.97700        7.52780        0.68010
H          4.47800        7.93200       -4.09490
H          3.16670        6.15560       -5.20690
H          4.84930        3.82270       -5.09750
H          5.50430        2.84130       -7.25400
H          1.93240        1.78120      -10.22470
H          2.16710        0.12740       -9.56840
H          2.94700        0.60640      -11.09070
H          1.45850        1.62520       -7.92410
H          0.80320        2.62930       -5.81710
H         -1.20310        5.32820       -4.27630
H          2.49340        8.17370       -0.17250
H          0.56830       10.62010       -4.16670
H          1.40650       12.83040       -1.68420
H          3.24710       12.96660       -3.60350
H          3.83430       14.75740       -1.77290
H          4.88690       13.49430        0.31290
H          4.94980       10.92240       -0.23850
H          5.44680       11.81880       -2.66910
H          4.17910       10.57990       -2.77830
H          2.44280       11.60630        0.36780
