
  xtb     02132202023D
 energy: -277.966628945267 gnorm: 0.000727950072 xtb: 6.4.1 (unknown)
164183  0     0  0            999 V2000
    9.1005   -1.7551   -0.3309 C   0  0  0  0  0  0  0  0  0  0  0  0
    9.2469   -3.0329   -0.7554 C   0  0  0  0  0  0  0  0  0  0  0  0
    8.1658   -3.9905   -1.1166 C   0  0  0  0  0  0  0  0  0  0  0  0
    6.9893   -3.7671   -1.3164 O   0  0  0  0  0  0  0  0  0  0  0  0
    8.8036   -5.3197   -1.1322 C   0  0  0  0  0  0  0  0  0  0  0  0
    8.1784   -6.5405   -1.3831 C   0  0  0  0  0  0  0  0  0  0  0  0
    9.0126   -7.6275   -1.2986 C   0  0  0  0  0  0  0  0  0  0  0  0
   10.3744   -7.5152   -0.9844 C   0  0  0  0  0  0  0  0  0  0  0  0
   11.0079   -6.3193   -0.7498 C   0  0  0  0  0  0  0  0  0  0  0  0
   10.1770   -5.1980   -0.8411 C   0  0  0  0  0  0  0  0  0  0  0  0
   10.4948   -3.7847   -0.6946 C   0  0  0  0  0  0  0  0  0  0  0  0
   11.7501   -3.2470   -0.6247 C   0  0  0  0  0  0  0  0  0  0  0  0
   12.9412   -4.0038   -0.6053 C   0  0  0  0  0  0  0  0  0  0  0  0
   13.9458   -4.5589   -0.5886 N   0  0  0  0  0  0  0  0  0  0  0  0
   12.0395   -1.8643   -0.6326 C   0  0  0  0  0  0  0  0  0  0  0  0
   12.3636   -0.7641   -0.6771 N   0  0  0  0  0  0  0  0  0  0  0  0
   10.5988   -9.0039   -1.0759 C   0  0  0  0  0  0  0  0  0  0  0  0
   11.2922   -9.5498   -2.3487 C   0  0  0  0  0  0  0  0  0  0  0  0
   10.9940   -8.5679   -3.4546 C   0  0  0  0  0  0  0  0  0  0  0  0
    9.7063   -8.6739   -3.7541 C   0  0  0  0  0  0  0  0  0  0  0  0
    9.1101   -9.7292   -2.8553 C   0  0  0  0  0  0  0  0  0  0  0  0
   10.3125  -10.6762   -2.7152 C   0  0  0  0  0  0  0  0  0  0  0  0
    9.0827   -9.1281   -1.4281 C   0  0  0  0  0  0  0  0  0  0  0  0
    7.9048   -0.9538   -0.3440 C   0  0  0  0  0  0  0  0  0  0  0  0
    7.6880   -0.0515    0.7076 C   0  0  0  0  0  0  0  0  0  0  0  0
    8.6297    0.0797    1.6619 F   0  0  0  0  0  0  0  0  0  0  0  0
    6.5194    0.6555    0.8480 C   0  0  0  0  0  0  0  0  0  0  0  0
    5.5084    0.5010   -0.1049 C   0  0  0  0  0  0  0  0  0  0  0  0
    5.7704   -0.2660   -1.2435 C   0  0  0  0  0  0  0  0  0  0  0  0
    6.9363   -0.9879   -1.3538 C   0  0  0  0  0  0  0  0  0  0  0  0
    4.1900    1.0411    0.1394 C   0  0  0  0  0  0  0  0  0  0  0  0
    3.4857    0.9830    1.3313 C   0  0  0  0  0  0  0  0  0  0  0  0
    3.9288    0.3813    2.5003 N   0  0  0  0  0  0  0  0  0  0  0  0
    3.5619    0.9351    3.7322 C   0  0  0  0  0  0  0  0  0  0  0  0
    3.4572    2.3154    3.8808 C   0  0  0  0  0  0  0  0  0  0  0  0
    3.0777    2.8708    5.0877 C   0  0  0  0  0  0  0  0  0  0  0  0
    2.8066    2.0515    6.1740 C   0  0  0  0  0  0  0  0  0  0  0  0
    2.3170    2.6366    7.7657 S   0  0  0  0  0  0  0  0  0  0  0  0
    2.2982    4.4429    7.5841 C   0  0  0  0  0  0  0  0  0  0  0  0
    2.9201    0.6688    6.0321 C   0  0  0  0  0  0  0  0  0  0  0  0
    3.2881    0.1152    4.8279 C   0  0  0  0  0  0  0  0  0  0  0  0
    4.7005   -0.7878    2.4370 C   0  0  0  0  0  0  0  0  0  0  0  0
    5.7667   -0.9857    3.3146 C   0  0  0  0  0  0  0  0  0  0  0  0
    6.5788   -2.0920    3.1835 C   0  0  0  0  0  0  0  0  0  0  0  0
    6.3466   -3.0181    2.1720 C   0  0  0  0  0  0  0  0  0  0  0  0
    7.4734   -4.3750    2.0118 S   0  0  0  0  0  0  0  0  0  0  0  0
    6.3905   -5.6798    1.3596 C   0  0  0  0  0  0  0  0  0  0  0  0
    5.2690   -2.8433    1.3141 C   0  0  0  0  0  0  0  0  0  0  0  0
    4.4478   -1.7452    1.4566 C   0  0  0  0  0  0  0  0  0  0  0  0
    2.1813    1.5145    1.1716 C   0  0  0  0  0  0  0  0  0  0  0  0
    0.8281    1.7131    2.2269 S   0  0  0  0  0  0  0  0  0  0  0  0
   -0.1545    2.3021    0.8871 C   0  0  0  0  0  0  0  0  0  0  0  0
    0.5694    2.4108   -0.2923 C   0  0  0  0  0  0  0  0  0  0  0  0
    0.1031    2.9377   -1.4827 N   0  0  0  0  0  0  0  0  0  0  0  0
   -0.6813    4.0964   -1.5076 C   0  0  0  0  0  0  0  0  0  0  0  0
   -0.5620    5.0666   -0.5168 C   0  0  0  0  0  0  0  0  0  0  0  0
   -1.3605    6.1938   -0.5295 C   0  0  0  0  0  0  0  0  0  0  0  0
   -2.2893    6.3777   -1.5441 C   0  0  0  0  0  0  0  0  0  0  0  0
   -3.3677    7.7693   -1.6680 S   0  0  0  0  0  0  0  0  0  0  0  0
   -2.9951    8.7496   -0.1866 C   0  0  0  0  0  0  0  0  0  0  0  0
   -2.3999    5.4174   -2.5489 C   0  0  0  0  0  0  0  0  0  0  0  0
   -1.6116    4.2906   -2.5312 C   0  0  0  0  0  0  0  0  0  0  0  0
    0.5667    2.3641   -2.6772 C   0  0  0  0  0  0  0  0  0  0  0  0
    0.6507    0.9759   -2.7918 C   0  0  0  0  0  0  0  0  0  0  0  0
    1.1412    0.4030   -3.9430 C   0  0  0  0  0  0  0  0  0  0  0  0
    1.5501    1.2005   -5.0104 C   0  0  0  0  0  0  0  0  0  0  0  0
    2.1697    0.3521   -6.4279 S   0  0  0  0  0  0  0  0  0  0  0  0
    2.5989    1.6821   -7.5857 C   0  0  0  0  0  0  0  0  0  0  0  0
    1.4523    2.5818   -4.9062 C   0  0  0  0  0  0  0  0  0  0  0  0
    0.9692    3.1567   -3.7472 C   0  0  0  0  0  0  0  0  0  0  0  0
    1.8939    1.9342   -0.1162 C   0  0  0  0  0  0  0  0  0  0  0  0
    3.2352    1.6913   -1.1794 S   0  0  0  0  0  0  0  0  0  0  0  0
   -1.5476    2.4819    1.1178 C   0  0  0  0  0  0  0  0  0  0  0  0
   -2.7116    2.3345   -0.1907 S   0  0  0  0  0  0  0  0  0  0  0  0
   -4.0376    2.4577    0.9338 C   0  0  0  0  0  0  0  0  0  0  0  0
   -5.3722    2.3777    0.6219 C   0  0  0  0  0  0  0  0  0  0  0  0
   -6.2944    2.4551    1.6709 C   0  0  0  0  0  0  0  0  0  0  0  0
   -7.6976    2.3375    1.6030 C   0  0  0  0  0  0  0  0  0  0  0  0
   -8.3171    2.4262    2.8245 C   0  0  0  0  0  0  0  0  0  0  0  0
   -7.1517    2.7082    4.1240 S   0  0  0  0  0  0  0  0  0  0  0  0
   -5.8282    2.6455    3.0027 C   0  0  0  0  0  0  0  0  0  0  0  0
   -4.4887    2.7351    3.3104 C   0  0  0  0  0  0  0  0  0  0  0  0
   -3.5696    2.6264    2.2671 C   0  0  0  0  0  0  0  0  0  0  0  0
   -2.1577    2.6305    2.3327 C   0  0  0  0  0  0  0  0  0  0  0  0
   -9.6757    2.3481    3.2139 C   0  0  0  0  0  0  0  0  0  0  0  0
  -10.7707    1.8947    2.5389 C   0  0  0  0  0  0  0  0  0  0  0  0
  -10.8295    1.1905    1.2336 C   0  0  0  0  0  0  0  0  0  0  0  0
   -9.9809    1.1171    0.3696 O   0  0  0  0  0  0  0  0  0  0  0  0
  -12.1611    0.5582    1.1829 C   0  0  0  0  0  0  0  0  0  0  0  0
  -12.6334   -0.3058    0.1961 C   0  0  0  0  0  0  0  0  0  0  0  0
  -13.9085   -0.7656    0.4193 C   0  0  0  0  0  0  0  0  0  0  0  0
  -14.6595   -0.3989    1.5450 C   0  0  0  0  0  0  0  0  0  0  0  0
  -14.2084    0.4545    2.5229 C   0  0  0  0  0  0  0  0  0  0  0  0
  -12.9139    0.9403    2.3104 C   0  0  0  0  0  0  0  0  0  0  0  0
  -12.1073    1.8500    3.1157 C   0  0  0  0  0  0  0  0  0  0  0  0
  -12.5612    2.5919    4.1733 C   0  0  0  0  0  0  0  0  0  0  0  0
  -13.8787    2.5360    4.6754 C   0  0  0  0  0  0  0  0  0  0  0  0
  -14.9305    2.5388    5.1353 N   0  0  0  0  0  0  0  0  0  0  0  0
  -11.8097    3.5583    4.8771 C   0  0  0  0  0  0  0  0  0  0  0  0
  -11.2838    4.3804    5.4823 N   0  0  0  0  0  0  0  0  0  0  0  0
  -15.8406   -1.2403    1.1305 C   0  0  0  0  0  0  0  0  0  0  0  0
  -17.0405   -0.4893    0.5156 C   0  0  0  0  0  0  0  0  0  0  0  0
  -17.8060   -1.5690   -0.2147 C   0  0  0  0  0  0  0  0  0  0  0  0
  -17.0969   -1.9149   -1.2816 C   0  0  0  0  0  0  0  0  0  0  0  0
  -15.8402   -1.0746   -1.2906 C   0  0  0  0  0  0  0  0  0  0  0  0
  -16.3848    0.2210   -0.6756 C   0  0  0  0  0  0  0  0  0  0  0  0
  -15.0049   -1.6470   -0.1256 C   0  0  0  0  0  0  0  0  0  0  0  0
    9.9479   -1.2857    0.1560 H   0  0  0  0  0  0  0  0  0  0  0  0
    7.1291   -6.5909   -1.6299 H   0  0  0  0  0  0  0  0  0  0  0  0
   12.0552   -6.2457   -0.5087 H   0  0  0  0  0  0  0  0  0  0  0  0
   10.9537   -9.4896   -0.1692 H   0  0  0  0  0  0  0  0  0  0  0  0
   12.3365   -9.8177   -2.2137 H   0  0  0  0  0  0  0  0  0  0  0  0
   11.7152   -7.8788   -3.8535 H   0  0  0  0  0  0  0  0  0  0  0  0
    9.1359   -8.0910   -4.4535 H   0  0  0  0  0  0  0  0  0  0  0  0
    8.1675  -10.1614   -3.1812 H   0  0  0  0  0  0  0  0  0  0  0  0
   10.1906  -11.4190   -1.9279 H   0  0  0  0  0  0  0  0  0  0  0  0
   10.5700  -11.1706   -3.6506 H   0  0  0  0  0  0  0  0  0  0  0  0
    8.4469   -9.6961   -0.7511 H   0  0  0  0  0  0  0  0  0  0  0  0
    6.3926    1.3105    1.6950 H   0  0  0  0  0  0  0  0  0  0  0  0
    5.0195   -0.3326   -2.0166 H   0  0  0  0  0  0  0  0  0  0  0  0
    7.1056   -1.5985   -2.2244 H   0  0  0  0  0  0  0  0  0  0  0  0
    3.6821    2.9625    3.0454 H   0  0  0  0  0  0  0  0  0  0  0  0
    3.0070    3.9436    5.1651 H   0  0  0  0  0  0  0  0  0  0  0  0
    3.2922    4.8020    7.3336 H   0  0  0  0  0  0  0  0  0  0  0  0
    2.0011    4.8296    8.5539 H   0  0  0  0  0  0  0  0  0  0  0  0
    1.5700    4.7341    6.8328 H   0  0  0  0  0  0  0  0  0  0  0  0
    2.7057    0.0363    6.8798 H   0  0  0  0  0  0  0  0  0  0  0  0
    3.3617   -0.9566    4.7231 H   0  0  0  0  0  0  0  0  0  0  0  0
    5.9663   -0.2593    4.0880 H   0  0  0  0  0  0  0  0  0  0  0  0
    7.4151   -2.2346    3.8498 H   0  0  0  0  0  0  0  0  0  0  0  0
    6.1274   -5.4608    0.3296 H   0  0  0  0  0  0  0  0  0  0  0  0
    5.5049   -5.7508    1.9835 H   0  0  0  0  0  0  0  0  0  0  0  0
    6.9638   -6.6000    1.4105 H   0  0  0  0  0  0  0  0  0  0  0  0
    5.0764   -3.5418    0.5172 H   0  0  0  0  0  0  0  0  0  0  0  0
    3.6117   -1.6166    0.7857 H   0  0  0  0  0  0  0  0  0  0  0  0
    0.1622    4.9410    0.2745 H   0  0  0  0  0  0  0  0  0  0  0  0
   -1.2404    6.9217    0.2565 H   0  0  0  0  0  0  0  0  0  0  0  0
   -3.1893    8.1617    0.7058 H   0  0  0  0  0  0  0  0  0  0  0  0
   -3.6705    9.5987   -0.2223 H   0  0  0  0  0  0  0  0  0  0  0  0
   -1.9664    9.0969   -0.2175 H   0  0  0  0  0  0  0  0  0  0  0  0
   -3.1239    5.5638   -3.3355 H   0  0  0  0  0  0  0  0  0  0  0  0
   -1.7198    3.5414   -3.3002 H   0  0  0  0  0  0  0  0  0  0  0  0
    0.3246    0.3535   -1.9717 H   0  0  0  0  0  0  0  0  0  0  0  0
    1.2102   -0.6701   -4.0332 H   0  0  0  0  0  0  0  0  0  0  0  0
    2.9853    1.1847   -8.4700 H   0  0  0  0  0  0  0  0  0  0  0  0
    1.7112    2.2527   -7.8429 H   0  0  0  0  0  0  0  0  0  0  0  0
    3.3678    2.3165   -7.1546 H   0  0  0  0  0  0  0  0  0  0  0  0
    1.7594    3.2255   -5.7143 H   0  0  0  0  0  0  0  0  0  0  0  0
    0.9104    4.2320   -3.6673 H   0  0  0  0  0  0  0  0  0  0  0  0
   -5.7094    2.2389   -0.3927 H   0  0  0  0  0  0  0  0  0  0  0  0
   -8.2333    2.1808    0.6854 H   0  0  0  0  0  0  0  0  0  0  0  0
   -4.1528    2.8671    4.3266 H   0  0  0  0  0  0  0  0  0  0  0  0
   -1.6059    2.7310    3.2508 H   0  0  0  0  0  0  0  0  0  0  0  0
   -9.8386    2.6525    4.2421 H   0  0  0  0  0  0  0  0  0  0  0  0
  -12.0173   -0.5698   -0.6492 H   0  0  0  0  0  0  0  0  0  0  0  0
  -14.7927    0.7184    3.3884 H   0  0  0  0  0  0  0  0  0  0  0  0
  -16.1386   -2.0171    1.8321 H   0  0  0  0  0  0  0  0  0  0  0  0
  -17.6023    0.1215    1.2167 H   0  0  0  0  0  0  0  0  0  0  0  0
  -18.7265   -1.9952    0.1385 H   0  0  0  0  0  0  0  0  0  0  0  0
  -17.3069   -2.6878   -1.9975 H   0  0  0  0  0  0  0  0  0  0  0  0
  -15.3103   -0.9971   -2.2362 H   0  0  0  0  0  0  0  0  0  0  0  0
  -15.6148    0.9378   -0.3961 H   0  0  0  0  0  0  0  0  0  0  0  0
  -17.1169    0.7058   -1.3192 H   0  0  0  0  0  0  0  0  0  0  0  0
  -14.7464   -2.6954   -0.2625 H   0  0  0  0  0  0  0  0  0  0  0  0
  1  2  2  0  0  0  0
  2  3  1  0  0  0  0
  3  4  2  0  0  0  0
  3  5  1  0  0  0  0
  5  6  2  0  0  0  0
  6  7  1  0  0  0  0
  7  8  2  0  0  0  0
  8  9  1  0  0  0  0
  9 10  2  0  0  0  0
 10 11  1  0  0  0  0
 11 12  2  0  0  0  0
 12 13  1  0  0  0  0
 13 14  3  0  0  0  0
 12 15  1  0  0  0  0
 15 16  3  0  0  0  0
  8 17  1  0  0  0  0
 17 18  1  0  0  0  0
 18 19  1  0  0  0  0
 19 20  2  0  0  0  0
 20 21  1  0  0  0  0
 21 22  1  0  0  0  0
 21 23  1  0  0  0  0
  1 24  1  0  0  0  0
 24 25  2  0  0  0  0
 25 26  1  0  0  0  0
 25 27  1  0  0  0  0
 27 28  2  0  0  0  0
 28 29  1  0  0  0  0
 29 30  2  0  0  0  0
 28 31  1  0  0  0  0
 31 32  2  0  0  0  0
 32 33  1  0  0  0  0
 33 34  1  0  0  0  0
 34 35  2  0  0  0  0
 35 36  1  0  0  0  0
 36 37  2  0  0  0  0
 37 38  1  0  0  0  0
 38 39  1  0  0  0  0
 37 40  1  0  0  0  0
 40 41  2  0  0  0  0
 33 42  1  0  0  0  0
 42 43  2  0  0  0  0
 43 44  1  0  0  0  0
 44 45  2  0  0  0  0
 45 46  1  0  0  0  0
 46 47  1  0  0  0  0
 45 48  1  0  0  0  0
 48 49  2  0  0  0  0
 32 50  1  0  0  0  0
 50 51  1  0  0  0  0
 51 52  1  0  0  0  0
 52 53  2  0  0  0  0
 53 54  1  0  0  0  0
 54 55  1  0  0  0  0
 55 56  2  0  0  0  0
 56 57  1  0  0  0  0
 57 58  2  0  0  0  0
 58 59  1  0  0  0  0
 59 60  1  0  0  0  0
 58 61  1  0  0  0  0
 61 62  2  0  0  0  0
 54 63  1  0  0  0  0
 63 64  2  0  0  0  0
 64 65  1  0  0  0  0
 65 66  2  0  0  0  0
 66 67  1  0  0  0  0
 67 68  1  0  0  0  0
 66 69  1  0  0  0  0
 69 70  2  0  0  0  0
 53 71  1  0  0  0  0
 71 72  1  0  0  0  0
 52 73  1  0  0  0  0
 73 74  1  0  0  0  0
 74 75  1  0  0  0  0
 75 76  2  0  0  0  0
 76 77  1  0  0  0  0
 77 78  1  0  0  0  0
 78 79  2  0  0  0  0
 79 80  1  0  0  0  0
 80 81  1  0  0  0  0
 81 82  1  0  0  0  0
 82 83  2  0  0  0  0
 83 84  1  0  0  0  0
 79 85  1  0  0  0  0
 85 86  2  0  0  0  0
 86 87  1  0  0  0  0
 87 88  2  0  0  0  0
 87 89  1  0  0  0  0
 89 90  2  0  0  0  0
 90 91  1  0  0  0  0
 91 92  2  0  0  0  0
 92 93  1  0  0  0  0
 93 94  2  0  0  0  0
 94 95  1  0  0  0  0
 95 96  2  0  0  0  0
 96 97  1  0  0  0  0
 97 98  3  0  0  0  0
 96 99  1  0  0  0  0
 99100  3  0  0  0  0
 92101  1  0  0  0  0
101102  1  0  0  0  0
102103  1  0  0  0  0
103104  2  0  0  0  0
104105  1  0  0  0  0
105106  1  0  0  0  0
105107  1  0  0  0  0
 11  2  1  0  0  0  0
 23 17  1  0  0  0  0
 30 24  1  0  0  0  0
 72 31  1  0  0  0  0
 84 73  2  0  0  0  0
 95 86  1  0  0  0  0
107101  1  0  0  0  0
 10  5  1  0  0  0  0
 22 18  1  0  0  0  0
 41 34  1  0  0  0  0
 49 42  1  0  0  0  0
 71 50  2  0  0  0  0
 83 75  1  0  0  0  0
 94 89  1  0  0  0  0
106102  1  0  0  0  0
 23  7  1  0  0  0  0
 62 55  1  0  0  0  0
 70 63  1  0  0  0  0
 81 77  2  0  0  0  0
107 91  1  0  0  0  0
  1108  1  0  0  0  0
  6109  1  0  0  0  0
  9110  1  0  0  0  0
 17111  1  0  0  0  0
 18112  1  0  0  0  0
 19113  1  0  0  0  0
 20114  1  0  0  0  0
 21115  1  0  0  0  0
 22116  1  0  0  0  0
 22117  1  0  0  0  0
 23118  1  0  0  0  0
 27119  1  0  0  0  0
 29120  1  0  0  0  0
 30121  1  0  0  0  0
 35122  1  0  0  0  0
 36123  1  0  0  0  0
 39124  1  0  0  0  0
 39125  1  0  0  0  0
 39126  1  0  0  0  0
 40127  1  0  0  0  0
 41128  1  0  0  0  0
 43129  1  0  0  0  0
 44130  1  0  0  0  0
 47131  1  0  0  0  0
 47132  1  0  0  0  0
 47133  1  0  0  0  0
 48134  1  0  0  0  0
 49135  1  0  0  0  0
 56136  1  0  0  0  0
 57137  1  0  0  0  0
 60138  1  0  0  0  0
 60139  1  0  0  0  0
 60140  1  0  0  0  0
 61141  1  0  0  0  0
 62142  1  0  0  0  0
 64143  1  0  0  0  0
 65144  1  0  0  0  0
 68145  1  0  0  0  0
 68146  1  0  0  0  0
 68147  1  0  0  0  0
 69148  1  0  0  0  0
 70149  1  0  0  0  0
 76150  1  0  0  0  0
 78151  1  0  0  0  0
 82152  1  0  0  0  0
 84153  1  0  0  0  0
 85154  1  0  0  0  0
 90155  1  0  0  0  0
 93156  1  0  0  0  0
101157  1  0  0  0  0
102158  1  0  0  0  0
103159  1  0  0  0  0
104160  1  0  0  0  0
105161  1  0  0  0  0
106162  1  0  0  0  0
106163  1  0  0  0  0
107164  1  0  0  0  0
M  END
