113

C          5.37390       -4.03980       -2.39260
C          5.02180       -3.49540       -3.57750
C          3.79910       -2.66160       -3.79390
O          2.94410       -2.36920       -2.98890
C          3.89760       -2.16640       -5.17650
C          2.98190       -1.33830       -5.82310
C          3.33460       -1.00970       -7.10850
C          4.51700       -1.46710       -7.70870
C          5.42700       -2.28470       -7.08400
C          5.08640       -2.63440       -5.77200
C          5.79850       -3.46970       -4.81210
C          6.96310       -4.14640       -5.04800
C          7.67850       -4.11160       -6.26490
N          8.31430       -4.12720       -7.22040
C          7.62340       -4.98160       -4.12030
N          8.21980       -5.67830       -3.42990
C          4.24030       -0.73220       -8.99610
C          5.01780        0.58190       -9.25690
C          5.37250        1.14770       -7.90410
C          4.25260        1.57730       -7.33820
C          3.11980        1.30940       -8.29840
C          3.84840        1.50410       -9.63760
C          2.92230       -0.22670       -8.32910
C          4.49470       -4.07950       -1.23890
C          3.16790       -4.50750       -1.34010
F          2.74050       -5.05990       -2.49110
C          2.28870       -4.42200       -0.28670
C          2.71840       -3.88080        0.92390
C          4.06460       -3.55330        1.08040
C          4.93810       -3.66590        0.01850
C          1.73240       -3.54010        1.95330
C          1.90370       -3.74230        3.30360
F          2.98750       -4.39710        3.75590
C          0.96960       -3.28700        4.25270
F          1.22250       -3.54900        5.54010
C         -0.17920       -2.61870        3.88470
C         -0.39940       -2.41180        2.49560
N         -1.49520       -1.75030        2.07680
C         -1.66270       -1.50760        0.80350
C         -2.89200       -0.75460        0.39290
C         -3.91580       -0.62330        1.51250
C         -0.67920       -1.92130       -0.14730
N          0.37920       -2.57760        0.24360
C          0.55350       -2.85670        1.54700
C         -0.78080       -1.66860       -1.62000
C         -1.51690       -2.81990       -2.31070
C         -1.09150       -2.01520        4.86240
C         -2.47240       -1.99110        4.65960
C         -3.25210       -1.23130        5.50570
C         -2.64660       -0.53950        6.55680
C         -1.27200       -0.74030        6.74180
N         -0.52360       -1.42810        5.91430
C         -3.35830        0.39620        7.40140
C         -4.13190        1.39900        6.92950
C         -4.19930        1.82000        5.49860
O         -3.83830        1.20800        4.51820
C         -4.75280        3.18490        5.52020
C         -4.89180        4.03940        4.42700
C         -5.41830        5.26810        4.74100
C         -5.77790        5.62760        6.04840
C         -5.64620        4.79720        7.13500
C         -5.11550        3.53670        6.83660
C         -4.82110        2.41450        7.71760
C         -5.19090        2.29300        9.02770
C         -4.95310        1.14660        9.81780
N         -4.80860        0.24130       10.50810
C         -5.90090        3.27660        9.74910
N         -6.47710        4.03840       10.38520
C         -6.22700        7.00550        5.63020
C         -7.74970        7.23090        5.51720
C         -7.86860        8.46440        4.65130
C         -7.52970        8.12380        3.41450
C         -7.17560        6.65410        3.42340
C         -8.14860        6.15460        4.49910
C         -5.82760        6.60400        4.17380
H          6.36790       -4.44310       -2.24910
H          2.08560       -1.00900       -5.32110
H          6.33130       -2.62520       -7.55990
H          4.15730       -1.34870       -9.88870
H          5.83470        0.48900       -9.96730
H          6.36240        1.12660       -7.48730
H          4.11960        1.98640       -6.35380
H          2.20830        1.87890       -8.13660
H          3.27930        1.15160      -10.49660
H          4.16070        2.53440       -9.80070
H          1.97720       -0.51510       -8.78490
H          1.27250       -4.75170       -0.41870
H          4.41860       -3.17000        2.02460
H          5.96950       -3.36850        0.13520
H         -3.34290       -1.25130       -0.46970
H         -2.57800        0.24160        0.06430
H         -4.26240       -1.60600        1.82120
H         -3.48410       -0.12690        2.37610
H         -4.77150       -0.04840        1.16630
H          0.23410       -1.61780       -2.01720
H         -1.29480       -0.72620       -1.81180
H         -0.96480       -3.74570       -2.17330
H         -1.59810       -2.62310       -3.37660
H         -2.51840       -2.95040       -1.90520
H         -2.91050       -2.54260        3.84680
H         -4.32140       -1.18050        5.37060
H         -0.75010       -0.26970        7.56520
H         -3.16670        0.32350        8.46540
H         -4.59350        3.72530        3.43910
H         -5.91240        5.09090        8.13670
H         -5.70760        7.83650        6.10310
H         -8.27890        7.24520        6.46580
H         -8.12530        9.43770        5.02590
H         -7.44630        8.75550        2.54970
H         -7.18210        6.14320        2.46440
H         -9.18780        6.24780        4.18860
H         -7.95830        5.13590        4.83210
H         -5.04140        7.16730        3.67450
