
  xtb     02092202283D
 energy: -298.230896496067 gnorm: 0.000400081863 xtb: 6.4.1 (unknown)
166184  0     0  0            999 V2000
    3.3282   -2.2019   -6.8563 C   0  0  0  0  0  0  0  0  0  0  0  0
    2.6982   -2.8010   -7.8874 C   0  0  0  0  0  0  0  0  0  0  0  0
    3.3803   -2.8323   -9.2237 C   0  0  0  0  0  0  0  0  0  0  0  0
    4.5395   -2.5751   -9.4401 O   0  0  0  0  0  0  0  0  0  0  0  0
    2.3264   -3.1798  -10.1892 C   0  0  0  0  0  0  0  0  0  0  0  0
    2.4354   -3.2051  -11.5795 C   0  0  0  0  0  0  0  0  0  0  0  0
    1.2739   -3.5515  -12.2257 C   0  0  0  0  0  0  0  0  0  0  0  0
    0.0814   -3.8372  -11.5439 C   0  0  0  0  0  0  0  0  0  0  0  0
   -0.0424   -3.8161  -10.1756 C   0  0  0  0  0  0  0  0  0  0  0  0
    1.1343   -3.4837   -9.4968 C   0  0  0  0  0  0  0  0  0  0  0  0
    1.3864   -3.4012   -8.0622 C   0  0  0  0  0  0  0  0  0  0  0  0
    0.6249   -3.9841   -7.0869 C   0  0  0  0  0  0  0  0  0  0  0  0
    0.9978   -4.0398   -5.7290 C   0  0  0  0  0  0  0  0  0  0  0  0
    1.2718   -4.1181   -4.6172 N   0  0  0  0  0  0  0  0  0  0  0  0
   -0.5871   -4.6661   -7.3290 C   0  0  0  0  0  0  0  0  0  0  0  0
   -1.5732   -5.2360   -7.4667 N   0  0  0  0  0  0  0  0  0  0  0  0
   -0.6779   -4.1005  -12.8198 C   0  0  0  0  0  0  0  0  0  0  0  0
   -0.9341   -5.5814  -13.1722 C   0  0  0  0  0  0  0  0  0  0  0  0
   -1.2439   -5.5527  -14.6516 C   0  0  0  0  0  0  0  0  0  0  0  0
   -0.1140   -5.2885  -15.2954 C   0  0  0  0  0  0  0  0  0  0  0  0
    0.9785   -5.1337  -14.2620 C   0  0  0  0  0  0  0  0  0  0  0  0
    0.4933   -6.1423  -13.2126 C   0  0  0  0  0  0  0  0  0  0  0  0
    0.6519   -3.7883  -13.5788 C   0  0  0  0  0  0  0  0  0  0  0  0
    2.8145   -1.7344   -5.5911 C   0  0  0  0  0  0  0  0  0  0  0  0
    3.6574   -1.6933   -4.4724 C   0  0  0  0  0  0  0  0  0  0  0  0
    4.8893   -2.2024   -4.5768 F   0  0  0  0  0  0  0  0  0  0  0  0
    3.2452   -1.1556   -3.2708 C   0  0  0  0  0  0  0  0  0  0  0  0
    4.0745   -1.1868   -2.2179 F   0  0  0  0  0  0  0  0  0  0  0  0
    1.9816   -0.5664   -3.1198 C   0  0  0  0  0  0  0  0  0  0  0  0
    1.1232   -0.6464   -4.2208 C   0  0  0  0  0  0  0  0  0  0  0  0
   -0.0923   -0.0859   -4.1491 F   0  0  0  0  0  0  0  0  0  0  0  0
    1.5290   -1.2078   -5.4158 C   0  0  0  0  0  0  0  0  0  0  0  0
    0.6932   -1.1491   -6.4689 F   0  0  0  0  0  0  0  0  0  0  0  0
    1.6417    0.1592   -1.9170 C   0  0  0  0  0  0  0  0  0  0  0  0
    2.4418    1.0979   -1.2768 C   0  0  0  0  0  0  0  0  0  0  0  0
    3.6473    1.5820   -1.7378 N   0  0  0  0  0  0  0  0  0  0  0  0
    4.6260    1.9770   -0.8119 C   0  0  0  0  0  0  0  0  0  0  0  0
    4.8127    1.2647    0.3686 C   0  0  0  0  0  0  0  0  0  0  0  0
    5.7508    1.6733    1.2964 C   0  0  0  0  0  0  0  0  0  0  0  0
    6.5268    2.7972    1.0493 C   0  0  0  0  0  0  0  0  0  0  0  0
    7.7472    3.4211    2.1592 S   0  0  0  0  0  0  0  0  0  0  0  0
    7.5541    2.3923    3.6422 C   0  0  0  0  0  0  0  0  0  0  0  0
    6.3633    3.4942   -0.1477 C   0  0  0  0  0  0  0  0  0  0  0  0
    5.4222    3.0929   -1.0679 C   0  0  0  0  0  0  0  0  0  0  0  0
    3.9388    1.6015   -3.1105 C   0  0  0  0  0  0  0  0  0  0  0  0
    5.1917    1.1957   -3.5722 C   0  0  0  0  0  0  0  0  0  0  0  0
    5.4264    1.0790   -4.9236 C   0  0  0  0  0  0  0  0  0  0  0  0
    4.4210    1.3678   -5.8454 C   0  0  0  0  0  0  0  0  0  0  0  0
    4.7926    1.0586   -7.5427 S   0  0  0  0  0  0  0  0  0  0  0  0
    3.1814    1.1763   -8.3700 C   0  0  0  0  0  0  0  0  0  0  0  0
    3.2035    1.8598   -5.3917 C   0  0  0  0  0  0  0  0  0  0  0  0
    2.9688    1.9789   -4.0360 C   0  0  0  0  0  0  0  0  0  0  0  0
    1.8041    1.5646   -0.0981 C   0  0  0  0  0  0  0  0  0  0  0  0
    2.2300    2.6944    1.1432 S   0  0  0  0  0  0  0  0  0  0  0  0
    0.7351    2.3673    1.9681 C   0  0  0  0  0  0  0  0  0  0  0  0
   -0.0682    1.4667    1.3074 C   0  0  0  0  0  0  0  0  0  0  0  0
   -1.3236    1.0516    1.7793 N   0  0  0  0  0  0  0  0  0  0  0  0
   -2.2958    2.0524    1.9287 C   0  0  0  0  0  0  0  0  0  0  0  0
   -2.5137    2.9544    0.8878 C   0  0  0  0  0  0  0  0  0  0  0  0
   -3.4651    3.9425    1.0134 C   0  0  0  0  0  0  0  0  0  0  0  0
   -4.2192    4.0531    2.1789 C   0  0  0  0  0  0  0  0  0  0  0  0
   -5.4149    5.3584    2.2296 S   0  0  0  0  0  0  0  0  0  0  0  0
   -6.1167    5.2461    3.8995 C   0  0  0  0  0  0  0  0  0  0  0  0
   -3.9923    3.1705    3.2255 C   0  0  0  0  0  0  0  0  0  0  0  0
   -3.0353    2.1835    3.1010 C   0  0  0  0  0  0  0  0  0  0  0  0
   -1.4596   -0.1912    2.3975 C   0  0  0  0  0  0  0  0  0  0  0  0
   -2.7278   -0.7228    2.6431 C   0  0  0  0  0  0  0  0  0  0  0  0
   -2.8686   -1.8981    3.3441 C   0  0  0  0  0  0  0  0  0  0  0  0
   -1.7482   -2.5908    3.7934 C   0  0  0  0  0  0  0  0  0  0  0  0
   -2.0323   -4.0498    4.7613 S   0  0  0  0  0  0  0  0  0  0  0  0
   -0.4581   -4.2624    5.6434 C   0  0  0  0  0  0  0  0  0  0  0  0
   -0.4862   -2.1266    3.4601 C   0  0  0  0  0  0  0  0  0  0  0  0
   -0.3457   -0.9400    2.7674 C   0  0  0  0  0  0  0  0  0  0  0  0
    0.5533    1.0081    0.1208 C   0  0  0  0  0  0  0  0  0  0  0  0
    0.0936   -0.0840   -1.1296 S   0  0  0  0  0  0  0  0  0  0  0  0
    0.4353    2.8337    3.3206 C   0  0  0  0  0  0  0  0  0  0  0  0
   -0.4568    3.8795    3.6043 C   0  0  0  0  0  0  0  0  0  0  0  0
   -0.9636    4.8497    2.8310 N   0  0  0  0  0  0  0  0  0  0  0  0
   -1.7366    5.5249    3.6296 N   0  0  0  0  0  0  0  0  0  0  0  0
   -2.3803    6.7319    3.1981 C   0  0  0  0  0  0  0  0  0  0  0  0
   -1.3967    7.8965    3.2504 C   0  0  0  0  0  0  0  0  0  0  0  0
   -1.8285    5.1073    4.8610 N   0  0  0  0  0  0  0  0  0  0  0  0
   -1.0052    4.0505    4.9129 C   0  0  0  0  0  0  0  0  0  0  0  0
   -0.6964    3.1586    5.9566 C   0  0  0  0  0  0  0  0  0  0  0  0
    0.3304    2.2658    5.6966 C   0  0  0  0  0  0  0  0  0  0  0  0
    0.8915    2.1195    4.4146 C   0  0  0  0  0  0  0  0  0  0  0  0
    2.1301    0.9493    4.1932 Cl  0  0  0  0  0  0  0  0  0  0  0  0
    0.9227    1.2542    6.9573 Cl  0  0  0  0  0  0  0  0  0  0  0  0
   -1.4536    3.1391    7.1977 C   0  0  0  0  0  0  0  0  0  0  0  0
   -2.0447    2.0086    7.6366 C   0  0  0  0  0  0  0  0  0  0  0  0
   -2.1756    0.7668    6.8089 C   0  0  0  0  0  0  0  0  0  0  0  0
   -1.8638    0.6190    5.6464 O   0  0  0  0  0  0  0  0  0  0  0  0
   -2.8455   -0.2165    7.6628 C   0  0  0  0  0  0  0  0  0  0  0  0
   -3.1486   -1.5325    7.3187 C   0  0  0  0  0  0  0  0  0  0  0  0
   -3.7446   -2.2461    8.3279 C   0  0  0  0  0  0  0  0  0  0  0  0
   -4.0284   -1.6909    9.5854 C   0  0  0  0  0  0  0  0  0  0  0  0
   -3.7574   -0.3875    9.9275 C   0  0  0  0  0  0  0  0  0  0  0  0
   -3.1447    0.3615    8.9155 C   0  0  0  0  0  0  0  0  0  0  0  0
   -2.7073    1.7527    8.9119 C   0  0  0  0  0  0  0  0  0  0  0  0
   -2.8599    2.6476    9.9345 C   0  0  0  0  0  0  0  0  0  0  0  0
   -3.4876    2.3579   11.1655 C   0  0  0  0  0  0  0  0  0  0  0  0
   -3.9858    2.1956   12.1866 N   0  0  0  0  0  0  0  0  0  0  0  0
   -2.4264    3.9909    9.9059 C   0  0  0  0  0  0  0  0  0  0  0  0
   -2.1060    5.0918    9.9590 N   0  0  0  0  0  0  0  0  0  0  0  0
   -4.5973   -2.9851   10.1121 C   0  0  0  0  0  0  0  0  0  0  0  0
   -3.7065   -3.8290   11.0583 C   0  0  0  0  0  0  0  0  0  0  0  0
   -2.2761   -3.4929   10.7161 C   0  0  0  0  0  0  0  0  0  0  0  0
   -2.0121   -4.0128    9.5247 C   0  0  0  0  0  0  0  0  0  0  0  0
   -3.2588   -4.7102    9.0393 C   0  0  0  0  0  0  0  0  0  0  0  0
   -3.8318   -5.2019   10.3780 C   0  0  0  0  0  0  0  0  0  0  0  0
   -4.2851   -3.5982    8.7103 C   0  0  0  0  0  0  0  0  0  0  0  0
    4.3784   -1.9787   -7.0276 H   0  0  0  0  0  0  0  0  0  0  0  0
    3.3684   -2.9682  -12.0662 H   0  0  0  0  0  0  0  0  0  0  0  0
   -0.9671   -4.0222   -9.6625 H   0  0  0  0  0  0  0  0  0  0  0  0
   -1.5423   -3.4641  -12.9978 H   0  0  0  0  0  0  0  0  0  0  0  0
   -1.6525   -6.0834  -12.5302 H   0  0  0  0  0  0  0  0  0  0  0  0
   -2.2302   -5.6698  -15.0603 H   0  0  0  0  0  0  0  0  0  0  0  0
    0.0321   -5.1407  -16.3493 H   0  0  0  0  0  0  0  0  0  0  0  0
    2.0022   -5.2289  -14.6138 H   0  0  0  0  0  0  0  0  0  0  0  0
    0.5223   -7.1657  -13.5825 H   0  0  0  0  0  0  0  0  0  0  0  0
    1.0207   -6.0845  -12.2622 H   0  0  0  0  0  0  0  0  0  0  0  0
    0.6754   -2.9454  -14.2669 H   0  0  0  0  0  0  0  0  0  0  0  0
    4.2298    0.3755    0.5547 H   0  0  0  0  0  0  0  0  0  0  0  0
    5.8688    1.0995    2.2008 H   0  0  0  0  0  0  0  0  0  0  0  0
    7.8273    1.3641    3.4228 H   0  0  0  0  0  0  0  0  0  0  0  0
    6.5344    2.4621    4.0088 H   0  0  0  0  0  0  0  0  0  0  0  0
    8.2401    2.8054    4.3751 H   0  0  0  0  0  0  0  0  0  0  0  0
    6.9783    4.3602   -0.3380 H   0  0  0  0  0  0  0  0  0  0  0  0
    5.2913    3.6423   -1.9880 H   0  0  0  0  0  0  0  0  0  0  0  0
    5.9605    0.9313   -2.8626 H   0  0  0  0  0  0  0  0  0  0  0  0
    6.3822    0.7300   -5.2819 H   0  0  0  0  0  0  0  0  0  0  0  0
    3.3497    0.8149   -9.3800 H   0  0  0  0  0  0  0  0  0  0  0  0
    2.8458    2.2089   -8.4005 H   0  0  0  0  0  0  0  0  0  0  0  0
    2.4565    0.5419   -7.8690 H   0  0  0  0  0  0  0  0  0  0  0  0
    2.4288    2.1506   -6.0828 H   0  0  0  0  0  0  0  0  0  0  0  0
    2.0153    2.3504   -3.6904 H   0  0  0  0  0  0  0  0  0  0  0  0
   -1.9344    2.8745   -0.0191 H   0  0  0  0  0  0  0  0  0  0  0  0
   -3.6412    4.6359    0.2052 H   0  0  0  0  0  0  0  0  0  0  0  0
   -6.6393    4.3015    4.0197 H   0  0  0  0  0  0  0  0  0  0  0  0
   -5.3331    5.3596    4.6435 H   0  0  0  0  0  0  0  0  0  0  0  0
   -6.8217    6.0682    3.9751 H   0  0  0  0  0  0  0  0  0  0  0  0
   -4.5405    3.2457    4.1510 H   0  0  0  0  0  0  0  0  0  0  0  0
   -2.8391    1.5199    3.9288 H   0  0  0  0  0  0  0  0  0  0  0  0
   -3.6054   -0.1991    2.2969 H   0  0  0  0  0  0  0  0  0  0  0  0
   -3.8524   -2.2893    3.5571 H   0  0  0  0  0  0  0  0  0  0  0  0
    0.3040   -4.6449    4.9702 H   0  0  0  0  0  0  0  0  0  0  0  0
   -0.1569   -3.3130    6.0768 H   0  0  0  0  0  0  0  0  0  0  0  0
   -0.6507   -4.9895    6.4263 H   0  0  0  0  0  0  0  0  0  0  0  0
    0.4010   -2.6693    3.7460 H   0  0  0  0  0  0  0  0  0  0  0  0
    0.6456   -0.5884    2.5289 H   0  0  0  0  0  0  0  0  0  0  0  0
   -2.7341    6.5772    2.1778 H   0  0  0  0  0  0  0  0  0  0  0  0
   -3.2234    6.9105    3.8659 H   0  0  0  0  0  0  0  0  0  0  0  0
   -1.0421    8.0479    4.2671 H   0  0  0  0  0  0  0  0  0  0  0  0
   -1.8874    8.8041    2.9118 H   0  0  0  0  0  0  0  0  0  0  0  0
   -0.5455    7.6944    2.6053 H   0  0  0  0  0  0  0  0  0  0  0  0
   -1.5408    4.0760    7.7299 H   0  0  0  0  0  0  0  0  0  0  0  0
   -2.9144   -1.9199    6.3400 H   0  0  0  0  0  0  0  0  0  0  0  0
   -3.9916    0.0260   10.8943 H   0  0  0  0  0  0  0  0  0  0  0  0
   -5.6347   -2.9530   10.4384 H   0  0  0  0  0  0  0  0  0  0  0  0
   -3.9764   -3.7635   12.1089 H   0  0  0  0  0  0  0  0  0  0  0  0
   -1.6409   -2.8828   11.3313 H   0  0  0  0  0  0  0  0  0  0  0  0
   -1.1112   -3.9213    8.9466 H   0  0  0  0  0  0  0  0  0  0  0  0
   -3.1246   -5.4431    8.2485 H   0  0  0  0  0  0  0  0  0  0  0  0
   -4.8581   -5.5587   10.3055 H   0  0  0  0  0  0  0  0  0  0  0  0
   -3.2104   -5.9623   10.8486 H   0  0  0  0  0  0  0  0  0  0  0  0
   -5.1165   -3.9658    8.1131 H   0  0  0  0  0  0  0  0  0  0  0  0
  1  2  2  0  0  0  0
  2  3  1  0  0  0  0
  3  4  2  0  0  0  0
  3  5  1  0  0  0  0
  5  6  2  0  0  0  0
  6  7  1  0  0  0  0
  7  8  2  0  0  0  0
  8  9  1  0  0  0  0
  9 10  2  0  0  0  0
 10 11  1  0  0  0  0
 11 12  2  0  0  0  0
 12 13  1  0  0  0  0
 13 14  3  0  0  0  0
 12 15  1  0  0  0  0
 15 16  3  0  0  0  0
  8 17  1  0  0  0  0
 17 18  1  0  0  0  0
 18 19  1  0  0  0  0
 19 20  2  0  0  0  0
 20 21  1  0  0  0  0
 21 22  1  0  0  0  0
 21 23  1  0  0  0  0
  1 24  1  0  0  0  0
 24 25  2  0  0  0  0
 25 26  1  0  0  0  0
 25 27  1  0  0  0  0
 27 28  1  0  0  0  0
 27 29  2  0  0  0  0
 29 30  1  0  0  0  0
 30 31  1  0  0  0  0
 30 32  2  0  0  0  0
 32 33  1  0  0  0  0
 29 34  1  0  0  0  0
 34 35  2  0  0  0  0
 35 36  1  0  0  0  0
 36 37  1  0  0  0  0
 37 38  2  0  0  0  0
 38 39  1  0  0  0  0
 39 40  2  0  0  0  0
 40 41  1  0  0  0  0
 41 42  1  0  0  0  0
 40 43  1  0  0  0  0
 43 44  2  0  0  0  0
 36 45  1  0  0  0  0
 45 46  2  0  0  0  0
 46 47  1  0  0  0  0
 47 48  2  0  0  0  0
 48 49  1  0  0  0  0
 49 50  1  0  0  0  0
 48 51  1  0  0  0  0
 51 52  2  0  0  0  0
 35 53  1  0  0  0  0
 53 54  1  0  0  0  0
 54 55  1  0  0  0  0
 55 56  2  0  0  0  0
 56 57  1  0  0  0  0
 57 58  1  0  0  0  0
 58 59  2  0  0  0  0
 59 60  1  0  0  0  0
 60 61  2  0  0  0  0
 61 62  1  0  0  0  0
 62 63  1  0  0  0  0
 61 64  1  0  0  0  0
 64 65  2  0  0  0  0
 57 66  1  0  0  0  0
 66 67  2  0  0  0  0
 67 68  1  0  0  0  0
 68 69  2  0  0  0  0
 69 70  1  0  0  0  0
 70 71  1  0  0  0  0
 69 72  1  0  0  0  0
 72 73  2  0  0  0  0
 56 74  1  0  0  0  0
 74 75  1  0  0  0  0
 55 76  1  0  0  0  0
 76 77  1  0  0  0  0
 77 78  2  0  0  0  0
 78 79  1  0  0  0  0
 79 80  1  0  0  0  0
 80 81  1  0  0  0  0
 79 82  1  0  0  0  0
 82 83  2  0  0  0  0
 83 84  1  0  0  0  0
 84 85  2  0  0  0  0
 85 86  1  0  0  0  0
 86 87  1  0  0  0  0
 85 88  1  0  0  0  0
 84 89  1  0  0  0  0
 89 90  2  0  0  0  0
 90 91  1  0  0  0  0
 91 92  2  0  0  0  0
 91 93  1  0  0  0  0
 93 94  2  0  0  0  0
 94 95  1  0  0  0  0
 95 96  2  0  0  0  0
 96 97  1  0  0  0  0
 97 98  2  0  0  0  0
 98 99  1  0  0  0  0
 99100  2  0  0  0  0
100101  1  0  0  0  0
101102  3  0  0  0  0
100103  1  0  0  0  0
103104  3  0  0  0  0
 96105  1  0  0  0  0
105106  1  0  0  0  0
106107  1  0  0  0  0
107108  2  0  0  0  0
108109  1  0  0  0  0
109110  1  0  0  0  0
109111  1  0  0  0  0
 11  2  1  0  0  0  0
 23 17  1  0  0  0  0
 32 24  1  0  0  0  0
 75 34  1  0  0  0  0
 86 76  2  0  0  0  0
 99 90  1  0  0  0  0
111105  1  0  0  0  0
 10  5  1  0  0  0  0
 22 18  1  0  0  0  0
 44 37  1  0  0  0  0
 52 45  1  0  0  0  0
 74 53  2  0  0  0  0
 83 77  1  0  0  0  0
 98 93  1  0  0  0  0
110106  1  0  0  0  0
 23  7  1  0  0  0  0
 65 58  1  0  0  0  0
 73 66  1  0  0  0  0
111 95  1  0  0  0  0
  1112  1  0  0  0  0
  6113  1  0  0  0  0
  9114  1  0  0  0  0
 17115  1  0  0  0  0
 18116  1  0  0  0  0
 19117  1  0  0  0  0
 20118  1  0  0  0  0
 21119  1  0  0  0  0
 22120  1  0  0  0  0
 22121  1  0  0  0  0
 23122  1  0  0  0  0
 38123  1  0  0  0  0
 39124  1  0  0  0  0
 42125  1  0  0  0  0
 42126  1  0  0  0  0
 42127  1  0  0  0  0
 43128  1  0  0  0  0
 44129  1  0  0  0  0
 46130  1  0  0  0  0
 47131  1  0  0  0  0
 50132  1  0  0  0  0
 50133  1  0  0  0  0
 50134  1  0  0  0  0
 51135  1  0  0  0  0
 52136  1  0  0  0  0
 59137  1  0  0  0  0
 60138  1  0  0  0  0
 63139  1  0  0  0  0
 63140  1  0  0  0  0
 63141  1  0  0  0  0
 64142  1  0  0  0  0
 65143  1  0  0  0  0
 67144  1  0  0  0  0
 68145  1  0  0  0  0
 71146  1  0  0  0  0
 71147  1  0  0  0  0
 71148  1  0  0  0  0
 72149  1  0  0  0  0
 73150  1  0  0  0  0
 80151  1  0  0  0  0
 80152  1  0  0  0  0
 81153  1  0  0  0  0
 81154  1  0  0  0  0
 81155  1  0  0  0  0
 89156  1  0  0  0  0
 94157  1  0  0  0  0
 97158  1  0  0  0  0
105159  1  0  0  0  0
106160  1  0  0  0  0
107161  1  0  0  0  0
108162  1  0  0  0  0
109163  1  0  0  0  0
110164  1  0  0  0  0
110165  1  0  0  0  0
111166  1  0  0  0  0
M  END
