
  xtb     02132208053D
 energy: -394.641160187395 gnorm: 0.000449331531 xtb: 6.4.1 (unknown)
226251  0     0  0            999 V2000
   -4.9359    9.3530   -4.8461 C   0  0  0  0  0  0  0  0  0  0  0  0
   -4.4555   10.5167   -5.3706 C   0  0  0  0  0  0  0  0  0  0  0  0
   -3.1218   11.0988   -5.1282 C   0  0  0  0  0  0  0  0  0  0  0  0
   -2.3034   10.7548   -4.2972 O   0  0  0  0  0  0  0  0  0  0  0  0
   -2.9713   12.1933   -6.1005 C   0  0  0  0  0  0  0  0  0  0  0  0
   -1.8397   12.9795   -6.3058 C   0  0  0  0  0  0  0  0  0  0  0  0
   -1.9757   13.9022   -7.3145 C   0  0  0  0  0  0  0  0  0  0  0  0
   -3.1543   14.0384   -8.0613 C   0  0  0  0  0  0  0  0  0  0  0  0
   -4.2814   13.2776   -7.8613 C   0  0  0  0  0  0  0  0  0  0  0  0
   -4.1632   12.3279   -6.8420 C   0  0  0  0  0  0  0  0  0  0  0  0
   -5.1274   11.3422   -6.3610 C   0  0  0  0  0  0  0  0  0  0  0  0
   -6.4364   11.2514   -6.7552 C   0  0  0  0  0  0  0  0  0  0  0  0
   -7.3855   10.3391   -6.2468 C   0  0  0  0  0  0  0  0  0  0  0  0
   -8.2215    9.6404   -5.8829 N   0  0  0  0  0  0  0  0  0  0  0  0
   -7.0414   12.0908   -7.7147 C   0  0  0  0  0  0  0  0  0  0  0  0
   -7.6013   12.7329   -8.4843 N   0  0  0  0  0  0  0  0  0  0  0  0
   -2.5774   15.1345   -8.9209 C   0  0  0  0  0  0  0  0  0  0  0  0
   -2.1211   14.7599  -10.3530 C   0  0  0  0  0  0  0  0  0  0  0  0
   -1.7627   13.2947  -10.3206 C   0  0  0  0  0  0  0  0  0  0  0  0
   -0.6477   13.1661   -9.6139 C   0  0  0  0  0  0  0  0  0  0  0  0
   -0.2318   14.5422   -9.1557 C   0  0  0  0  0  0  0  0  0  0  0  0
   -0.7156   15.3821  -10.3486 C   0  0  0  0  0  0  0  0  0  0  0  0
   -1.2649   14.9833   -8.0889 C   0  0  0  0  0  0  0  0  0  0  0  0
   -4.3325    8.4306   -3.9627 C   0  0  0  0  0  0  0  0  0  0  0  0
   -4.9232    7.2153   -3.6724 C   0  0  0  0  0  0  0  0  0  0  0  0
   -4.1530    6.3879   -2.8418 C   0  0  0  0  0  0  0  0  0  0  0  0
   -4.4439    5.0770   -2.3953 C   0  0  0  0  0  0  0  0  0  0  0  0
   -5.6595    4.3900   -2.7768 C   0  0  0  0  0  0  0  0  0  0  0  0
   -6.2313    4.2737   -4.0115 C   0  0  0  0  0  0  0  0  0  0  0  0
   -7.4204    3.5192   -4.0001 C   0  0  0  0  0  0  0  0  0  0  0  0
   -8.3488    3.1873   -5.4062 Cl  0  0  0  0  0  0  0  0  0  0  0  0
   -7.7810    3.0723   -2.7537 C   0  0  0  0  0  0  0  0  0  0  0  0
   -9.2073    2.1333   -2.4005 S   0  0  0  0  0  0  0  0  0  0  0  0
   -9.3872    2.3666   -0.5951 C   0  0  0  0  0  0  0  0  0  0  0  0
   -8.5581    1.3902    0.2131 C   0  0  0  0  0  0  0  0  0  0  0  0
   -6.6027    3.5483   -1.5742 S   0  0  0  0  0  0  0  0  0  0  0  0
   -3.4944    4.4784   -1.5841 C   0  0  0  0  0  0  0  0  0  0  0  0
   -2.2780    5.1027   -1.2072 C   0  0  0  0  0  0  0  0  0  0  0  0
   -2.0018    6.4178   -1.6295 C   0  0  0  0  0  0  0  0  0  0  0  0
   -0.8019    7.0993   -1.1940 C   0  0  0  0  0  0  0  0  0  0  0  0
   -0.8975    8.7423   -0.6180 S   0  0  0  0  0  0  0  0  0  0  0  0
    0.7723    8.7356   -0.1609 C   0  0  0  0  0  0  0  0  0  0  0  0
    1.5702   10.0777    0.6035 S   0  0  0  0  0  0  0  0  0  0  0  0
    0.1327   11.1637    0.9309 C   0  0  0  0  0  0  0  0  0  0  0  0
    0.5913   12.4086    1.6626 C   0  0  0  0  0  0  0  0  0  0  0  0
    1.3563    7.5375   -0.4871 C   0  0  0  0  0  0  0  0  0  0  0  0
    0.4699    6.6139   -1.0676 C   0  0  0  0  0  0  0  0  0  0  0  0
    3.0095    7.1945   -0.1706 Cl  0  0  0  0  0  0  0  0  0  0  0  0
   -2.9524    7.0310   -2.4421 C   0  0  0  0  0  0  0  0  0  0  0  0
   -2.7914    8.6121   -3.1500 S   0  0  0  0  0  0  0  0  0  0  0  0
   -1.4735    4.2563   -0.4105 C   0  0  0  0  0  0  0  0  0  0  0  0
   -2.0203    3.0256   -0.1852 C   0  0  0  0  0  0  0  0  0  0  0  0
   -3.5906    2.8572   -0.9524 S   0  0  0  0  0  0  0  0  0  0  0  0
   -1.4902    1.8995    0.5033 C   0  0  0  0  0  0  0  0  0  0  0  0
   -0.5059    1.7893    1.4813 C   0  0  0  0  0  0  0  0  0  0  0  0
    0.2061    2.8020    2.0955 N   0  0  0  0  0  0  0  0  0  0  0  0
    1.5389    2.4960    2.4534 C   0  0  0  0  0  0  0  0  0  0  0  0
    2.0089    2.7312    3.7434 C   0  0  0  0  0  0  0  0  0  0  0  0
    3.2860    2.3495    4.0897 C   0  0  0  0  0  0  0  0  0  0  0  0
    4.1171    1.7257    3.1595 C   0  0  0  0  0  0  0  0  0  0  0  0
    5.7080    1.2252    3.7281 S   0  0  0  0  0  0  0  0  0  0  0  0
    6.5209    0.5935    2.2319 C   0  0  0  0  0  0  0  0  0  0  0  0
    3.6616    1.5212    1.8642 C   0  0  0  0  0  0  0  0  0  0  0  0
    2.3834    1.9102    1.5165 C   0  0  0  0  0  0  0  0  0  0  0  0
   -0.2984    4.0788    2.3351 C   0  0  0  0  0  0  0  0  0  0  0  0
    0.5681    5.1755    2.3629 C   0  0  0  0  0  0  0  0  0  0  0  0
    0.0728    6.4524    2.5047 C   0  0  0  0  0  0  0  0  0  0  0  0
   -1.2975    6.6656    2.6102 C   0  0  0  0  0  0  0  0  0  0  0  0
   -1.8729    8.3353    2.7120 S   0  0  0  0  0  0  0  0  0  0  0  0
   -3.4788    8.2330    1.8665 C   0  0  0  0  0  0  0  0  0  0  0  0
   -2.1592    5.5787    2.6441 C   0  0  0  0  0  0  0  0  0  0  0  0
   -1.6639    4.2972    2.5122 C   0  0  0  0  0  0  0  0  0  0  0  0
   -0.2606    0.4206    1.7762 C   0  0  0  0  0  0  0  0  0  0  0  0
    0.8444   -0.4107    2.8148 S   0  0  0  0  0  0  0  0  0  0  0  0
    0.3056   -1.9697    2.1988 C   0  0  0  0  0  0  0  0  0  0  0  0
   -0.6862   -1.8411    1.2297 C   0  0  0  0  0  0  0  0  0  0  0  0
   -1.2680   -2.8332    0.4563 N   0  0  0  0  0  0  0  0  0  0  0  0
   -0.5364   -3.8644   -0.1346 C   0  0  0  0  0  0  0  0  0  0  0  0
   -1.1828   -5.0443   -0.5051 C   0  0  0  0  0  0  0  0  0  0  0  0
   -0.4730   -6.0996   -1.0405 C   0  0  0  0  0  0  0  0  0  0  0  0
    0.9031   -6.0025   -1.2033 C   0  0  0  0  0  0  0  0  0  0  0  0
    1.9113   -7.3180   -1.8099 S   0  0  0  0  0  0  0  0  0  0  0  0
    0.7438   -8.3169   -2.7794 C   0  0  0  0  0  0  0  0  0  0  0  0
    1.5509   -4.8226   -0.8515 C   0  0  0  0  0  0  0  0  0  0  0  0
    0.8417   -3.7622   -0.3331 C   0  0  0  0  0  0  0  0  0  0  0  0
   -2.5876   -2.5766    0.0249 C   0  0  0  0  0  0  0  0  0  0  0  0
   -3.5642   -2.2498    0.9647 C   0  0  0  0  0  0  0  0  0  0  0  0
   -4.8247   -1.8778    0.5523 C   0  0  0  0  0  0  0  0  0  0  0  0
   -5.1316   -1.8255   -0.8049 C   0  0  0  0  0  0  0  0  0  0  0  0
   -6.7485   -1.2753   -1.2466 S   0  0  0  0  0  0  0  0  0  0  0  0
   -6.5168   -0.6121   -2.9212 C   0  0  0  0  0  0  0  0  0  0  0  0
   -4.1781   -2.2065   -1.7404 C   0  0  0  0  0  0  0  0  0  0  0  0
   -2.9146   -2.5781   -1.3278 C   0  0  0  0  0  0  0  0  0  0  0  0
   -1.0194   -0.4756    1.0447 C   0  0  0  0  0  0  0  0  0  0  0  0
   -2.1269    0.3371    0.0034 S   0  0  0  0  0  0  0  0  0  0  0  0
    0.9994   -3.1257    2.6473 C   0  0  0  0  0  0  0  0  0  0  0  0
    0.6830   -4.4421    2.4614 C   0  0  0  0  0  0  0  0  0  0  0  0
    1.7048   -5.3407    2.8427 C   0  0  0  0  0  0  0  0  0  0  0  0
    1.7761   -6.7265    2.5884 C   0  0  0  0  0  0  0  0  0  0  0  0
    0.6750   -7.4684    2.0142 C   0  0  0  0  0  0  0  0  0  0  0  0
    0.7252   -8.5788    1.2126 C   0  0  0  0  0  0  0  0  0  0  0  0
   -0.5465   -9.0726    0.8686 C   0  0  0  0  0  0  0  0  0  0  0  0
   -0.7567  -10.4465   -0.1453 Cl  0  0  0  0  0  0  0  0  0  0  0  0
   -1.5857   -8.3672    1.4122 C   0  0  0  0  0  0  0  0  0  0  0  0
   -3.3096   -8.5838    1.1987 S   0  0  0  0  0  0  0  0  0  0  0  0
   -3.5409  -10.2311    1.9704 C   0  0  0  0  0  0  0  0  0  0  0  0
   -3.1735  -10.2191    3.4396 C   0  0  0  0  0  0  0  0  0  0  0  0
   -0.9813   -7.0573    2.3730 S   0  0  0  0  0  0  0  0  0  0  0  0
    2.9832   -7.3522    2.9081 C   0  0  0  0  0  0  0  0  0  0  0  0
    4.0586   -6.6827    3.5534 C   0  0  0  0  0  0  0  0  0  0  0  0
    3.9659   -5.3007    3.8535 C   0  0  0  0  0  0  0  0  0  0  0  0
    4.9931   -4.5637    4.5544 C   0  0  0  0  0  0  0  0  0  0  0  0
    6.6997   -4.8531    4.3452 S   0  0  0  0  0  0  0  0  0  0  0  0
    7.1202   -3.6363    5.5110 C   0  0  0  0  0  0  0  0  0  0  0  0
    8.8160   -3.4704    5.8918 S   0  0  0  0  0  0  0  0  0  0  0  0
    9.0435   -1.6714    6.1462 C   0  0  0  0  0  0  0  0  0  0  0  0
    8.6118   -0.8654    4.9400 C   0  0  0  0  0  0  0  0  0  0  0  0
    5.9873   -3.0444    6.0086 C   0  0  0  0  0  0  0  0  0  0  0  0
    4.7965   -3.5511    5.4553 C   0  0  0  0  0  0  0  0  0  0  0  0
    5.9463   -1.8211    7.2183 Cl  0  0  0  0  0  0  0  0  0  0  0  0
    2.8053   -4.6656    3.4313 C   0  0  0  0  0  0  0  0  0  0  0  0
    2.5470   -2.9403    3.4512 S   0  0  0  0  0  0  0  0  0  0  0  0
    5.1239   -7.5603    3.8123 C   0  0  0  0  0  0  0  0  0  0  0  0
    4.9334   -8.8414    3.3344 C   0  0  0  0  0  0  0  0  0  0  0  0
    3.3634   -9.0158    2.5871 S   0  0  0  0  0  0  0  0  0  0  0  0
    5.9350   -9.8346    3.4211 C   0  0  0  0  0  0  0  0  0  0  0  0
    6.0050  -11.0610    2.8281 C   0  0  0  0  0  0  0  0  0  0  0  0
    5.0257  -11.6364    1.8853 C   0  0  0  0  0  0  0  0  0  0  0  0
    3.8942  -11.2528    1.6609 O   0  0  0  0  0  0  0  0  0  0  0  0
    5.6946  -12.7860    1.2552 C   0  0  0  0  0  0  0  0  0  0  0  0
    5.2038  -13.5696    0.2132 C   0  0  0  0  0  0  0  0  0  0  0  0
    6.0682  -14.5540   -0.2004 C   0  0  0  0  0  0  0  0  0  0  0  0
    7.3299  -14.7459    0.3797 C   0  0  0  0  0  0  0  0  0  0  0  0
    7.8240  -13.9830    1.4110 C   0  0  0  0  0  0  0  0  0  0  0  0
    6.9588  -12.9761    1.8495 C   0  0  0  0  0  0  0  0  0  0  0  0
    7.1395  -11.9688    2.8914 C   0  0  0  0  0  0  0  0  0  0  0  0
    8.1689  -11.9313    3.7937 C   0  0  0  0  0  0  0  0  0  0  0  0
    9.2266  -12.8644    3.8325 C   0  0  0  0  0  0  0  0  0  0  0  0
   10.1122  -13.5891    3.9253 N   0  0  0  0  0  0  0  0  0  0  0  0
    8.3026  -10.9931    4.8397 C   0  0  0  0  0  0  0  0  0  0  0  0
    8.4794  -10.2776    5.7205 N   0  0  0  0  0  0  0  0  0  0  0  0
    7.6625  -15.8981   -0.5348 C   0  0  0  0  0  0  0  0  0  0  0  0
    7.5619  -17.3317    0.0420 C   0  0  0  0  0  0  0  0  0  0  0  0
    6.5479  -17.2746    1.1575 C   0  0  0  0  0  0  0  0  0  0  0  0
    5.3534  -17.0938    0.6101 C   0  0  0  0  0  0  0  0  0  0  0  0
    5.5381  -17.0250   -0.8858 C   0  0  0  0  0  0  0  0  0  0  0  0
    6.7178  -17.9951   -1.0581 C   0  0  0  0  0  0  0  0  0  0  0  0
    6.2567  -15.6850   -1.1797 C   0  0  0  0  0  0  0  0  0  0  0  0
   -5.9135    9.0285   -5.1829 H   0  0  0  0  0  0  0  0  0  0  0  0
   -0.9522   12.8389   -5.7088 H   0  0  0  0  0  0  0  0  0  0  0  0
   -5.1780   13.3940   -8.4467 H   0  0  0  0  0  0  0  0  0  0  0  0
   -3.0962   16.0903   -8.8877 H   0  0  0  0  0  0  0  0  0  0  0  0
   -2.8041   15.0695  -11.1394 H   0  0  0  0  0  0  0  0  0  0  0  0
   -2.3685   12.5204  -10.7536 H   0  0  0  0  0  0  0  0  0  0  0  0
   -0.1360   12.2627   -9.3379 H   0  0  0  0  0  0  0  0  0  0  0  0
    0.8059   14.6539   -8.8526 H   0  0  0  0  0  0  0  0  0  0  0  0
   -0.7158   16.4536  -10.1537 H   0  0  0  0  0  0  0  0  0  0  0  0
   -0.1605   15.1744  -11.2621 H   0  0  0  0  0  0  0  0  0  0  0  0
   -0.9251   15.8410   -7.5117 H   0  0  0  0  0  0  0  0  0  0  0  0
   -5.8877    6.9393   -4.0599 H   0  0  0  0  0  0  0  0  0  0  0  0
   -5.8062    4.6821   -4.9095 H   0  0  0  0  0  0  0  0  0  0  0  0
  -10.4517    2.2184   -0.4142 H   0  0  0  0  0  0  0  0  0  0  0  0
   -9.1251    3.4019   -0.3798 H   0  0  0  0  0  0  0  0  0  0  0  0
   -8.8304    0.3661   -0.0282 H   0  0  0  0  0  0  0  0  0  0  0  0
   -7.4973    1.5188    0.0136 H   0  0  0  0  0  0  0  0  0  0  0  0
   -8.7330    1.5587    1.2734 H   0  0  0  0  0  0  0  0  0  0  0  0
   -0.5720   10.5865    1.5304 H   0  0  0  0  0  0  0  0  0  0  0  0
   -0.3144   11.4080   -0.0336 H   0  0  0  0  0  0  0  0  0  0  0  0
   -0.2630   13.0521    1.8595 H   0  0  0  0  0  0  0  0  0  0  0  0
    1.0535   12.1434    2.6104 H   0  0  0  0  0  0  0  0  0  0  0  0
    1.3146   12.9603    1.0665 H   0  0  0  0  0  0  0  0  0  0  0  0
    0.7838    5.6468   -1.4134 H   0  0  0  0  0  0  0  0  0  0  0  0
   -0.5103    4.5455   -0.0418 H   0  0  0  0  0  0  0  0  0  0  0  0
    1.3621    3.2003    4.4693 H   0  0  0  0  0  0  0  0  0  0  0  0
    3.6514    2.5139    5.0915 H   0  0  0  0  0  0  0  0  0  0  0  0
    6.0162   -0.3039    1.8852 H   0  0  0  0  0  0  0  0  0  0  0  0
    7.5370    0.3541    2.5276 H   0  0  0  0  0  0  0  0  0  0  0  0
    6.5338    1.3643    1.4671 H   0  0  0  0  0  0  0  0  0  0  0  0
    4.2832    1.0550    1.1178 H   0  0  0  0  0  0  0  0  0  0  0  0
    2.0266    1.7433    0.5101 H   0  0  0  0  0  0  0  0  0  0  0  0
    1.6298    5.0241    2.2407 H   0  0  0  0  0  0  0  0  0  0  0  0
    0.7440    7.2969    2.5106 H   0  0  0  0  0  0  0  0  0  0  0  0
   -4.2376    7.8417    2.5378 H   0  0  0  0  0  0  0  0  0  0  0  0
   -3.3764    7.6089    0.9835 H   0  0  0  0  0  0  0  0  0  0  0  0
   -3.7327    9.2475    1.5765 H   0  0  0  0  0  0  0  0  0  0  0  0
   -3.2208    5.7205    2.7717 H   0  0  0  0  0  0  0  0  0  0  0  0
   -2.3421    3.4583    2.5474 H   0  0  0  0  0  0  0  0  0  0  0  0
   -2.2477   -5.1411   -0.3537 H   0  0  0  0  0  0  0  0  0  0  0  0
   -1.0015   -7.0013   -1.3046 H   0  0  0  0  0  0  0  0  0  0  0  0
    0.1736   -7.6662   -3.4351 H   0  0  0  0  0  0  0  0  0  0  0  0
    0.0909   -8.8842   -2.1243 H   0  0  0  0  0  0  0  0  0  0  0  0
    1.3540   -8.9965   -3.3659 H   0  0  0  0  0  0  0  0  0  0  0  0
    2.6182   -4.7471   -0.9917 H   0  0  0  0  0  0  0  0  0  0  0  0
    1.3538   -2.8437   -0.0914 H   0  0  0  0  0  0  0  0  0  0  0  0
   -3.3154   -2.2671    2.0155 H   0  0  0  0  0  0  0  0  0  0  0  0
   -5.5801   -1.6073    1.2736 H   0  0  0  0  0  0  0  0  0  0  0  0
   -6.4235   -1.4188   -3.6422 H   0  0  0  0  0  0  0  0  0  0  0  0
   -5.6420    0.0313   -2.9316 H   0  0  0  0  0  0  0  0  0  0  0  0
   -7.4102   -0.0333   -3.1362 H   0  0  0  0  0  0  0  0  0  0  0  0
   -4.4060   -2.2006   -2.7943 H   0  0  0  0  0  0  0  0  0  0  0  0
   -2.1654   -2.8493   -2.0569 H   0  0  0  0  0  0  0  0  0  0  0  0
   -0.2544   -4.7520    2.0483 H   0  0  0  0  0  0  0  0  0  0  0  0
    1.6282   -9.0119    0.8261 H   0  0  0  0  0  0  0  0  0  0  0  0
   -4.5993  -10.4423    1.8235 H   0  0  0  0  0  0  0  0  0  0  0  0
   -2.9479  -10.9504    1.4084 H   0  0  0  0  0  0  0  0  0  0  0  0
   -3.3864  -11.1913    3.8794 H   0  0  0  0  0  0  0  0  0  0  0  0
   -2.1138  -10.0064    3.5698 H   0  0  0  0  0  0  0  0  0  0  0  0
   -3.7466   -9.4617    3.9699 H   0  0  0  0  0  0  0  0  0  0  0  0
    8.5070   -1.3777    7.0452 H   0  0  0  0  0  0  0  0  0  0  0  0
   10.1156   -1.5831    6.3220 H   0  0  0  0  0  0  0  0  0  0  0  0
    9.1306   -1.2111    4.0478 H   0  0  0  0  0  0  0  0  0  0  0  0
    7.5391   -0.9551    4.7841 H   0  0  0  0  0  0  0  0  0  0  0  0
    8.8450    0.1852    5.1008 H   0  0  0  0  0  0  0  0  0  0  0  0
    3.8293   -3.2062    5.7709 H   0  0  0  0  0  0  0  0  0  0  0  0
    6.0285   -7.2779    4.3190 H   0  0  0  0  0  0  0  0  0  0  0  0
    6.7934   -9.5162    4.0014 H   0  0  0  0  0  0  0  0  0  0  0  0
    4.2294  -13.3815   -0.2097 H   0  0  0  0  0  0  0  0  0  0  0  0
    8.8006  -14.1371    1.8388 H   0  0  0  0  0  0  0  0  0  0  0  0
    8.5386  -15.7656   -1.1666 H   0  0  0  0  0  0  0  0  0  0  0  0
    8.5175  -17.7883    0.2847 H   0  0  0  0  0  0  0  0  0  0  0  0
    6.8030  -17.3127    2.2003 H   0  0  0  0  0  0  0  0  0  0  0  0
    4.4104  -16.9503    1.1042 H   0  0  0  0  0  0  0  0  0  0  0  0
    4.6511  -17.2032   -1.4882 H   0  0  0  0  0  0  0  0  0  0  0  0
    6.4539  -19.0250   -0.8231 H   0  0  0  0  0  0  0  0  0  0  0  0
    7.1769  -17.9489   -2.0448 H   0  0  0  0  0  0  0  0  0  0  0  0
    6.2149  -15.4141   -2.2330 H   0  0  0  0  0  0  0  0  0  0  0  0
  1  2  2  0  0  0  0
  2  3  1  0  0  0  0
  3  4  2  0  0  0  0
  3  5  1  0  0  0  0
  5  6  2  0  0  0  0
  6  7  1  0  0  0  0
  7  8  2  0  0  0  0
  8  9  1  0  0  0  0
  9 10  2  0  0  0  0
 10 11  1  0  0  0  0
 11 12  2  0  0  0  0
 12 13  1  0  0  0  0
 13 14  3  0  0  0  0
 12 15  1  0  0  0  0
 15 16  3  0  0  0  0
  8 17  1  0  0  0  0
 17 18  1  0  0  0  0
 18 19  1  0  0  0  0
 19 20  2  0  0  0  0
 20 21  1  0  0  0  0
 21 22  1  0  0  0  0
 21 23  1  0  0  0  0
  1 24  1  0  0  0  0
 24 25  2  0  0  0  0
 25 26  1  0  0  0  0
 26 27  2  0  0  0  0
 27 28  1  0  0  0  0
 28 29  2  0  0  0  0
 29 30  1  0  0  0  0
 30 31  1  0  0  0  0
 30 32  2  0  0  0  0
 32 33  1  0  0  0  0
 33 34  1  0  0  0  0
 34 35  1  0  0  0  0
 32 36  1  0  0  0  0
 27 37  1  0  0  0  0
 37 38  2  0  0  0  0
 38 39  1  0  0  0  0
 39 40  1  0  0  0  0
 40 41  1  0  0  0  0
 41 42  1  0  0  0  0
 42 43  1  0  0  0  0
 43 44  1  0  0  0  0
 44 45  1  0  0  0  0
 42 46  2  0  0  0  0
 46 47  1  0  0  0  0
 46 48  1  0  0  0  0
 39 49  2  0  0  0  0
 49 50  1  0  0  0  0
 38 51  1  0  0  0  0
 51 52  2  0  0  0  0
 52 53  1  0  0  0  0
 52 54  1  0  0  0  0
 54 55  2  0  0  0  0
 55 56  1  0  0  0  0
 56 57  1  0  0  0  0
 57 58  2  0  0  0  0
 58 59  1  0  0  0  0
 59 60  2  0  0  0  0
 60 61  1  0  0  0  0
 61 62  1  0  0  0  0
 60 63  1  0  0  0  0
 63 64  2  0  0  0  0
 56 65  1  0  0  0  0
 65 66  2  0  0  0  0
 66 67  1  0  0  0  0
 67 68  2  0  0  0  0
 68 69  1  0  0  0  0
 69 70  1  0  0  0  0
 68 71  1  0  0  0  0
 71 72  2  0  0  0  0
 55 73  1  0  0  0  0
 73 74  1  0  0  0  0
 74 75  1  0  0  0  0
 75 76  2  0  0  0  0
 76 77  1  0  0  0  0
 77 78  1  0  0  0  0
 78 79  2  0  0  0  0
 79 80  1  0  0  0  0
 80 81  2  0  0  0  0
 81 82  1  0  0  0  0
 82 83  1  0  0  0  0
 81 84  1  0  0  0  0
 84 85  2  0  0  0  0
 77 86  1  0  0  0  0
 86 87  2  0  0  0  0
 87 88  1  0  0  0  0
 88 89  2  0  0  0  0
 89 90  1  0  0  0  0
 90 91  1  0  0  0  0
 89 92  1  0  0  0  0
 92 93  2  0  0  0  0
 76 94  1  0  0  0  0
 94 95  1  0  0  0  0
 75 96  1  0  0  0  0
 96 97  2  0  0  0  0
 97 98  1  0  0  0  0
 98 99  2  0  0  0  0
 99100  1  0  0  0  0
100101  2  0  0  0  0
101102  1  0  0  0  0
102103  1  0  0  0  0
102104  2  0  0  0  0
104105  1  0  0  0  0
105106  1  0  0  0  0
106107  1  0  0  0  0
104108  1  0  0  0  0
 99109  1  0  0  0  0
109110  2  0  0  0  0
110111  1  0  0  0  0
111112  1  0  0  0  0
112113  1  0  0  0  0
113114  1  0  0  0  0
114115  1  0  0  0  0
115116  1  0  0  0  0
116117  1  0  0  0  0
114118  2  0  0  0  0
118119  1  0  0  0  0
118120  1  0  0  0  0
111121  2  0  0  0  0
121122  1  0  0  0  0
110123  1  0  0  0  0
123124  2  0  0  0  0
124125  1  0  0  0  0
124126  1  0  0  0  0
126127  2  0  0  0  0
127128  1  0  0  0  0
128129  2  0  0  0  0
128130  1  0  0  0  0
130131  2  0  0  0  0
131132  1  0  0  0  0
132133  2  0  0  0  0
133134  1  0  0  0  0
134135  2  0  0  0  0
135136  1  0  0  0  0
136137  2  0  0  0  0
137138  1  0  0  0  0
138139  3  0  0  0  0
137140  1  0  0  0  0
140141  3  0  0  0  0
133142  1  0  0  0  0
142143  1  0  0  0  0
143144  1  0  0  0  0
144145  2  0  0  0  0
145146  1  0  0  0  0
146147  1  0  0  0  0
146148  1  0  0  0  0
 11  2  1  0  0  0  0
 23 17  1  0  0  0  0
 50 24  1  0  0  0  0
 95 54  1  0  0  0  0
122 96  1  0  0  0  0
136127  1  0  0  0  0
148142  1  0  0  0  0
 10  5  1  0  0  0  0
 22 18  1  0  0  0  0
 49 26  1  0  0  0  0
 64 57  1  0  0  0  0
 72 65  1  0  0  0  0
 94 73  2  0  0  0  0
121 98  1  0  0  0  0
135130  1  0  0  0  0
147143  1  0  0  0  0
 23  7  1  0  0  0  0
 36 28  1  0  0  0  0
 53 37  1  0  0  0  0
 85 78  1  0  0  0  0
 93 86  1  0  0  0  0
108100  1  0  0  0  0
125109  1  0  0  0  0
148132  1  0  0  0  0
 47 40  2  0  0  0  0
119112  2  0  0  0  0
  1149  1  0  0  0  0
  6150  1  0  0  0  0
  9151  1  0  0  0  0
 17152  1  0  0  0  0
 18153  1  0  0  0  0
 19154  1  0  0  0  0
 20155  1  0  0  0  0
 21156  1  0  0  0  0
 22157  1  0  0  0  0
 22158  1  0  0  0  0
 23159  1  0  0  0  0
 25160  1  0  0  0  0
 29161  1  0  0  0  0
 34162  1  0  0  0  0
 34163  1  0  0  0  0
 35164  1  0  0  0  0
 35165  1  0  0  0  0
 35166  1  0  0  0  0
 44167  1  0  0  0  0
 44168  1  0  0  0  0
 45169  1  0  0  0  0
 45170  1  0  0  0  0
 45171  1  0  0  0  0
 47172  1  0  0  0  0
 51173  1  0  0  0  0
 58174  1  0  0  0  0
 59175  1  0  0  0  0
 62176  1  0  0  0  0
 62177  1  0  0  0  0
 62178  1  0  0  0  0
 63179  1  0  0  0  0
 64180  1  0  0  0  0
 66181  1  0  0  0  0
 67182  1  0  0  0  0
 70183  1  0  0  0  0
 70184  1  0  0  0  0
 70185  1  0  0  0  0
 71186  1  0  0  0  0
 72187  1  0  0  0  0
 79188  1  0  0  0  0
 80189  1  0  0  0  0
 83190  1  0  0  0  0
 83191  1  0  0  0  0
 83192  1  0  0  0  0
 84193  1  0  0  0  0
 85194  1  0  0  0  0
 87195  1  0  0  0  0
 88196  1  0  0  0  0
 91197  1  0  0  0  0
 91198  1  0  0  0  0
 91199  1  0  0  0  0
 92200  1  0  0  0  0
 93201  1  0  0  0  0
 97202  1  0  0  0  0
101203  1  0  0  0  0
106204  1  0  0  0  0
106205  1  0  0  0  0
107206  1  0  0  0  0
107207  1  0  0  0  0
107208  1  0  0  0  0
116209  1  0  0  0  0
116210  1  0  0  0  0
117211  1  0  0  0  0
117212  1  0  0  0  0
117213  1  0  0  0  0
119214  1  0  0  0  0
123215  1  0  0  0  0
126216  1  0  0  0  0
131217  1  0  0  0  0
134218  1  0  0  0  0
142219  1  0  0  0  0
143220  1  0  0  0  0
144221  1  0  0  0  0
145222  1  0  0  0  0
146223  1  0  0  0  0
147224  1  0  0  0  0
147225  1  0  0  0  0
148226  1  0  0  0  0
M  END
