174

C         -4.20700       -6.99490        4.74790
C         -5.35930       -7.03280        4.04390
C         -5.62410       -6.21230        2.82250
O         -4.85630       -5.49020        2.22850
C         -7.06120       -6.37400        2.54410
C         -7.77810       -5.75650        1.52080
C         -9.11710       -6.05980        1.51370
C         -9.70530       -6.91170        2.46020
C         -9.01060       -7.52950        3.47130
C         -7.64220       -7.23660        3.49570
C         -6.60540       -7.69190        4.41370
C         -6.76080       -8.61900        5.40710
C         -7.97860       -9.25990        5.72120
N         -8.93370       -9.81440        6.03420
C         -5.72690       -9.08350        6.24930
N         -4.94350       -9.51620        6.96820
C        -11.08340       -6.74310        1.87150
C        -12.06930       -5.80060        2.60600
C        -11.22850       -4.79010        3.34630
C        -10.67250       -3.98900        2.44730
C        -11.12720       -4.44380        1.08230
C        -12.54080       -4.94340        1.42050
C        -10.42750       -5.79960        0.81450
C         -3.00170       -6.34580        4.26900
C         -2.49320       -6.58120        2.98850
F         -3.03220       -7.56120        2.23860
C         -1.42640       -5.87820        2.48110
C         -0.83740       -4.87060        3.24570
C         -1.26740       -4.68890        4.56200
C         -2.31620       -5.42750        5.06630
C          0.11720       -3.94820        2.63020
C          1.18890       -3.37890        3.29090
F          1.49490       -3.76520        4.54260
C          1.99150       -2.37760        2.72940
F          2.89790       -1.80320        3.54070
C          1.80100       -1.91230        1.43580
C          0.68140       -2.46330        0.74450
N          0.39110       -1.97760       -0.46790
C         -0.66900       -2.39440       -1.11560
C         -0.88930       -1.81450       -2.47700
C         -0.23770       -2.69720       -3.54420
C         -1.51090       -3.37880       -0.52700
N         -1.22610       -3.88090        0.64720
C         -0.14340       -3.45810        1.31970
C         -2.78350       -3.85840       -1.15290
C         -3.94880       -2.98070       -0.68720
C          2.52870       -0.84870        0.81590
C          3.79860       -0.34580        1.09810
N          4.77660       -0.97840        1.83360
C          5.66610       -0.18580        2.57710
C          5.18980        0.92050        3.28180
C          6.06050        1.71610        3.99020
C          7.42320        1.42360        4.01800
S          8.43820        2.51720        4.95880
C         10.10460        1.81120        4.81070
C          7.89910        0.31910        3.32360
C          7.02630       -0.47580        2.60660
C          4.92810       -2.37040        1.78980
C          5.41190       -3.06280        2.90210
C          5.54490       -4.43130        2.86650
C          5.19790       -5.14980        1.72290
S          5.40140       -6.90110        1.80440
C          4.80680       -7.48950        0.19300
C          4.72600       -4.46650        0.61120
C          4.59760       -3.09120        0.64550
C          4.00310        0.88840        0.43430
S          5.31080        2.01080        0.37750
C          4.37750        3.08320       -0.66970
C          3.14840        2.50510       -1.04190
N          2.28130        3.00610       -1.98710
C          0.93940        2.57390       -2.00160
C          0.18560        2.53520       -0.82860
C         -1.11080        2.07200       -0.85360
C         -1.68550        1.64220       -2.04710
S         -3.31790        0.98300       -1.94560
C         -3.83250        0.82320       -3.68210
C         -0.95000        1.71220       -3.22330
C          0.35110        2.17380       -3.19720
C          2.75880        3.73330       -3.08920
C          1.99280        4.76530       -3.63350
C          2.50390        5.55050       -4.64510
C          3.79230        5.33020       -5.12250
S          4.44220        6.45170       -6.31390
C          6.23300        6.33220       -6.02690
C          4.51970        4.24300       -4.65080
C          4.00210        3.44970       -3.65070
C          2.94720        1.27690       -0.37740
S          1.69980        0.06820       -0.42850
C          4.96880        4.31110       -1.00660
C          4.38290        5.48810       -1.40520
C          5.13610        6.44970       -2.23720
O          6.29580        6.35800       -2.59250
C          4.16210        7.48190       -2.64160
C          4.38930        8.58700       -3.45760
C          3.28990        9.39400       -3.63050
C          2.05770        9.13650       -3.01670
C          1.81630        8.04360       -2.21800
C          2.91360        7.19660       -2.05330
C          3.04270        5.98000       -1.25330
C          2.10270        5.50910       -0.36190
C          0.75520        5.90870       -0.34530
N         -0.37200        6.13370       -0.33050
C          2.39760        4.61210        0.67820
N          2.59100        3.93320        1.58580
C          1.42880       10.39340       -3.56730
C          0.43870       10.26780       -4.74960
C          0.81140        9.00340       -5.48200
C          1.97520        9.21130       -6.08360
C          2.40630       10.62380       -5.77480
C          1.03520       11.31600       -5.70250
C          2.79380       10.66350       -4.27570
H         -4.16100       -7.41560        5.74430
H         -7.28450       -5.10350        0.81810
H         -9.47820       -8.17800        4.19330
H        -11.56550       -7.65160        1.51650
H        -12.83050       -6.31100        3.18960
H        -11.08410       -4.79620        4.41080
H         -9.97010       -3.19260        2.61010
H        -11.03100       -3.71910        0.27810
H        -13.21010       -4.13930        1.72250
H        -12.99950       -5.52310        0.62070
H        -10.47780       -6.09400       -0.23190
H         -1.07940       -6.09470        1.48560
H         -0.80740       -3.93670        5.18250
H         -2.66440       -5.25000        6.07290
H         -0.42500       -0.82770       -2.49740
H         -1.95630       -1.71340       -2.67300
H         -0.65760       -3.70100       -3.53230
H         -0.39170       -2.26860       -4.53160
H          0.83150       -2.76940       -3.36170
H         -2.71180       -3.84520       -2.24030
H         -2.96460       -4.87960       -0.81650
H         -4.86560       -3.28950       -1.18320
H         -4.07960       -3.09240        0.38580
H         -3.76620       -1.93110       -0.91100
H          4.13480        1.14710        3.27470
H          5.69470        2.57250        4.53480
H         10.11880        0.80340        5.21530
H         10.42560        1.82680        3.77320
H         10.74690        2.45480        5.40380
H          8.94770        0.06940        3.32220
H          7.40440       -1.32640        2.05880
H          5.65750       -2.51870        3.80070
H          5.90740       -4.96550        3.73100
H          4.89530       -8.57090        0.22780
H          3.76640       -7.20930        0.05610
H          5.43180       -7.09490       -0.60290
H          4.45920       -4.98790       -0.29390
H          4.23810       -2.57530       -0.23250
H          0.61810        2.86220        0.10360
H         -1.69090        2.03570        0.05490
H         -3.24460        0.06020       -4.18450
H         -4.87490        0.52180       -3.65110
H         -3.74040        1.78310       -4.18070
H         -1.36870        1.39410       -4.16440
H          0.92360        2.20640       -4.11250
H          1.00690        4.96480       -3.23930
H          1.92950        6.37220       -5.04230
H          6.42640        6.33280       -4.95760
H          6.63450        5.44100       -6.50090
H          6.66550        7.21480       -6.48770
H          5.49180        4.01140       -5.05440
H          4.57450        2.60850       -3.29000
H          6.05490        4.32440       -0.99430
H          5.36150        8.77320       -3.88670
H          0.86250        7.85300       -1.75380
H          1.09690       11.11350       -2.82150
H         -0.60800       10.37590       -4.47730
H          0.22830        8.10120       -5.44440
H          2.57060        8.51490       -6.64430
H          3.14870       11.05200       -6.44300
H          1.07590       12.31730       -5.27570
H          0.52740       11.34700       -6.66540
H          3.33270       11.57300       -4.01590
