107

C          4.83700        3.26110        4.12900
C          5.34880        4.41500        3.65690
C          5.25120        4.87520        2.23770
O          4.88410        4.22980        1.28360
C          5.78870        6.24620        2.23120
C          5.81450        7.12540        1.15040
C          6.35450        8.35430        1.44060
C          6.84910        8.68320        2.71150
C          6.84470        7.82270        3.78140
C          6.28850        6.56690        3.51110
C          6.10190        5.42400        4.39570
C          6.55450        5.32250        5.68200
C          6.39170        4.19730        6.51940
N          6.30630        3.32650        7.26290
C          7.28300        6.32620        6.35750
N          7.87860        7.09470        6.96730
C          7.21810       10.08370        2.29300
C          6.28260       11.23420        2.74080
C          4.91350       10.62740        2.92430
C          4.44380       10.31690        1.72340
C          5.48690       10.70870        0.70590
C          6.08410       11.94680        1.39360
C          6.66590        9.71860        0.87910
C          3.95740        2.37230        3.39050
C          2.85350        2.83520        2.67020
F          2.55350        4.14880        2.68490
C          2.00020        1.98420        2.00410
C          2.22440        0.61050        2.04380
C          3.31380        0.12500        2.76800
C          4.15180        0.99030        3.43720
C          1.28950       -0.31510        1.39480
C          1.71590       -1.42480        0.69710
F          3.02670       -1.64730        0.50840
C          0.81840       -2.35090        0.13780
F          1.32850       -3.38360       -0.54950
C         -0.54450       -2.20290        0.25310
C         -1.02070       -1.05360        0.93290
N         -2.34880       -0.86120        1.04890
C         -2.79200        0.18410        1.69620
C         -4.27890        0.36360        1.72450
C         -4.73110        1.23200        0.54740
C         -1.88270        1.09990        2.30910
N         -0.59230        0.92620        2.19940
C         -0.11560       -0.12400        1.50540
C         -2.35900        2.26690        3.12100
C         -1.21920        3.14000        3.62820
C         -1.49060       -3.20500       -0.25620
C         -1.38670       -4.53880        0.13270
F         -0.40810       -4.90680        0.98110
C         -2.28890       -5.49710       -0.28100
C         -3.33200       -5.13770       -1.12780
C         -3.45050       -3.80740       -1.52670
C         -2.54930       -2.85740       -1.08980
C         -4.32990       -6.14390       -1.52660
C         -4.98900       -6.85140       -0.54180
C         -5.98890       -7.76960       -0.85500
C         -6.34130       -7.99430       -2.16960
C         -7.41260       -8.95480       -2.48120
O         -8.02260       -9.55730       -1.62120
N         -7.69600       -9.14950       -3.82280
C         -8.76420      -10.09150       -4.14370
C        -10.11610       -9.39180       -4.19650
C         -7.08190       -8.50810       -4.88520
O         -7.42430       -8.73040       -6.02870
C         -6.00430       -7.56020       -4.54940
C         -5.32250       -6.92080       -5.56290
C         -4.28440       -6.03590       -5.26180
C         -3.94850       -5.77150       -3.95900
C         -4.64100       -6.38310       -2.89250
C         -5.66740       -7.31280       -3.20260
H          5.06740        2.94030        5.13690
H          5.42370        6.83010        0.18930
H          7.22890        8.09130        4.75120
H          8.27040       10.34660        2.37850
H          6.66050       11.82570        3.57030
H          4.46510       10.43930        3.88220
H          3.52530        9.81670        1.47800
H          5.14020       10.82280       -0.31770
H          7.01450       12.28820        0.94190
H          5.37950       12.77470        1.45530
H          7.35650        9.74410        0.03860
H          1.16450        2.39180        1.46210
H          3.49090       -0.93720        2.82940
H          4.98960        0.60310        3.99730
H         -4.59230        0.81910        2.66400
H         -4.73890       -0.62110        1.63390
H         -4.45210        0.75970       -0.39120
H         -5.81090        1.35400        0.56730
H         -4.27130        2.21700        0.58670
H         -3.04640        2.86530        2.51770
H         -2.93010        1.87820        3.97010
H         -0.68520        3.59190        2.79770
H         -0.51290        2.54430        4.19900
H         -1.60980        3.93190        4.26220
H         -2.16880       -6.51640        0.05130
H         -4.27410       -3.51540       -2.16090
H         -2.65540       -1.82810       -1.39200
H         -4.74220       -6.66820        0.49350
H         -6.50810       -8.30970       -0.07770
H         -8.52780      -10.53410       -5.11280
H         -8.76450      -10.85910       -3.36790
H        -10.89190      -10.11320       -4.43690
H        -10.10850       -8.61790       -4.96060
H        -10.34330       -8.94130       -3.23290
H         -5.59730       -7.12920       -6.58580
H         -3.74150       -5.56270       -6.06600
H         -3.13340       -5.09960       -3.73620
