234

C          5.35150        2.37010        7.22740
C          6.43370        1.58290        6.92880
C          6.62050        0.82850        5.68680
O          5.88550        0.81040        4.71120
C          7.88840        0.09990        5.82020
C          8.45690       -0.76880        4.89030
C          9.66370       -1.29200        5.28730
C         10.25770       -0.97900        6.51730
C          9.69930       -0.13370        7.44760
C          8.47120        0.41450        7.06510
C          7.58520        1.33590        7.77660
C          7.82140        1.85640        9.02320
C          8.96610        1.58290        9.80080
N          9.86640        1.41050       10.49250
C          6.97200        2.73790        9.72370
N          6.34210        3.45360       10.36510
C         11.46110       -1.84780        6.24750
C         12.75400       -1.11930        5.82310
C         13.58370       -2.20360        5.17410
C         13.01940       -2.50170        4.01070
C         11.79880       -1.62410        3.85350
C         12.28870       -0.36070        4.57330
C         10.79670       -2.19830        4.87730
C          4.19840        2.63170        6.46980
C          3.16010        3.44110        6.92320
C          2.08190        3.57550        6.04960
C          0.98110        4.50150        6.37260
C          0.13240        4.22420        7.44480
C         -0.76710        5.19330        7.86010
C         -0.84400        6.42630        7.23090
C         -1.77220        7.49180        7.72780
C         -0.02240        6.66610        6.13940
C          0.89230        5.72310        5.70120
C          1.80200        6.02880        4.54910
C          0.18560        2.89380        8.13530
C          2.28890        2.84860        4.88290
S          3.81930        2.01860        4.88540
C          1.48700        2.58470        3.73270
C          0.13300        2.34740        3.57630
N         -0.88490        2.55300        4.52660
C         -1.52750        1.35660        4.90680
C         -0.74170        0.29840        5.35400
C         -1.31200       -0.90760        5.71500
C         -2.68640       -1.07560        5.62750
S         -3.53790       -2.56010        6.06340
C         -2.21230       -3.70430        6.54160
C         -3.47480       -0.02490        5.16100
C         -2.90620        1.17470        4.79780
C         -1.57610        3.76480        4.51770
C         -2.49500        4.04940        5.52520
C         -3.19560        5.23630        5.53030
C         -2.97650        6.17740        4.53620
S         -3.80910        7.73980        4.46090
C         -5.19670        7.53550        5.61350
C         -2.04330        5.91330        3.54070
C         -1.35610        4.71960        3.52570
C         -0.13580        1.73680        2.32930
S         -1.57280        1.11290        1.60180
C         -0.65630        0.60850        0.19060
C          0.68010        0.95120        0.28400
N          1.59990        0.74610       -0.74030
C          1.29140        1.20020       -2.02820
C          0.45150        2.29460       -2.22050
C          0.17930        2.76630       -3.48920
C          0.74850        2.15250       -4.59610
S          0.50150        2.69310       -6.25870
C         -0.47940        4.21040       -6.09170
C          1.56450        1.03760       -4.41280
C          1.82950        0.56410       -3.14670
C          2.89970        0.38500       -0.37100
C          4.01470        0.96900       -0.97140
C          5.28170        0.65840       -0.52300
C          5.45160       -0.22290        0.53580
S          7.09090       -0.57460        1.13810
C          7.47220        1.06000        1.84410
C          4.35160       -0.83670        1.11340
C          3.08330       -0.53910        0.65830
C          0.97180        1.57930        1.51310
S          2.39960        2.16240        2.28120
C         -1.15370       -0.28090       -0.82480
C         -2.16000       -0.17600       -1.76410
N         -2.93670        0.95270       -1.97220
C         -3.18640        1.39820       -3.27130
C         -2.34070        1.04860       -4.32180
C         -2.60010        1.46490       -5.61180
C         -3.69230        2.27800       -5.87510
S         -4.06830        2.92730       -7.47610
C         -2.94750        2.01780       -8.57720
C         -4.53490        2.64430       -4.82810
C         -4.29540        2.20030       -3.54680
C         -3.45820        1.63630       -0.86070
C         -4.16120        0.93510        0.11820
C         -4.67350        1.59840        1.21350
C         -4.48180        2.96930        1.35390
S         -5.15030        3.75170        2.79060
C         -5.48020        5.43590        2.19260
C         -3.77480        3.67070        0.38490
C         -3.27750        3.00920       -0.71950
C         -2.23540       -1.34280       -2.57240
S         -3.31510       -1.86010       -3.81940
C         -2.42730       -3.38110       -3.96840
C         -1.38840       -3.48520       -3.01220
N         -0.59100       -4.57790       -2.79520
C          0.70340       -4.37510       -2.27770
C          1.16390       -5.14250       -1.20850
C          2.42730       -4.93580       -0.70470
C          3.26420       -3.96710       -1.25960
S          4.85560       -3.78700       -0.52660
C          5.76330       -2.74300       -1.69730
C          2.80950       -3.20880       -2.33060
C          1.53900       -3.41040       -2.83320
C         -1.04690       -5.89670       -2.96750
C         -2.36180       -6.24580       -2.65110
C         -2.82340       -7.51200       -2.92570
C         -1.97790       -8.46400       -3.49590
S         -2.68630      -10.02830       -3.90000
C         -1.54080      -10.68410       -5.14660
C         -0.64520       -8.14760       -3.71840
C         -0.18580       -6.86950       -3.46580
C         -1.28980       -2.30480       -2.25390
S         -0.28940       -1.81510       -0.93200
C         -2.66310       -4.34910       -4.94660
C         -3.71010       -4.49930       -5.82330
C         -4.89910       -3.64690       -5.90940
O         -5.08170       -2.57000       -5.36780
C         -5.84870       -4.35460       -6.78750
C         -7.13580       -3.95130       -7.13440
C         -7.79330       -4.83150       -7.96080
C         -7.21420       -6.02540       -8.40910
C         -5.94390       -6.43400       -8.07630
C         -5.25740       -5.55270       -7.23690
C         -3.90400       -5.63690       -6.69060
C         -2.99320       -6.62630       -6.97270
C         -1.64240       -6.62960       -6.57920
N         -0.51950       -6.70740       -6.34140
C         -3.26430       -7.78050       -7.73340
N         -3.39880       -8.76170       -8.31600
C         -8.43530       -6.41330       -9.20530
C         -8.35770       -6.20430      -10.73230
C         -9.80420       -6.20300      -11.17140
C        -10.35340       -5.07210      -10.74730
C         -9.28730       -4.28980      -10.01480
C         -8.05230       -4.70370      -10.82550
C         -9.08140       -5.08120       -8.70590
H          5.34900        2.86570        8.19060
H          7.96450       -0.99250        3.95680
H         10.16670        0.08660        8.39250
H         11.63900       -2.64900        6.96220
H         13.23100       -0.54290        6.61110
H         14.43510       -2.66580        5.63830
H         13.30520       -3.26290        3.30870
H         11.40380       -1.50900        2.84770
H         13.11600        0.11670        4.05050
H         11.50760        0.37300        4.76470
H         10.52850       -3.23340        4.67570
H          3.20550        3.94390        7.87440
H         -1.41530        4.98360        8.69960
H         -2.58300        7.06190        8.31170
H         -2.18460        8.06030        6.89730
H         -1.22840        8.18730        8.36820
H         -0.08740        7.61630        5.62850
H          1.63210        7.03950        4.18750
H          1.62950        5.33510        3.72770
H          2.84590        5.93540        4.84850
H         -0.69610        2.75020        8.75510
H          0.23500        2.08670        7.40670
H          1.06480        2.82290        8.77500
H          0.33060        0.41950        5.41490
H         -0.67100       -1.70240        6.06090
H         -1.68670       -3.32350        7.41250
H         -1.53570       -3.85810        5.70600
H         -2.70850       -4.63720        6.79070
H         -4.54110       -0.16780        5.07520
H         -3.52750        1.96820        4.41140
H         -2.66010        3.33190        6.31330
H         -3.90140        5.41810        6.32380
H         -5.72450        6.61380        5.38780
H         -5.84650        8.38950        5.44840
H         -4.83810        7.54010        6.63870
H         -1.86600        6.65190        2.77240
H         -0.65280        4.52180        2.73050
H          0.01710        2.79270       -1.36620
H         -0.47140        3.61860       -3.59940
H         -0.59980        4.59480       -7.10010
H          0.06060        4.93230       -5.48630
H         -1.45290        3.98110       -5.66670
H          1.98800        0.54980       -5.27780
H          2.46120       -0.29960       -3.00850
H          3.88260        1.67780       -1.77540
H          6.14380        1.11350       -0.98880
H          8.50240        1.02330        2.18410
H          7.35640        1.82340        1.08100
H          6.80040        1.24170        2.67870
H          4.49460       -1.54160        1.91650
H          2.22120       -1.01520        1.10170
H         -1.46100        0.45280       -4.13530
H         -1.92700        1.15960       -6.39550
H         -3.21490        2.32330       -9.58400
H         -3.10820        0.95050       -8.45790
H         -1.91450        2.28570       -8.37310
H         -5.38860        3.27110       -5.03540
H         -4.97370        2.46920       -2.75130
H         -4.30700       -0.12890        0.00750
H         -5.22390        1.06140        1.97010
H         -4.56700        6.02280        2.18510
H         -5.92410        5.38100        1.20360
H         -6.18790        5.87110        2.89070
H         -3.59740        4.72910        0.49280
H         -2.73230        3.55270       -1.47730
H          0.52070       -5.89520       -0.77790
H          2.78640       -5.52120        0.12740
H          6.76590       -2.65850       -1.28960
H          5.31240       -1.75660       -1.74960
H          5.79130       -3.22370       -2.67080
H          3.44260       -2.46470       -2.78640
H          1.19090       -2.82160       -3.66960
H         -3.02360       -5.50940       -2.22020
H         -3.84630       -7.77980       -2.71010
H         -1.32360       -9.91190       -5.87850
H         -0.63300      -11.04770       -4.67380
H         -2.06350      -11.50790       -5.62240
H          0.03930       -8.87640       -4.11930
H          0.84000       -6.61630       -3.68300
H         -1.90850       -5.12390       -4.98350
H         -7.54520       -3.02460       -6.76350
H         -5.51360       -7.35790       -8.42550
H         -8.90340       -7.35580       -8.92770
H         -7.68880       -6.88550      -11.25130
H        -10.27770       -7.02260      -11.67930
H        -11.37750       -4.75830      -10.83020
H         -9.46570       -3.22620       -9.88100
H         -7.10630       -4.41430      -10.37170
H         -8.09150       -4.33850      -11.85050
H         -9.98090       -5.13580       -8.09540
