
  xtb     02042206293D
 energy: -294.846308188335 gnorm: 0.000384465141 xtb: 6.4.1 (unknown)
172190  0     0  0            999 V2000
   -1.6988   -3.8067   -6.8971 C   0  0  0  0  0  0  0  0  0  0  0  0
   -0.4737   -3.7371   -7.5052 C   0  0  0  0  0  0  0  0  0  0  0  0
    0.7260   -3.0853   -6.9585 C   0  0  0  0  0  0  0  0  0  0  0  0
    0.8971   -2.6677   -5.8276 O   0  0  0  0  0  0  0  0  0  0  0  0
    1.6983   -3.0186   -8.0603 C   0  0  0  0  0  0  0  0  0  0  0  0
    2.9617   -2.4319   -8.0229 C   0  0  0  0  0  0  0  0  0  0  0  0
    3.6385   -2.4978   -9.2171 C   0  0  0  0  0  0  0  0  0  0  0  0
    3.1003   -3.1033  -10.3610 C   0  0  0  0  0  0  0  0  0  0  0  0
    1.8612   -3.6981  -10.4053 C   0  0  0  0  0  0  0  0  0  0  0  0
    1.1537   -3.6432   -9.2006 C   0  0  0  0  0  0  0  0  0  0  0  0
   -0.1633   -4.1735   -8.8533 C   0  0  0  0  0  0  0  0  0  0  0  0
   -0.9190   -5.0075   -9.6368 C   0  0  0  0  0  0  0  0  0  0  0  0
   -0.5786   -5.3957  -10.9489 C   0  0  0  0  0  0  0  0  0  0  0  0
   -0.3689   -5.7421  -12.0234 N   0  0  0  0  0  0  0  0  0  0  0  0
   -2.1035   -5.6476   -9.2190 C   0  0  0  0  0  0  0  0  0  0  0  0
   -3.0476   -6.2362   -8.9322 N   0  0  0  0  0  0  0  0  0  0  0  0
    4.3172   -2.7916  -11.1962 C   0  0  0  0  0  0  0  0  0  0  0  0
    4.1953   -1.6082  -12.1797 C   0  0  0  0  0  0  0  0  0  0  0  0
    5.6302   -1.2444  -12.4865 C   0  0  0  0  0  0  0  0  0  0  0  0
    6.1426   -0.6747  -11.4032 C   0  0  0  0  0  0  0  0  0  0  0  0
    5.0624   -0.6436  -10.3461 C   0  0  0  0  0  0  0  0  0  0  0  0
    3.8273   -0.4555  -11.2364 C   0  0  0  0  0  0  0  0  0  0  0  0
    4.9187   -2.1201   -9.9200 C   0  0  0  0  0  0  0  0  0  0  0  0
   -2.0859   -3.3834   -5.6124 C   0  0  0  0  0  0  0  0  0  0  0  0
   -3.4003   -3.4132   -5.1619 C   0  0  0  0  0  0  0  0  0  0  0  0
   -3.5719   -2.9532   -3.8571 C   0  0  0  0  0  0  0  0  0  0  0  0
   -4.8784   -2.7187   -3.2275 C   0  0  0  0  0  0  0  0  0  0  0  0
   -5.0469   -2.0887   -2.2094 O   0  0  0  0  0  0  0  0  0  0  0  0
   -5.8728   -3.2373   -3.9635 O   0  0  0  0  0  0  0  0  0  0  0  0
   -7.1990   -3.0684   -3.4866 C   0  0  0  0  0  0  0  0  0  0  0  0
   -2.3561   -2.5988   -3.2631 C   0  0  0  0  0  0  0  0  0  0  0  0
   -1.0319   -2.7674   -4.3613 S   0  0  0  0  0  0  0  0  0  0  0  0
   -2.0552   -2.1532   -1.9509 C   0  0  0  0  0  0  0  0  0  0  0  0
   -2.5386   -2.5453   -0.7042 C   0  0  0  0  0  0  0  0  0  0  0  0
   -3.4441   -3.5513   -0.4679 N   0  0  0  0  0  0  0  0  0  0  0  0
   -4.2761   -3.4699    0.6613 C   0  0  0  0  0  0  0  0  0  0  0  0
   -4.8437   -2.2515    1.0336 C   0  0  0  0  0  0  0  0  0  0  0  0
   -5.6397   -2.1756    2.1536 C   0  0  0  0  0  0  0  0  0  0  0  0
   -5.8931   -3.3124    2.9200 C   0  0  0  0  0  0  0  0  0  0  0  0
   -6.9281   -3.0892    4.3307 S   0  0  0  0  0  0  0  0  0  0  0  0
   -6.9640   -4.7261    5.1162 C   0  0  0  0  0  0  0  0  0  0  0  0
   -5.3457   -4.5306    2.5390 C   0  0  0  0  0  0  0  0  0  0  0  0
   -4.5400   -4.6056    1.4194 C   0  0  0  0  0  0  0  0  0  0  0  0
   -3.5858   -4.6189   -1.3628 C   0  0  0  0  0  0  0  0  0  0  0  0
   -2.4735   -5.1634   -2.0028 C   0  0  0  0  0  0  0  0  0  0  0  0
   -2.6239   -6.1204   -2.9848 C   0  0  0  0  0  0  0  0  0  0  0  0
   -3.8936   -6.5630   -3.3365 C   0  0  0  0  0  0  0  0  0  0  0  0
   -4.1909   -7.6948   -4.6571 S   0  0  0  0  0  0  0  0  0  0  0  0
   -2.7476   -7.4406   -5.7298 C   0  0  0  0  0  0  0  0  0  0  0  0
   -4.9969   -6.1025   -2.6238 C   0  0  0  0  0  0  0  0  0  0  0  0
   -4.8476   -5.1408   -1.6485 C   0  0  0  0  0  0  0  0  0  0  0  0
   -1.8574   -1.8494    0.3308 C   0  0  0  0  0  0  0  0  0  0  0  0
   -1.9995   -1.7970    2.0520 S   0  0  0  0  0  0  0  0  0  0  0  0
   -0.6493   -0.6838    2.1580 C   0  0  0  0  0  0  0  0  0  0  0  0
   -0.1275   -0.3569    0.9170 C   0  0  0  0  0  0  0  0  0  0  0  0
    0.8985    0.5423    0.6684 N   0  0  0  0  0  0  0  0  0  0  0  0
    1.7202    0.3349   -0.4466 C   0  0  0  0  0  0  0  0  0  0  0  0
    2.0563   -0.9595   -0.8524 C   0  0  0  0  0  0  0  0  0  0  0  0
    2.8047   -1.1643   -1.9904 C   0  0  0  0  0  0  0  0  0  0  0  0
    3.2441   -0.0838   -2.7495 C   0  0  0  0  0  0  0  0  0  0  0  0
    4.1697   -0.4586   -4.2047 S   0  0  0  0  0  0  0  0  0  0  0  0
    4.1133    1.0917   -5.1514 C   0  0  0  0  0  0  0  0  0  0  0  0
    2.9498    1.2067   -2.3292 C   0  0  0  0  0  0  0  0  0  0  0  0
    2.1912    1.4119   -1.1934 C   0  0  0  0  0  0  0  0  0  0  0  0
    1.0631    1.6691    1.4819 C   0  0  0  0  0  0  0  0  0  0  0  0
    2.3354    2.1021    1.8546 C   0  0  0  0  0  0  0  0  0  0  0  0
    2.4834    3.1623    2.7249 C   0  0  0  0  0  0  0  0  0  0  0  0
    1.3651    3.8124    3.2331 C   0  0  0  0  0  0  0  0  0  0  0  0
    1.6030    5.1438    4.3811 S   0  0  0  0  0  0  0  0  0  0  0  0
    0.3327    6.3156    3.8115 C   0  0  0  0  0  0  0  0  0  0  0  0
    0.0957    3.4066    2.8454 C   0  0  0  0  0  0  0  0  0  0  0  0
   -0.0508    2.3529    1.9686 C   0  0  0  0  0  0  0  0  0  0  0  0
   -0.8366   -1.0239   -0.1123 C   0  0  0  0  0  0  0  0  0  0  0  0
   -0.7054   -1.0289   -1.8316 S   0  0  0  0  0  0  0  0  0  0  0  0
   -0.2826   -0.0968    3.4309 C   0  0  0  0  0  0  0  0  0  0  0  0
   -1.2300    0.4815    4.2631 C   0  0  0  0  0  0  0  0  0  0  0  0
   -2.5330    0.3662    3.9453 F   0  0  0  0  0  0  0  0  0  0  0  0
   -0.9146    1.2631    5.3675 C   0  0  0  0  0  0  0  0  0  0  0  0
    0.4069    1.4672    5.7181 C   0  0  0  0  0  0  0  0  0  0  0  0
    1.4086    0.7615    4.9919 C   0  0  0  0  0  0  0  0  0  0  0  0
    2.6960    0.8628    5.3918 N   0  0  0  0  0  0  0  0  0  0  0  0
    3.5975    0.2110    4.7294 C   0  0  0  0  0  0  0  0  0  0  0  0
    3.2607   -0.5866    3.5958 C   0  0  0  0  0  0  0  0  0  0  0  0
    4.2614   -1.2290    3.0036 O   0  0  0  0  0  0  0  0  0  0  0  0
    3.9752   -2.0025    1.8417 C   0  0  0  0  0  0  0  0  0  0  0  0
    3.1770   -3.2618    2.1465 C   0  0  0  0  0  0  0  0  0  0  0  0
    2.0258   -0.6728    3.1629 N   0  0  0  0  0  0  0  0  0  0  0  0
    1.0732   -0.0041    3.8498 C   0  0  0  0  0  0  0  0  0  0  0  0
    0.8578    2.3149    6.7882 C   0  0  0  0  0  0  0  0  0  0  0  0
    0.3460    3.4987    7.1994 C   0  0  0  0  0  0  0  0  0  0  0  0
   -0.6816    4.3275    6.5121 C   0  0  0  0  0  0  0  0  0  0  0  0
   -1.4372    4.0100    5.6172 O   0  0  0  0  0  0  0  0  0  0  0  0
   -0.5638    5.6726    7.1032 C   0  0  0  0  0  0  0  0  0  0  0  0
   -1.2782    6.8110    6.7301 C   0  0  0  0  0  0  0  0  0  0  0  0
   -0.9154    7.9479    7.4084 C   0  0  0  0  0  0  0  0  0  0  0  0
    0.0799    7.9580    8.3960 C   0  0  0  0  0  0  0  0  0  0  0  0
    0.7707    6.8400    8.7956 C   0  0  0  0  0  0  0  0  0  0  0  0
    0.4182    5.6701    8.1138 C   0  0  0  0  0  0  0  0  0  0  0  0
    0.9226    4.3129    8.2635 C   0  0  0  0  0  0  0  0  0  0  0  0
    1.7185    3.8554    9.2763 C   0  0  0  0  0  0  0  0  0  0  0  0
    2.0762    2.5027    9.4730 C   0  0  0  0  0  0  0  0  0  0  0  0
    2.3811    1.4272    9.7337 N   0  0  0  0  0  0  0  0  0  0  0  0
    2.2381    4.6668   10.3075 C   0  0  0  0  0  0  0  0  0  0  0  0
    2.6909    5.2715   11.1718 N   0  0  0  0  0  0  0  0  0  0  0  0
   -0.0531    9.4431    8.6266 C   0  0  0  0  0  0  0  0  0  0  0  0
    1.0406   10.3340    7.9997 C   0  0  0  0  0  0  0  0  0  0  0  0
    0.4121   11.7081    7.9609 C   0  0  0  0  0  0  0  0  0  0  0  0
   -0.5279   11.6959    7.0244 C   0  0  0  0  0  0  0  0  0  0  0  0
   -0.5514   10.3124    6.4156 C   0  0  0  0  0  0  0  0  0  0  0  0
    0.9373    9.9549    6.5166 C   0  0  0  0  0  0  0  0  0  0  0  0
   -1.1624    9.4307    7.5262 C   0  0  0  0  0  0  0  0  0  0  0  0
   -2.5170   -4.2193   -7.4770 H   0  0  0  0  0  0  0  0  0  0  0  0
    3.3373   -1.9839   -7.1159 H   0  0  0  0  0  0  0  0  0  0  0  0
    1.4647   -4.1642  -11.2918 H   0  0  0  0  0  0  0  0  0  0  0  0
    4.8302   -3.6499  -11.6255 H   0  0  0  0  0  0  0  0  0  0  0  0
    3.5435   -1.7881  -13.0300 H   0  0  0  0  0  0  0  0  0  0  0  0
    6.1249   -1.4815  -13.4099 H   0  0  0  0  0  0  0  0  0  0  0  0
    7.1507   -0.3413  -11.2407 H   0  0  0  0  0  0  0  0  0  0  0  0
    5.2010    0.0562   -9.5261 H   0  0  0  0  0  0  0  0  0  0  0  0
    2.8805   -0.5920  -10.7169 H   0  0  0  0  0  0  0  0  0  0  0  0
    3.8286    0.5077  -11.7442 H   0  0  0  0  0  0  0  0  0  0  0  0
    5.8325   -2.5319   -9.4961 H   0  0  0  0  0  0  0  0  0  0  0  0
   -4.2193   -3.7436   -5.7761 H   0  0  0  0  0  0  0  0  0  0  0  0
   -7.1899   -2.5034   -2.5523 H   0  0  0  0  0  0  0  0  0  0  0  0
   -7.6325   -4.0559   -3.3271 H   0  0  0  0  0  0  0  0  0  0  0  0
   -7.7711   -2.5313   -4.2436 H   0  0  0  0  0  0  0  0  0  0  0  0
   -4.6746   -1.3813    0.4194 H   0  0  0  0  0  0  0  0  0  0  0  0
   -6.0797   -1.2357    2.4482 H   0  0  0  0  0  0  0  0  0  0  0  0
   -5.9566   -5.0301    5.3846 H   0  0  0  0  0  0  0  0  0  0  0  0
   -7.5635   -4.6054    6.0131 H   0  0  0  0  0  0  0  0  0  0  0  0
   -7.4337   -5.4488    4.4552 H   0  0  0  0  0  0  0  0  0  0  0  0
   -5.5311   -5.4284    3.1061 H   0  0  0  0  0  0  0  0  0  0  0  0
   -4.1095   -5.5533    1.1301 H   0  0  0  0  0  0  0  0  0  0  0  0
   -1.4830   -4.8225   -1.7402 H   0  0  0  0  0  0  0  0  0  0  0  0
   -1.7465   -6.5144   -3.4728 H   0  0  0  0  0  0  0  0  0  0  0  0
   -2.5171   -6.3805   -5.7728 H   0  0  0  0  0  0  0  0  0  0  0  0
   -1.8979   -8.0123   -5.3670 H   0  0  0  0  0  0  0  0  0  0  0  0
   -3.0380   -7.7914   -6.7152 H   0  0  0  0  0  0  0  0  0  0  0  0
   -5.9750   -6.4864   -2.8690 H   0  0  0  0  0  0  0  0  0  0  0  0
   -5.7098   -4.7589   -1.1228 H   0  0  0  0  0  0  0  0  0  0  0  0
    1.7093   -1.8065   -0.2803 H   0  0  0  0  0  0  0  0  0  0  0  0
    3.0444   -2.1655   -2.3123 H   0  0  0  0  0  0  0  0  0  0  0  0
    3.0826    1.4208   -5.2436 H   0  0  0  0  0  0  0  0  0  0  0  0
    4.5168    0.8555   -6.1312 H   0  0  0  0  0  0  0  0  0  0  0  0
    4.7299    1.8499   -4.6771 H   0  0  0  0  0  0  0  0  0  0  0  0
    3.2927    2.0645   -2.8854 H   0  0  0  0  0  0  0  0  0  0  0  0
    1.9473    2.4190   -0.8891 H   0  0  0  0  0  0  0  0  0  0  0  0
    3.2068    1.5929    1.4690 H   0  0  0  0  0  0  0  0  0  0  0  0
    3.4673    3.4852    3.0286 H   0  0  0  0  0  0  0  0  0  0  0  0
   -0.6551    5.9451    4.0649 H   0  0  0  0  0  0  0  0  0  0  0  0
    0.4336    6.4513    2.7392 H   0  0  0  0  0  0  0  0  0  0  0  0
    0.5248    7.2499    4.3291 H   0  0  0  0  0  0  0  0  0  0  0  0
   -0.7826    3.8900    3.2407 H   0  0  0  0  0  0  0  0  0  0  0  0
   -1.0400    2.0478    1.6619 H   0  0  0  0  0  0  0  0  0  0  0  0
   -1.7195    1.7204    5.9178 H   0  0  0  0  0  0  0  0  0  0  0  0
    4.6228    0.2804    5.0620 H   0  0  0  0  0  0  0  0  0  0  0  0
    3.4382   -1.3760    1.1235 H   0  0  0  0  0  0  0  0  0  0  0  0
    4.9594   -2.2553    1.4407 H   0  0  0  0  0  0  0  0  0  0  0  0
    2.1850   -2.9985    2.5041 H   0  0  0  0  0  0  0  0  0  0  0  0
    3.6828   -3.8535    2.9057 H   0  0  0  0  0  0  0  0  0  0  0  0
    3.0848   -3.8548    1.2409 H   0  0  0  0  0  0  0  0  0  0  0  0
    1.7901    1.9818    7.2281 H   0  0  0  0  0  0  0  0  0  0  0  0
   -2.0460    6.7660    5.9732 H   0  0  0  0  0  0  0  0  0  0  0  0
    1.5294    6.8578    9.5601 H   0  0  0  0  0  0  0  0  0  0  0  0
   -0.3226    9.7460    9.6362 H   0  0  0  0  0  0  0  0  0  0  0  0
    2.0166   10.2548    8.4702 H   0  0  0  0  0  0  0  0  0  0  0  0
    0.6696   12.5048    8.6336 H   0  0  0  0  0  0  0  0  0  0  0  0
   -1.2129   12.4795    6.7589 H   0  0  0  0  0  0  0  0  0  0  0  0
   -1.0266   10.2143    5.4429 H   0  0  0  0  0  0  0  0  0  0  0  0
    1.1622    8.9093    6.3122 H   0  0  0  0  0  0  0  0  0  0  0  0
    1.5567   10.5900    5.8853 H   0  0  0  0  0  0  0  0  0  0  0  0
   -2.1726    9.7287    7.7998 H   0  0  0  0  0  0  0  0  0  0  0  0
  1  2  2  0  0  0  0
  2  3  1  0  0  0  0
  3  4  2  0  0  0  0
  3  5  1  0  0  0  0
  5  6  2  0  0  0  0
  6  7  1  0  0  0  0
  7  8  2  0  0  0  0
  8  9  1  0  0  0  0
  9 10  2  0  0  0  0
 10 11  1  0  0  0  0
 11 12  2  0  0  0  0
 12 13  1  0  0  0  0
 13 14  3  0  0  0  0
 12 15  1  0  0  0  0
 15 16  3  0  0  0  0
  8 17  1  0  0  0  0
 17 18  1  0  0  0  0
 18 19  1  0  0  0  0
 19 20  2  0  0  0  0
 20 21  1  0  0  0  0
 21 22  1  0  0  0  0
 21 23  1  0  0  0  0
  1 24  1  0  0  0  0
 24 25  2  0  0  0  0
 25 26  1  0  0  0  0
 26 27  1  0  0  0  0
 27 28  2  0  0  0  0
 27 29  1  0  0  0  0
 29 30  1  0  0  0  0
 26 31  2  0  0  0  0
 31 32  1  0  0  0  0
 31 33  1  0  0  0  0
 33 34  2  0  0  0  0
 34 35  1  0  0  0  0
 35 36  1  0  0  0  0
 36 37  2  0  0  0  0
 37 38  1  0  0  0  0
 38 39  2  0  0  0  0
 39 40  1  0  0  0  0
 40 41  1  0  0  0  0
 39 42  1  0  0  0  0
 42 43  2  0  0  0  0
 35 44  1  0  0  0  0
 44 45  2  0  0  0  0
 45 46  1  0  0  0  0
 46 47  2  0  0  0  0
 47 48  1  0  0  0  0
 48 49  1  0  0  0  0
 47 50  1  0  0  0  0
 50 51  2  0  0  0  0
 34 52  1  0  0  0  0
 52 53  1  0  0  0  0
 53 54  1  0  0  0  0
 54 55  2  0  0  0  0
 55 56  1  0  0  0  0
 56 57  1  0  0  0  0
 57 58  2  0  0  0  0
 58 59  1  0  0  0  0
 59 60  2  0  0  0  0
 60 61  1  0  0  0  0
 61 62  1  0  0  0  0
 60 63  1  0  0  0  0
 63 64  2  0  0  0  0
 56 65  1  0  0  0  0
 65 66  2  0  0  0  0
 66 67  1  0  0  0  0
 67 68  2  0  0  0  0
 68 69  1  0  0  0  0
 69 70  1  0  0  0  0
 68 71  1  0  0  0  0
 71 72  2  0  0  0  0
 55 73  1  0  0  0  0
 73 74  1  0  0  0  0
 54 75  1  0  0  0  0
 75 76  2  0  0  0  0
 76 77  1  0  0  0  0
 76 78  1  0  0  0  0
 78 79  2  0  0  0  0
 79 80  1  0  0  0  0
 80 81  2  0  0  0  0
 81 82  1  0  0  0  0
 82 83  2  0  0  0  0
 83 84  1  0  0  0  0
 84 85  1  0  0  0  0
 85 86  1  0  0  0  0
 83 87  1  0  0  0  0
 87 88  2  0  0  0  0
 79 89  1  0  0  0  0
 89 90  2  0  0  0  0
 90 91  1  0  0  0  0
 91 92  2  0  0  0  0
 91 93  1  0  0  0  0
 93 94  2  0  0  0  0
 94 95  1  0  0  0  0
 95 96  2  0  0  0  0
 96 97  1  0  0  0  0
 97 98  2  0  0  0  0
 98 99  1  0  0  0  0
 99100  2  0  0  0  0
100101  1  0  0  0  0
101102  3  0  0  0  0
100103  1  0  0  0  0
103104  3  0  0  0  0
 96105  1  0  0  0  0
105106  1  0  0  0  0
106107  1  0  0  0  0
107108  2  0  0  0  0
108109  1  0  0  0  0
109110  1  0  0  0  0
109111  1  0  0  0  0
 11  2  1  0  0  0  0
 23 17  1  0  0  0  0
 32 24  1  0  0  0  0
 74 33  1  0  0  0  0
 88 75  1  0  0  0  0
 99 90  1  0  0  0  0
111105  1  0  0  0  0
 10  5  1  0  0  0  0
 22 18  1  0  0  0  0
 43 36  1  0  0  0  0
 51 44  1  0  0  0  0
 73 52  2  0  0  0  0
 88 80  1  0  0  0  0
 98 93  1  0  0  0  0
110106  1  0  0  0  0
 23  7  1  0  0  0  0
 64 57  1  0  0  0  0
 72 65  1  0  0  0  0
111 95  1  0  0  0  0
  1112  1  0  0  0  0
  6113  1  0  0  0  0
  9114  1  0  0  0  0
 17115  1  0  0  0  0
 18116  1  0  0  0  0
 19117  1  0  0  0  0
 20118  1  0  0  0  0
 21119  1  0  0  0  0
 22120  1  0  0  0  0
 22121  1  0  0  0  0
 23122  1  0  0  0  0
 25123  1  0  0  0  0
 30124  1  0  0  0  0
 30125  1  0  0  0  0
 30126  1  0  0  0  0
 37127  1  0  0  0  0
 38128  1  0  0  0  0
 41129  1  0  0  0  0
 41130  1  0  0  0  0
 41131  1  0  0  0  0
 42132  1  0  0  0  0
 43133  1  0  0  0  0
 45134  1  0  0  0  0
 46135  1  0  0  0  0
 49136  1  0  0  0  0
 49137  1  0  0  0  0
 49138  1  0  0  0  0
 50139  1  0  0  0  0
 51140  1  0  0  0  0
 58141  1  0  0  0  0
 59142  1  0  0  0  0
 62143  1  0  0  0  0
 62144  1  0  0  0  0
 62145  1  0  0  0  0
 63146  1  0  0  0  0
 64147  1  0  0  0  0
 66148  1  0  0  0  0
 67149  1  0  0  0  0
 70150  1  0  0  0  0
 70151  1  0  0  0  0
 70152  1  0  0  0  0
 71153  1  0  0  0  0
 72154  1  0  0  0  0
 78155  1  0  0  0  0
 82156  1  0  0  0  0
 85157  1  0  0  0  0
 85158  1  0  0  0  0
 86159  1  0  0  0  0
 86160  1  0  0  0  0
 86161  1  0  0  0  0
 89162  1  0  0  0  0
 94163  1  0  0  0  0
 97164  1  0  0  0  0
105165  1  0  0  0  0
106166  1  0  0  0  0
107167  1  0  0  0  0
108168  1  0  0  0  0
109169  1  0  0  0  0
110170  1  0  0  0  0
110171  1  0  0  0  0
111172  1  0  0  0  0
M  END
