182

C         -1.49210        3.14930       -6.10800
C         -0.60900        4.06650       -6.63250
C          0.54260        4.64880       -5.94850
O          0.83530        4.56820       -4.76570
C          1.30340        5.38790       -6.97250
C          2.51280        6.05750       -6.79980
C          3.01260        6.61560       -7.95240
C          2.34890        6.52870       -9.18200
C          1.14460        5.88870       -9.36060
C          0.62420        5.30390       -8.20290
C         -0.61200        4.54540       -7.99610
C         -1.59880        4.38040       -8.93680
C         -1.53670        4.88330      -10.25200
N         -1.55980        5.26030      -11.33710
C         -2.83490        3.73200       -8.73990
N         -3.87460        3.24490       -8.68180
C          3.42410        7.30100       -9.90750
C          4.39750        6.47720      -10.77620
C          5.59150        7.38750      -10.95010
C          6.22260        7.45280       -9.78470
C          5.46350        6.58980       -8.80260
C          4.96570        5.48960       -9.74910
C          4.16890        7.38800       -8.53670
C         -1.53100        2.54420       -4.85310
C         -2.43130        1.51180       -4.49790
C         -3.40480        0.89300       -5.36280
C         -4.64650        0.44750       -4.99130
C         -5.36840       -0.13390       -6.04820
C         -4.68120       -0.16190       -7.22490
C         -5.11960       -0.68680       -8.54690
C         -4.26010       -1.86610       -9.00400
S         -3.11160        0.53880       -7.04210
C         -2.28320        1.10690       -3.17570
C         -1.27170        1.76700       -2.49420
S         -0.51610        2.96750       -3.49130
C         -0.91050        1.50770       -1.15020
C          0.18850        1.91320       -0.39150
N          1.31270        2.58330       -0.82970
C          1.91660        2.33120       -2.06500
C          1.80830        1.08740       -2.68980
C          2.36160        0.88600       -3.93410
C          3.05180        1.91190       -4.57630
S          3.66380        1.55600       -6.19250
C          4.58610        3.04900       -6.65550
C          3.20750        3.13340       -3.93570
C          2.64110        3.34010       -2.69610
C          1.96670        3.41630        0.09550
C          1.23340        4.32320        0.85420
C          1.85370        5.11720        1.79890
C          3.22380        5.01600        1.99710
S          4.12580        5.96520        3.17890
C          2.83360        6.78860        4.15210
C          3.96480        4.12330        1.22350
C          3.34600        3.33080        0.28420
C          0.05680        1.49220        0.95740
S          1.06380        1.61010        2.35960
C         -0.05960        0.65810        3.28470
C         -1.14270        0.23430        2.53130
N         -2.13990       -0.65990        2.97720
C         -3.34210       -0.13650        3.45870
C         -3.82390        1.08290        2.98730
C         -4.99490        1.62760        3.48000
C         -5.71330        0.96540        4.46330
S         -7.22640        1.55170        5.16470
C         -7.55780        3.09150        4.26300
C         -5.22490       -0.24120        4.96090
C         -4.05610       -0.78050        4.47520
C         -1.85390       -2.02690        2.96880
C         -2.87470       -2.96680        2.82210
C         -2.61010       -4.32260        2.84920
C         -1.30760       -4.77570        2.99960
S         -0.84320       -6.48100        3.09820
C         -2.37770       -7.37410        2.71910
C         -0.27670       -3.84650        3.08250
C         -0.54140       -2.49620        3.06160
C         -1.06630        0.71980        1.21150
S         -2.03510        0.51840       -0.20360
C          0.26070        0.21490        4.62360
C          1.59790       -0.01880        4.97820
O          2.54590        0.48920        4.15260
C          3.72810       -0.25740        3.87210
C          4.15690        0.07110        2.44950
C          1.90010       -0.76010        6.14010
O          3.20850       -0.81530        6.46850
C          3.65790       -1.33470        7.69980
C          4.99090       -0.67360        8.01900
C          0.84320       -1.28340        6.90530
C         -0.46260       -0.82570        6.66010
C         -0.75390       -0.09800        5.54030
C          0.97070       -2.36730        7.84820
C          1.57050       -3.54820        7.54940
C          1.99190       -3.95440        6.18230
O          2.24420       -3.23890        5.23570
C          1.99700       -5.42890        6.20420
C          2.17940       -6.28360        5.11860
C          2.11220       -7.61810        5.43850
C          1.88990       -8.07800        6.74410
C          1.71530       -7.24950        7.82670
C          1.76940       -5.88610        7.52050
C          1.61070       -4.73100        8.39160
C          1.59940       -4.72050        9.75970
C          1.58780       -3.52800       10.51420
N          1.61850       -2.58290       11.16510
C          1.66880       -5.87340       10.56780
N          1.71710       -6.77830       11.27230
C          1.93750       -9.52700        6.32760
C          0.58210      -10.25470        6.20990
C          0.88760      -11.45310        5.34010
C          1.09250      -11.01390        4.10470
C          0.93010       -9.51140        4.11880
C         -0.15540       -9.37380        5.19390
C          2.18190       -9.01340        4.87240
H         -2.26310        2.80430       -6.78470
H          2.97800        6.12100       -5.82760
H          0.64540        5.83750      -10.31350
H          3.10400        8.22530      -10.38440
H          3.96130        6.06350      -11.68110
H          5.81570        7.91660      -11.85760
H          7.07810        8.04790       -9.52380
H          5.99930        6.27770       -7.90960
H          5.78310        4.89610      -10.15590
H          4.21780        4.83010       -9.31320
H          4.35580        8.37010       -8.10590
H         -5.03850        0.57060       -3.99740
H         -6.36870       -0.51530       -5.94340
H         -6.16430       -0.99570       -8.47090
H         -5.05310        0.11400       -9.28820
H         -4.60320       -2.23020       -9.96900
H         -3.22040       -1.56030       -9.09760
H         -4.31760       -2.68000       -8.28420
H         -2.86250        0.31580       -2.73220
H          1.27760        0.28300       -2.20280
H          2.26020       -0.06880       -4.42710
H          3.90980        3.89610       -6.73560
H          5.37320        3.23700       -5.93110
H          5.02350        2.83290       -7.62540
H          3.74530        3.94190       -4.40120
H          2.73080        4.30610       -2.22490
H          0.16770        4.40530        0.69940
H          1.25730        5.81210        2.36740
H          3.35290        7.29200        4.96170
H          2.15060        6.04660        4.55500
H          2.31100        7.51960        3.54180
H          5.03030        4.05400        1.38110
H          3.92160        2.62920       -0.30070
H         -3.28370        1.61760        2.22220
H         -5.33210        2.57060        3.08080
H         -6.76840        3.81280        4.45430
H         -8.49890        3.46300        4.65630
H         -7.65720        2.88590        3.20110
H         -5.77100       -0.74460        5.74420
H         -3.67770       -1.70060        4.89410
H         -3.89170       -2.63380        2.68010
H         -3.43360       -5.01130        2.74560
H         -2.75700       -7.05810        1.75180
H         -2.10670       -8.42460        2.68550
H         -3.11050       -7.20820        3.50360
H          0.74200       -4.18670        3.17780
H          0.28690       -1.81250        3.12950
H          3.52850       -1.32710        3.98300
H          4.51190        0.03350        4.57970
H          5.10470       -0.41350        2.23270
H          3.41140       -0.27390        1.73760
H          4.26810        1.14660        2.33740
H          2.92720       -1.13170        8.49460
H          3.78610       -2.42410        7.62360
H          5.36450       -1.04650        8.96800
H          4.86690        0.40410        8.08380
H          5.71350       -0.89530        7.23830
H         -1.25240       -1.13570        7.32730
H         -1.76640        0.21200        5.34510
H          0.39150       -2.28910        8.76150
H          2.35470       -5.90040        4.12630
H          1.54050       -7.60940        8.82750
H          2.70660      -10.13190        6.80400
H          0.08740      -10.45180        7.15720
H          0.97470      -12.45730        5.71180
H          1.38570      -11.57850        3.23900
H          0.75320       -9.02100        3.16610
H         -0.32050       -8.35010        5.52240
H         -1.10130       -9.81410        4.88230
H          3.11190       -9.27990        4.37400
