
  xtb     02042219503D
 energy: -339.809610464264 gnorm: 0.000311594023 xtb: 6.4.1 (unknown)
201223  0     0  0            999 V2000
    7.7865   -5.8110    2.3515 C   0  0  0  0  0  0  0  0  0  0  0  0
    7.6774   -6.8952    3.1463 C   0  0  0  0  0  0  0  0  0  0  0  0
    8.6365   -8.0358    3.0183 C   0  0  0  0  0  0  0  0  0  0  0  0
    9.7023   -8.0214    2.4508 O   0  0  0  0  0  0  0  0  0  0  0  0
    7.9584   -9.1758    3.6598 C   0  0  0  0  0  0  0  0  0  0  0  0
    8.3718  -10.5071    3.6664 C   0  0  0  0  0  0  0  0  0  0  0  0
    7.5130  -11.3574    4.3200 C   0  0  0  0  0  0  0  0  0  0  0  0
    6.3140  -10.9254    4.9064 C   0  0  0  0  0  0  0  0  0  0  0  0
    5.8931   -9.6178    4.9115 C   0  0  0  0  0  0  0  0  0  0  0  0
    6.7661   -8.7331    4.2738 C   0  0  0  0  0  0  0  0  0  0  0  0
    6.6611   -7.2902    4.1084 C   0  0  0  0  0  0  0  0  0  0  0  0
    5.9052   -6.4501    4.8788 C   0  0  0  0  0  0  0  0  0  0  0  0
    5.0433   -6.8880    5.9072 C   0  0  0  0  0  0  0  0  0  0  0  0
    4.3377   -7.1830    6.7625 N   0  0  0  0  0  0  0  0  0  0  0  0
    5.9477   -5.0437    4.7930 C   0  0  0  0  0  0  0  0  0  0  0  0
    5.9524   -3.8954    4.7808 N   0  0  0  0  0  0  0  0  0  0  0  0
    5.9462  -12.3132    5.3661 C   0  0  0  0  0  0  0  0  0  0  0  0
    6.1398  -12.6465    6.8658 C   0  0  0  0  0  0  0  0  0  0  0  0
    7.2330  -11.7355    7.3674 C   0  0  0  0  0  0  0  0  0  0  0  0
    8.3748  -12.1379    6.8255 C   0  0  0  0  0  0  0  0  0  0  0  0
    8.0746  -13.3283    5.9483 C   0  0  0  0  0  0  0  0  0  0  0  0
    6.9210  -13.9642    6.7404 C   0  0  0  0  0  0  0  0  0  0  0  0
    7.2876  -12.7918    4.7262 C   0  0  0  0  0  0  0  0  0  0  0  0
    6.7642   -4.8373    2.0691 C   0  0  0  0  0  0  0  0  0  0  0  0
    5.4288   -5.1799    1.8634 C   0  0  0  0  0  0  0  0  0  0  0  0
    5.0236   -6.5305    1.9119 C   0  0  0  0  0  0  0  0  0  0  0  0
    4.7028   -7.6327    1.8990 N   0  0  0  0  0  0  0  0  0  0  0  0
    4.4519   -4.2321    1.4677 C   0  0  0  0  0  0  0  0  0  0  0  0
    3.1105   -4.6569    1.3745 C   0  0  0  0  0  0  0  0  0  0  0  0
    2.0074   -4.9728    1.3662 N   0  0  0  0  0  0  0  0  0  0  0  0
    4.7737   -2.8937    1.2238 C   0  0  0  0  0  0  0  0  0  0  0  0
    6.0948   -2.5002    1.5481 C   0  0  0  0  0  0  0  0  0  0  0  0
    7.0881   -3.4679    1.9242 C   0  0  0  0  0  0  0  0  0  0  0  0
    8.2789   -2.9076    2.1172 N   0  0  0  0  0  0  0  0  0  0  0  0
    8.1581   -1.3255    1.8605 S   0  0  0  0  0  0  0  0  0  0  0  0
    6.6000   -1.2728    1.4714 N   0  0  0  0  0  0  0  0  0  0  0  0
    3.8661   -1.9758    0.6077 C   0  0  0  0  0  0  0  0  0  0  0  0
    2.9945   -2.2094   -0.4561 C   0  0  0  0  0  0  0  0  0  0  0  0
    2.9033   -3.3617   -1.2079 N   0  0  0  0  0  0  0  0  0  0  0  0
    3.9956   -4.2300   -1.3381 C   0  0  0  0  0  0  0  0  0  0  0  0
    3.8154   -5.6104   -1.2881 C   0  0  0  0  0  0  0  0  0  0  0  0
    4.9032   -6.4627   -1.2500 C   0  0  0  0  0  0  0  0  0  0  0  0
    6.1921   -5.9462   -1.2483 C   0  0  0  0  0  0  0  0  0  0  0  0
    7.6509   -6.9112   -1.0276 S   0  0  0  0  0  0  0  0  0  0  0  0
    7.0361   -8.5488   -0.5492 C   0  0  0  0  0  0  0  0  0  0  0  0
    6.3749   -4.5707   -1.4072 C   0  0  0  0  0  0  0  0  0  0  0  0
    5.2925   -3.7243   -1.4642 C   0  0  0  0  0  0  0  0  0  0  0  0
    1.6640   -3.6846   -1.7887 C   0  0  0  0  0  0  0  0  0  0  0  0
    0.4863   -3.4971   -1.0719 C   0  0  0  0  0  0  0  0  0  0  0  0
   -0.7398   -3.7435   -1.6564 C   0  0  0  0  0  0  0  0  0  0  0  0
   -0.8042   -4.1896   -2.9692 C   0  0  0  0  0  0  0  0  0  0  0  0
   -2.3112   -4.4909   -3.8336 S   0  0  0  0  0  0  0  0  0  0  0  0
   -3.6026   -4.0789   -2.6249 C   0  0  0  0  0  0  0  0  0  0  0  0
    0.3763   -4.4195   -3.6751 C   0  0  0  0  0  0  0  0  0  0  0  0
    1.5993   -4.1700   -3.0936 C   0  0  0  0  0  0  0  0  0  0  0  0
    2.2641   -1.0326   -0.7549 C   0  0  0  0  0  0  0  0  0  0  0  0
    1.0150   -0.6449   -1.8868 S   0  0  0  0  0  0  0  0  0  0  0  0
    0.9459    0.9992   -1.2733 C   0  0  0  0  0  0  0  0  0  0  0  0
    1.8175    1.2162   -0.2180 C   0  0  0  0  0  0  0  0  0  0  0  0
    1.8765    2.3516    0.5735 N   0  0  0  0  0  0  0  0  0  0  0  0
    3.1342    2.7262    1.0689 C   0  0  0  0  0  0  0  0  0  0  0  0
    4.2506    2.6554    0.2339 C   0  0  0  0  0  0  0  0  0  0  0  0
    5.5020    2.9561    0.7204 C   0  0  0  0  0  0  0  0  0  0  0  0
    5.6672    3.3453    2.0479 C   0  0  0  0  0  0  0  0  0  0  0  0
    7.3211    3.6812    2.5633 S   0  0  0  0  0  0  0  0  0  0  0  0
    7.1727    3.9791    4.3475 C   0  0  0  0  0  0  0  0  0  0  0  0
    4.5548    3.4491    2.8727 C   0  0  0  0  0  0  0  0  0  0  0  0
    3.2999    3.1368    2.3875 C   0  0  0  0  0  0  0  0  0  0  0  0
    0.7071    3.0267    0.9402 C   0  0  0  0  0  0  0  0  0  0  0  0
    0.7193    4.4009    1.1833 C   0  0  0  0  0  0  0  0  0  0  0  0
   -0.4625    5.0823    1.3809 C   0  0  0  0  0  0  0  0  0  0  0  0
   -1.6846    4.4155    1.3141 C   0  0  0  0  0  0  0  0  0  0  0  0
   -3.1496    5.4001    1.3785 S   0  0  0  0  0  0  0  0  0  0  0  0
   -4.4319    4.2702    0.7646 C   0  0  0  0  0  0  0  0  0  0  0  0
   -1.6939    3.0335    1.1850 C   0  0  0  0  0  0  0  0  0  0  0  0
   -0.5081    2.3473    1.0198 C   0  0  0  0  0  0  0  0  0  0  0  0
    2.5902    0.0551    0.0389 C   0  0  0  0  0  0  0  0  0  0  0  0
    3.8570   -0.3086    1.1519 S   0  0  0  0  0  0  0  0  0  0  0  0
   -0.0458    1.8851   -1.8000 C   0  0  0  0  0  0  0  0  0  0  0  0
   -1.3293    1.5568   -2.1156 C   0  0  0  0  0  0  0  0  0  0  0  0
   -2.1348    2.6724   -2.4506 C   0  0  0  0  0  0  0  0  0  0  0  0
   -3.5114    2.6821   -2.7167 C   0  0  0  0  0  0  0  0  0  0  0  0
   -4.2584    1.4233   -2.8519 C   0  0  0  0  0  0  0  0  0  0  0  0
   -3.7928    0.4370   -3.7223 C   0  0  0  0  0  0  0  0  0  0  0  0
   -4.5034   -0.7364   -3.8786 C   0  0  0  0  0  0  0  0  0  0  0  0
   -5.6711   -0.9578   -3.1673 C   0  0  0  0  0  0  0  0  0  0  0  0
   -6.1280    0.0086   -2.2818 C   0  0  0  0  0  0  0  0  0  0  0  0
   -7.5963   -0.1399   -1.3104 S   0  0  0  0  0  0  0  0  0  0  0  0
   -8.0441   -1.9096   -1.4036 C   0  0  0  0  0  0  0  0  0  0  0  0
   -7.0711   -2.7944   -0.6473 C   0  0  0  0  0  0  0  0  0  0  0  0
   -5.4236    1.1995   -2.1343 C   0  0  0  0  0  0  0  0  0  0  0  0
   -4.1133    3.9251   -2.8614 C   0  0  0  0  0  0  0  0  0  0  0  0
   -3.3714    5.1377   -2.8351 C   0  0  0  0  0  0  0  0  0  0  0  0
   -1.9746    5.1238   -2.6380 C   0  0  0  0  0  0  0  0  0  0  0  0
   -1.1685    6.3495   -2.6724 C   0  0  0  0  0  0  0  0  0  0  0  0
   -1.2595    7.2497   -3.7313 C   0  0  0  0  0  0  0  0  0  0  0  0
   -0.4482    8.3703   -3.7649 C   0  0  0  0  0  0  0  0  0  0  0  0
    0.4656    8.6093   -2.7526 C   0  0  0  0  0  0  0  0  0  0  0  0
    0.5582    7.7125   -1.7000 C   0  0  0  0  0  0  0  0  0  0  0  0
    1.7395    7.9689   -0.3841 S   0  0  0  0  0  0  0  0  0  0  0  0
    3.2590    7.4914   -1.2887 C   0  0  0  0  0  0  0  0  0  0  0  0
    3.3503    5.9924   -1.4949 C   0  0  0  0  0  0  0  0  0  0  0  0
   -0.2557    6.5976   -1.6529 C   0  0  0  0  0  0  0  0  0  0  0  0
   -1.4024    3.8875   -2.4030 C   0  0  0  0  0  0  0  0  0  0  0  0
    0.2764    3.5925   -2.0203 S   0  0  0  0  0  0  0  0  0  0  0  0
   -4.2132    6.2528   -2.9779 C   0  0  0  0  0  0  0  0  0  0  0  0
   -5.5506    5.9358   -3.1187 C   0  0  0  0  0  0  0  0  0  0  0  0
   -5.8175    4.2030   -3.0865 S   0  0  0  0  0  0  0  0  0  0  0  0
   -6.5355    6.9381   -3.2679 C   0  0  0  0  0  0  0  0  0  0  0  0
   -7.8928    6.8409   -3.3572 C   0  0  0  0  0  0  0  0  0  0  0  0
   -8.6910    5.6047   -3.2429 C   0  0  0  0  0  0  0  0  0  0  0  0
   -8.2836    4.4611   -3.1884 O   0  0  0  0  0  0  0  0  0  0  0  0
  -10.0992    6.0301   -3.1978 C   0  0  0  0  0  0  0  0  0  0  0  0
  -11.2131    5.2101   -3.0318 C   0  0  0  0  0  0  0  0  0  0  0  0
  -12.4073    5.8887   -3.0104 C   0  0  0  0  0  0  0  0  0  0  0  0
  -12.4877    7.2826   -3.1363 C   0  0  0  0  0  0  0  0  0  0  0  0
  -11.3969    8.1024   -3.3003 C   0  0  0  0  0  0  0  0  0  0  0  0
  -10.1706    7.4314   -3.3352 C   0  0  0  0  0  0  0  0  0  0  0  0
   -8.8168    7.9549   -3.4969 C   0  0  0  0  0  0  0  0  0  0  0  0
   -8.4977    9.2556   -3.7863 C   0  0  0  0  0  0  0  0  0  0  0  0
   -9.4419   10.2926   -3.9440 C   0  0  0  0  0  0  0  0  0  0  0  0
  -10.1491   11.1851   -4.0902 N   0  0  0  0  0  0  0  0  0  0  0  0
   -7.1966    9.7538   -4.0105 C   0  0  0  0  0  0  0  0  0  0  0  0
   -6.1772   10.2398   -4.2212 N   0  0  0  0  0  0  0  0  0  0  0  0
  -13.9916    7.2856   -3.0239 C   0  0  0  0  0  0  0  0  0  0  0  0
  -14.8109    7.4706   -4.3249 C   0  0  0  0  0  0  0  0  0  0  0  0
  -13.9464    6.9610   -5.4514 C   0  0  0  0  0  0  0  0  0  0  0  0
  -13.8689    5.6419   -5.3373 C   0  0  0  0  0  0  0  0  0  0  0  0
  -14.6800    5.2354   -4.1318 C   0  0  0  0  0  0  0  0  0  0  0  0
  -15.7917    6.2956   -4.1834 C   0  0  0  0  0  0  0  0  0  0  0  0
  -13.9021    5.7328   -2.8881 C   0  0  0  0  0  0  0  0  0  0  0  0
    8.7243   -5.6804    1.8224 H   0  0  0  0  0  0  0  0  0  0  0  0
    9.2935  -10.8043    3.1908 H   0  0  0  0  0  0  0  0  0  0  0  0
    4.9632   -9.2946    5.3492 H   0  0  0  0  0  0  0  0  0  0  0  0
    5.0182  -12.7158    4.9657 H   0  0  0  0  0  0  0  0  0  0  0  0
    5.2221  -12.6604    7.4473 H   0  0  0  0  0  0  0  0  0  0  0  0
    7.0592  -10.8842    7.9990 H   0  0  0  0  0  0  0  0  0  0  0  0
    9.3472  -11.6899    6.9145 H   0  0  0  0  0  0  0  0  0  0  0  0
    8.9193  -13.9642    5.6964 H   0  0  0  0  0  0  0  0  0  0  0  0
    7.2393  -14.3580    7.7043 H   0  0  0  0  0  0  0  0  0  0  0  0
    6.3866  -14.7347    6.1863 H   0  0  0  0  0  0  0  0  0  0  0  0
    7.2384  -13.5160    3.9154 H   0  0  0  0  0  0  0  0  0  0  0  0
    2.8163   -6.0156   -1.2384 H   0  0  0  0  0  0  0  0  0  0  0  0
    4.7293   -7.5239   -1.1846 H   0  0  0  0  0  0  0  0  0  0  0  0
    6.5840   -9.0425   -1.4047 H   0  0  0  0  0  0  0  0  0  0  0  0
    7.9138   -9.0999   -0.2248 H   0  0  0  0  0  0  0  0  0  0  0  0
    6.3310   -8.4572    0.2725 H   0  0  0  0  0  0  0  0  0  0  0  0
    7.3792   -4.1803   -1.4714 H   0  0  0  0  0  0  0  0  0  0  0  0
    5.4437   -2.6605   -1.5745 H   0  0  0  0  0  0  0  0  0  0  0  0
    0.5350   -3.1702   -0.0445 H   0  0  0  0  0  0  0  0  0  0  0  0
   -1.6324   -3.5857   -1.0738 H   0  0  0  0  0  0  0  0  0  0  0  0
   -3.5243   -3.0331   -2.3405 H   0  0  0  0  0  0  0  0  0  0  0  0
   -3.5284   -4.7345   -1.7621 H   0  0  0  0  0  0  0  0  0  0  0  0
   -4.5435   -4.2530   -3.1378 H   0  0  0  0  0  0  0  0  0  0  0  0
    0.3190   -4.7823   -4.6899 H   0  0  0  0  0  0  0  0  0  0  0  0
    2.5108   -4.3359   -3.6480 H   0  0  0  0  0  0  0  0  0  0  0  0
    4.1253    2.3610   -0.7976 H   0  0  0  0  0  0  0  0  0  0  0  0
    6.3677    2.8931    0.0795 H   0  0  0  0  0  0  0  0  0  0  0  0
    6.5888    4.8765    4.5305 H   0  0  0  0  0  0  0  0  0  0  0  0
    8.1876    4.1231    4.7051 H   0  0  0  0  0  0  0  0  0  0  0  0
    6.7302    3.1124    4.8296 H   0  0  0  0  0  0  0  0  0  0  0  0
    4.6497    3.7589    3.9007 H   0  0  0  0  0  0  0  0  0  0  0  0
    2.4417    3.1988    3.0398 H   0  0  0  0  0  0  0  0  0  0  0  0
    1.6515    4.9439    1.1738 H   0  0  0  0  0  0  0  0  0  0  0  0
   -0.4505    6.1485    1.5502 H   0  0  0  0  0  0  0  0  0  0  0  0
   -4.6851    3.5347    1.5231 H   0  0  0  0  0  0  0  0  0  0  0  0
   -5.2976    4.8908    0.5543 H   0  0  0  0  0  0  0  0  0  0  0  0
   -4.0872    3.7927   -0.1480 H   0  0  0  0  0  0  0  0  0  0  0  0
   -2.6176    2.4778    1.2072 H   0  0  0  0  0  0  0  0  0  0  0  0
   -0.5299    1.2719    0.9267 H   0  0  0  0  0  0  0  0  0  0  0  0
   -1.7071    0.5530   -2.0344 H   0  0  0  0  0  0  0  0  0  0  0  0
   -2.8918    0.6071   -4.2923 H   0  0  0  0  0  0  0  0  0  0  0  0
   -4.1511   -1.4901   -4.5680 H   0  0  0  0  0  0  0  0  0  0  0  0
   -6.2149   -1.8756   -3.3238 H   0  0  0  0  0  0  0  0  0  0  0  0
   -8.1336   -2.1904   -2.4525 H   0  0  0  0  0  0  0  0  0  0  0  0
   -9.0345   -1.9484   -0.9503 H   0  0  0  0  0  0  0  0  0  0  0  0
   -7.0398   -2.5055    0.4005 H   0  0  0  0  0  0  0  0  0  0  0  0
   -6.0664   -2.7092   -1.0562 H   0  0  0  0  0  0  0  0  0  0  0  0
   -7.3865   -3.8341   -0.7131 H   0  0  0  0  0  0  0  0  0  0  0  0
   -5.7947    1.9421   -1.4443 H   0  0  0  0  0  0  0  0  0  0  0  0
   -1.9492    7.0572   -4.5399 H   0  0  0  0  0  0  0  0  0  0  0  0
   -0.5274    9.0638   -4.5887 H   0  0  0  0  0  0  0  0  0  0  0  0
    1.0980    9.4841   -2.7758 H   0  0  0  0  0  0  0  0  0  0  0  0
    4.0791    7.8561   -0.6715 H   0  0  0  0  0  0  0  0  0  0  0  0
    3.2551    8.0274   -2.2376 H   0  0  0  0  0  0  0  0  0  0  0  0
    4.2481    5.7509   -2.0607 H   0  0  0  0  0  0  0  0  0  0  0  0
    2.4837    5.6254   -2.0426 H   0  0  0  0  0  0  0  0  0  0  0  0
    3.3983    5.4761   -0.5387 H   0  0  0  0  0  0  0  0  0  0  0  0
   -0.1897    5.9308   -0.8093 H   0  0  0  0  0  0  0  0  0  0  0  0
   -3.8614    7.2692   -2.9542 H   0  0  0  0  0  0  0  0  0  0  0  0
   -6.1120    7.9354   -3.2918 H   0  0  0  0  0  0  0  0  0  0  0  0
  -11.1027    4.1418   -2.9299 H   0  0  0  0  0  0  0  0  0  0  0  0
  -11.4770    9.1730   -3.3879 H   0  0  0  0  0  0  0  0  0  0  0  0
  -14.4054    7.8475   -2.1890 H   0  0  0  0  0  0  0  0  0  0  0  0
  -15.2329    8.4634   -4.4550 H   0  0  0  0  0  0  0  0  0  0  0  0
  -13.4489    7.5981   -6.1590 H   0  0  0  0  0  0  0  0  0  0  0  0
  -13.2930    4.9560   -5.9306 H   0  0  0  0  0  0  0  0  0  0  0  0
  -14.9837    4.1928   -4.0867 H   0  0  0  0  0  0  0  0  0  0  0  0
  -16.4413    6.1827   -5.0500 H   0  0  0  0  0  0  0  0  0  0  0  0
  -16.3927    6.3388   -3.2760 H   0  0  0  0  0  0  0  0  0  0  0  0
  -14.2607    5.2794   -1.9660 H   0  0  0  0  0  0  0  0  0  0  0  0
  1  2  2  0  0  0  0
  2  3  1  0  0  0  0
  3  4  2  0  0  0  0
  3  5  1  0  0  0  0
  5  6  2  0  0  0  0
  6  7  1  0  0  0  0
  7  8  2  0  0  0  0
  8  9  1  0  0  0  0
  9 10  2  0  0  0  0
 10 11  1  0  0  0  0
 11 12  2  0  0  0  0
 12 13  1  0  0  0  0
 13 14  3  0  0  0  0
 12 15  1  0  0  0  0
 15 16  3  0  0  0  0
  8 17  1  0  0  0  0
 17 18  1  0  0  0  0
 18 19  1  0  0  0  0
 19 20  2  0  0  0  0
 20 21  1  0  0  0  0
 21 22  1  0  0  0  0
 21 23  1  0  0  0  0
  1 24  1  0  0  0  0
 24 25  2  0  0  0  0
 25 26  1  0  0  0  0
 26 27  3  0  0  0  0
 25 28  1  0  0  0  0
 28 29  1  0  0  0  0
 29 30  3  0  0  0  0
 28 31  2  0  0  0  0
 31 32  1  0  0  0  0
 32 33  1  0  0  0  0
 33 34  2  0  0  0  0
 34 35  1  0  0  0  0
 35 36  1  0  0  0  0
 31 37  1  0  0  0  0
 37 38  2  0  0  0  0
 38 39  1  0  0  0  0
 39 40  1  0  0  0  0
 40 41  2  0  0  0  0
 41 42  1  0  0  0  0
 42 43  2  0  0  0  0
 43 44  1  0  0  0  0
 44 45  1  0  0  0  0
 43 46  1  0  0  0  0
 46 47  2  0  0  0  0
 39 48  1  0  0  0  0
 48 49  2  0  0  0  0
 49 50  1  0  0  0  0
 50 51  2  0  0  0  0
 51 52  1  0  0  0  0
 52 53  1  0  0  0  0
 51 54  1  0  0  0  0
 54 55  2  0  0  0  0
 38 56  1  0  0  0  0
 56 57  1  0  0  0  0
 57 58  1  0  0  0  0
 58 59  2  0  0  0  0
 59 60  1  0  0  0  0
 60 61  1  0  0  0  0
 61 62  2  0  0  0  0
 62 63  1  0  0  0  0
 63 64  2  0  0  0  0
 64 65  1  0  0  0  0
 65 66  1  0  0  0  0
 64 67  1  0  0  0  0
 67 68  2  0  0  0  0
 60 69  1  0  0  0  0
 69 70  2  0  0  0  0
 70 71  1  0  0  0  0
 71 72  2  0  0  0  0
 72 73  1  0  0  0  0
 73 74  1  0  0  0  0
 72 75  1  0  0  0  0
 75 76  2  0  0  0  0
 59 77  1  0  0  0  0
 77 78  1  0  0  0  0
 58 79  1  0  0  0  0
 79 80  2  0  0  0  0
 80 81  1  0  0  0  0
 81 82  2  0  0  0  0
 82 83  1  0  0  0  0
 83 84  2  0  0  0  0
 84 85  1  0  0  0  0
 85 86  2  0  0  0  0
 86 87  1  0  0  0  0
 87 88  1  0  0  0  0
 88 89  1  0  0  0  0
 89 90  1  0  0  0  0
 87 91  2  0  0  0  0
 82 92  1  0  0  0  0
 92 93  2  0  0  0  0
 93 94  1  0  0  0  0
 94 95  1  0  0  0  0
 95 96  2  0  0  0  0
 96 97  1  0  0  0  0
 97 98  2  0  0  0  0
 98 99  1  0  0  0  0
 99100  1  0  0  0  0
100101  1  0  0  0  0
101102  1  0  0  0  0
 99103  2  0  0  0  0
 94104  2  0  0  0  0
104105  1  0  0  0  0
 93106  1  0  0  0  0
106107  2  0  0  0  0
107108  1  0  0  0  0
107109  1  0  0  0  0
109110  2  0  0  0  0
110111  1  0  0  0  0
111112  2  0  0  0  0
111113  1  0  0  0  0
113114  2  0  0  0  0
114115  1  0  0  0  0
115116  2  0  0  0  0
116117  1  0  0  0  0
117118  2  0  0  0  0
118119  1  0  0  0  0
119120  2  0  0  0  0
120121  1  0  0  0  0
121122  3  0  0  0  0
120123  1  0  0  0  0
123124  3  0  0  0  0
116125  1  0  0  0  0
125126  1  0  0  0  0
126127  1  0  0  0  0
127128  2  0  0  0  0
128129  1  0  0  0  0
129130  1  0  0  0  0
129131  1  0  0  0  0
 11  2  1  0  0  0  0
 23 17  1  0  0  0  0
 33 24  1  0  0  0  0
 78 37  1  0  0  0  0
105 79  1  0  0  0  0
119110  1  0  0  0  0
131125  1  0  0  0  0
 10  5  1  0  0  0  0
 22 18  1  0  0  0  0
 36 32  2  0  0  0  0
 47 40  1  0  0  0  0
 55 48  1  0  0  0  0
 77 56  2  0  0  0  0
104 81  1  0  0  0  0
118113  1  0  0  0  0
130126  1  0  0  0  0
 23  7  1  0  0  0  0
 68 61  1  0  0  0  0
 76 69  1  0  0  0  0
 91 83  1  0  0  0  0
108 92  1  0  0  0  0
131115  1  0  0  0  0
103 95  1  0  0  0  0
  1132  1  0  0  0  0
  6133  1  0  0  0  0
  9134  1  0  0  0  0
 17135  1  0  0  0  0
 18136  1  0  0  0  0
 19137  1  0  0  0  0
 20138  1  0  0  0  0
 21139  1  0  0  0  0
 22140  1  0  0  0  0
 22141  1  0  0  0  0
 23142  1  0  0  0  0
 41143  1  0  0  0  0
 42144  1  0  0  0  0
 45145  1  0  0  0  0
 45146  1  0  0  0  0
 45147  1  0  0  0  0
 46148  1  0  0  0  0
 47149  1  0  0  0  0
 49150  1  0  0  0  0
 50151  1  0  0  0  0
 53152  1  0  0  0  0
 53153  1  0  0  0  0
 53154  1  0  0  0  0
 54155  1  0  0  0  0
 55156  1  0  0  0  0
 62157  1  0  0  0  0
 63158  1  0  0  0  0
 66159  1  0  0  0  0
 66160  1  0  0  0  0
 66161  1  0  0  0  0
 67162  1  0  0  0  0
 68163  1  0  0  0  0
 70164  1  0  0  0  0
 71165  1  0  0  0  0
 74166  1  0  0  0  0
 74167  1  0  0  0  0
 74168  1  0  0  0  0
 75169  1  0  0  0  0
 76170  1  0  0  0  0
 80171  1  0  0  0  0
 84172  1  0  0  0  0
 85173  1  0  0  0  0
 86174  1  0  0  0  0
 89175  1  0  0  0  0
 89176  1  0  0  0  0
 90177  1  0  0  0  0
 90178  1  0  0  0  0
 90179  1  0  0  0  0
 91180  1  0  0  0  0
 96181  1  0  0  0  0
 97182  1  0  0  0  0
 98183  1  0  0  0  0
101184  1  0  0  0  0
101185  1  0  0  0  0
102186  1  0  0  0  0
102187  1  0  0  0  0
102188  1  0  0  0  0
103189  1  0  0  0  0
106190  1  0  0  0  0
109191  1  0  0  0  0
114192  1  0  0  0  0
117193  1  0  0  0  0
125194  1  0  0  0  0
126195  1  0  0  0  0
127196  1  0  0  0  0
128197  1  0  0  0  0
129198  1  0  0  0  0
130199  1  0  0  0  0
130200  1  0  0  0  0
131201  1  0  0  0  0
M  END
