146

C          7.10080       -0.50850        2.49710
C          7.21090       -1.33790        3.55670
C          6.09690       -1.86360        4.40190
O          4.91100       -1.83680        4.16810
C          6.75130       -2.48150        5.56950
C          6.12440       -3.00050        6.70070
C          6.99240       -3.47600        7.65340
C          8.38610       -3.43590        7.49880
C          9.01830       -2.94030        6.38510
C          8.15060       -2.46030        5.39730
C          8.44980       -1.89050        4.09170
C          9.65110       -1.96640        3.44160
C          9.87060       -1.55890        2.10910
N         10.10430       -1.29360        1.01620
C         10.81430       -2.55160        3.98610
N         11.79310       -3.01520        4.36590
C          8.63410       -4.06140        8.84850
C          9.02900       -5.55320        8.85460
C          8.73460       -5.99910       10.26870
C          7.41610       -6.04280       10.41170
C          6.79700       -5.62710        9.09680
C          7.84050       -6.19100        8.12370
C          7.08170       -4.11170        9.01830
C          5.86460        0.02410        1.97180
C          4.81300        0.50800        2.75700
F          5.02330        0.75970        4.06090
C          3.57520        0.78470        2.22540
C          3.34980        0.58670        0.86220
C          4.44410        0.29700        0.03760
C          5.67430        0.02620        0.58580
C          2.01360        0.64310        0.31910
C          1.46410       -0.18040       -0.65230
N          2.08160       -1.27430       -1.23470
C          3.01700       -2.04080       -0.52170
C          4.16110       -2.51590       -1.15760
C          5.14610       -3.17170       -0.44480
C          5.00220       -3.36280        0.92190
S          6.23150       -4.10930        1.94850
C          7.68400       -4.24150        0.86420
C          3.82720       -2.95420        1.55050
C          2.84660       -2.30320        0.83800
C          1.75160       -1.62370       -2.55190
C          1.62970       -2.96490       -2.91700
C          1.27400       -3.30280       -4.20240
C          1.02500       -2.31340       -5.15280
S          0.55460       -2.86450       -6.76230
C         -0.04880       -1.35580       -7.57270
C          1.16900       -0.97890       -4.80130
C          1.53340       -0.63990       -3.51250
C          0.12180        0.19540       -0.92360
S         -1.09940       -0.41000       -1.98320
C         -2.23570        0.80390       -1.40170
C         -1.70390        1.58990       -0.37970
N         -2.37720        2.51860        0.37160
C         -1.66810        3.59810        0.92160
C         -0.71110        4.27350        0.17010
C          0.00920        5.31750        0.71810
C         -0.22370        5.70680        2.02980
S          0.63580        7.01420        2.84380
C          1.93550        7.48250        1.66600
C         -1.20090        5.04950        2.77720
C         -1.91480        4.00730        2.23240
C         -3.75510        2.41420        0.62500
C         -4.54900        3.56170        0.64110
C         -5.90640        3.45880        0.82480
C         -6.50670        2.21250        1.00620
S         -8.26180        2.20360        1.15390
C         -8.69740        0.44370        1.14520
C         -5.71140        1.07560        1.05760
C         -4.34570        1.17940        0.87640
C         -0.34580        1.24280       -0.14810
S          0.85910        1.79740        0.96040
C         -3.52160        0.89990       -2.01440
C         -4.07590       -0.14220       -2.78340
C         -5.36590        0.00520       -3.21950
C         -6.03330        1.20470       -2.90180
N         -5.40340        2.18520       -2.24930
N         -4.20310        2.04170       -1.83240
C         -7.41470        1.44040       -3.25230
C         -7.95240        1.22290       -4.47460
C         -7.16890        0.99750       -5.72620
O         -6.00880        0.66640       -5.83030
C         -8.10110        1.32200       -6.82000
C         -7.85830        1.37710       -8.17980
C         -8.90210        1.72400       -9.02190
C        -10.17090        2.01850       -8.52400
C        -11.26850        2.42430       -9.45460
C        -10.41040        1.95700       -7.15230
C         -9.37780        1.60540       -6.30020
C         -9.33880        1.44660       -4.85240
C        -10.41220        1.38780       -4.00720
C        -11.74870        1.57810       -4.41520
N        -12.85050        1.72850       -4.69920
C        -10.31070        1.03850       -2.64370
N        -10.29480        0.70090       -1.54690
H          7.98760       -0.25890        1.92790
H          5.04930       -2.99900        6.78650
H         10.09030       -2.90660        6.28130
H          9.21540       -3.46360        9.54790
H         10.02430       -5.76180        8.47190
H          9.49010       -6.17700       11.01130
H          6.85060       -6.26450       11.29770
H          5.75900       -5.90450        8.93500
H          7.71750       -5.85370        7.09620
H          7.87920       -7.27870        8.14750
H          6.62720       -3.55120        9.83320
H          2.77660        1.10590        2.87600
H          4.31510        0.27690       -1.03290
H          6.50040       -0.25110       -0.05190
H          4.29230       -2.34830       -2.21660
H          6.02740       -3.50820       -0.96630
H          7.48930       -4.94440        0.05980
H          8.48490       -4.62200        1.49110
H          7.95190       -3.26180        0.47880
H          3.70600       -3.12800        2.60730
H          1.94760       -1.97780        1.33860
H          1.80390       -3.73450       -2.18020
H          1.16910       -4.33890       -4.48500
H         -0.49700       -1.68420       -8.50530
H         -0.79930       -0.88090       -6.94800
H          0.77780       -0.68250       -7.78130
H          1.00720       -0.19200       -5.52010
H          1.65330        0.40120       -3.24940
H         -0.53770        3.98330       -0.85570
H          0.74130        5.82070        0.10780
H          2.54270        6.61510        1.42440
H          2.53930        8.22520        2.17810
H          1.49470        7.91960        0.77470
H         -1.38160        5.36310        3.79370
H         -2.66310        3.49510        2.81800
H         -4.09570        4.52460        0.46620
H         -6.52900        4.33950        0.80610
H         -9.78060        0.41470        1.09300
H         -8.28320       -0.03080        0.26110
H         -8.35130       -0.03410        2.05750
H         -6.14110        0.10220        1.23370
H         -3.73570        0.28770        0.90770
H         -3.50250       -1.03530       -2.98300
H         -5.87730       -0.77900       -3.75350
H         -8.01640        1.89050       -2.47170
H         -6.87510        1.15170       -8.56340
H         -8.73410        1.77070      -10.08800
H        -11.21810        3.49870       -9.63450
H        -11.17290        1.92020      -10.41340
H        -12.24280        2.20070       -9.02780
H        -11.39210        2.19160       -6.77190
