
  xtb     02052209173D
 energy: -297.199474073965 gnorm: 0.000556374006 xtb: 6.4.1 (unknown)
176196  0     0  0            999 V2000
   -6.1923    1.1904   -3.7243 C   0  0  0  0  0  0  0  0  0  0  0  0
   -5.9156    2.1539   -4.6646 C   0  0  0  0  0  0  0  0  0  0  0  0
   -4.5728    2.6103   -5.0331 C   0  0  0  0  0  0  0  0  0  0  0  0
   -3.5074    2.2124   -4.5895 O   0  0  0  0  0  0  0  0  0  0  0  0
   -4.7500    3.6145   -6.0918 C   0  0  0  0  0  0  0  0  0  0  0  0
   -3.7500    4.3343   -6.7395 C   0  0  0  0  0  0  0  0  0  0  0  0
   -4.2189    5.2104   -7.6885 C   0  0  0  0  0  0  0  0  0  0  0  0
   -5.5826    5.3572   -7.9726 C   0  0  0  0  0  0  0  0  0  0  0  0
   -6.5796    4.6568   -7.3348 C   0  0  0  0  0  0  0  0  0  0  0  0
   -6.1245    3.7607   -6.3652 C   0  0  0  0  0  0  0  0  0  0  0  0
   -6.8721    2.8719   -5.4759 C   0  0  0  0  0  0  0  0  0  0  0  0
   -8.2414    2.8079   -5.3878 C   0  0  0  0  0  0  0  0  0  0  0  0
   -8.9618    2.0332   -4.4579 C   0  0  0  0  0  0  0  0  0  0  0  0
   -9.6204    1.4579   -3.7110 N   0  0  0  0  0  0  0  0  0  0  0  0
   -9.1317    3.5499   -6.1891 C   0  0  0  0  0  0  0  0  0  0  0  0
   -9.9236    4.1158   -6.7993 N   0  0  0  0  0  0  0  0  0  0  0  0
   -5.3300    6.3914   -9.0410 C   0  0  0  0  0  0  0  0  0  0  0  0
   -5.4191    5.9384  -10.5194 C   0  0  0  0  0  0  0  0  0  0  0  0
   -5.0978    4.4647  -10.5373 C   0  0  0  0  0  0  0  0  0  0  0  0
   -3.8068    4.3281  -10.2660 C   0  0  0  0  0  0  0  0  0  0  0  0
   -3.2316    5.7076  -10.0599 C   0  0  0  0  0  0  0  0  0  0  0  0
   -4.0935    6.5105  -11.0470 C   0  0  0  0  0  0  0  0  0  0  0  0
   -3.8102    6.2302   -8.7217 C   0  0  0  0  0  0  0  0  0  0  0  0
   -5.3469    0.6425   -2.7523 C   0  0  0  0  0  0  0  0  0  0  0  0
   -5.7929   -0.2199   -1.7462 C   0  0  0  0  0  0  0  0  0  0  0  0
   -4.8854   -0.4245   -0.7211 C   0  0  0  0  0  0  0  0  0  0  0  0
   -5.1563   -1.2756    0.4546 C   0  0  0  0  0  0  0  0  0  0  0  0
   -4.8881   -2.6451    0.3826 C   0  0  0  0  0  0  0  0  0  0  0  0
   -5.1878   -3.4473    1.4712 C   0  0  0  0  0  0  0  0  0  0  0  0
   -5.7364   -2.9194    2.6303 C   0  0  0  0  0  0  0  0  0  0  0  0
   -6.0443   -3.7951    3.8077 C   0  0  0  0  0  0  0  0  0  0  0  0
   -5.9850   -1.5563    2.6869 C   0  0  0  0  0  0  0  0  0  0  0  0
   -5.7092   -0.7261    1.6121 C   0  0  0  0  0  0  0  0  0  0  0  0
   -5.9796    0.7456    1.7072 C   0  0  0  0  0  0  0  0  0  0  0  0
   -4.2799   -3.2317   -0.8541 C   0  0  0  0  0  0  0  0  0  0  0  0
   -3.7130    0.3173   -0.9105 C   0  0  0  0  0  0  0  0  0  0  0  0
   -3.6953    1.1102   -2.4546 S   0  0  0  0  0  0  0  0  0  0  0  0
   -2.6416    0.4579    0.0034 C   0  0  0  0  0  0  0  0  0  0  0  0
   -1.6941    1.4826    0.1072 C   0  0  0  0  0  0  0  0  0  0  0  0
   -1.6001    2.6571   -0.6215 N   0  0  0  0  0  0  0  0  0  0  0  0
   -0.2905    3.1541   -0.7997 C   0  0  0  0  0  0  0  0  0  0  0  0
    0.7065    2.3130   -1.2877 C   0  0  0  0  0  0  0  0  0  0  0  0
    2.0319    2.6997   -1.2578 C   0  0  0  0  0  0  0  0  0  0  0  0
    2.3704    3.9432   -0.7409 C   0  0  0  0  0  0  0  0  0  0  0  0
    4.0331    4.4804   -0.4886 S   0  0  0  0  0  0  0  0  0  0  0  0
    5.0258    2.9842   -0.7400 C   0  0  0  0  0  0  0  0  0  0  0  0
    1.3652    4.8315   -0.3610 C   0  0  0  0  0  0  0  0  0  0  0  0
    0.0442    4.4443   -0.3916 C   0  0  0  0  0  0  0  0  0  0  0  0
   -2.6927    3.3933   -1.0671 C   0  0  0  0  0  0  0  0  0  0  0  0
   -2.5817    4.1665   -2.2267 C   0  0  0  0  0  0  0  0  0  0  0  0
   -3.6950    4.7613   -2.7708 C   0  0  0  0  0  0  0  0  0  0  0  0
   -4.9464    4.5980   -2.1785 C   0  0  0  0  0  0  0  0  0  0  0  0
   -6.3299    5.2523   -3.0602 S   0  0  0  0  0  0  0  0  0  0  0  0
   -7.7594    4.5186   -2.2162 C   0  0  0  0  0  0  0  0  0  0  0  0
   -5.0442    3.9241   -0.9689 C   0  0  0  0  0  0  0  0  0  0  0  0
   -3.9234    3.3385   -0.4148 C   0  0  0  0  0  0  0  0  0  0  0  0
   -0.7290    1.1688    1.0911 C   0  0  0  0  0  0  0  0  0  0  0  0
    0.6628    2.0066    1.6886 S   0  0  0  0  0  0  0  0  0  0  0  0
    1.1307    0.5885    2.6162 C   0  0  0  0  0  0  0  0  0  0  0  0
    0.1086   -0.3805    2.6475 C   0  0  0  0  0  0  0  0  0  0  0  0
    0.0409   -1.4659    3.4827 N   0  0  0  0  0  0  0  0  0  0  0  0
    0.5872   -1.4431    4.7668 C   0  0  0  0  0  0  0  0  0  0  0  0
    1.0242   -2.6268    5.3695 C   0  0  0  0  0  0  0  0  0  0  0  0
    1.5784   -2.6055    6.6271 C   0  0  0  0  0  0  0  0  0  0  0  0
    1.7118   -1.4052    7.3260 C   0  0  0  0  0  0  0  0  0  0  0  0
    2.4510   -1.5037    8.9219 S   0  0  0  0  0  0  0  0  0  0  0  0
    2.5713    0.2253    9.4613 C   0  0  0  0  0  0  0  0  0  0  0  0
    1.2562   -0.2296    6.7431 C   0  0  0  0  0  0  0  0  0  0  0  0
    0.6960   -0.2521    5.4816 C   0  0  0  0  0  0  0  0  0  0  0  0
   -0.6279   -2.6132    3.0219 C   0  0  0  0  0  0  0  0  0  0  0  0
   -0.3886   -3.0853    1.7311 C   0  0  0  0  0  0  0  0  0  0  0  0
   -1.0522   -4.1975    1.2667 C   0  0  0  0  0  0  0  0  0  0  0  0
   -1.9619   -4.8672    2.0829 C   0  0  0  0  0  0  0  0  0  0  0  0
   -2.7526   -6.2796    1.3861 S   0  0  0  0  0  0  0  0  0  0  0  0
   -3.5436   -7.0819    2.8109 C   0  0  0  0  0  0  0  0  0  0  0  0
   -2.2011   -4.4010    3.3690 C   0  0  0  0  0  0  0  0  0  0  0  0
   -1.5405   -3.2809    3.8322 C   0  0  0  0  0  0  0  0  0  0  0  0
   -0.9139   -0.0476    1.7293 C   0  0  0  0  0  0  0  0  0  0  0  0
   -2.3674   -0.8213    1.1931 S   0  0  0  0  0  0  0  0  0  0  0  0
    2.4926    0.5205    2.9822 C   0  0  0  0  0  0  0  0  0  0  0  0
    3.2330   -0.6681    3.1918 C   0  0  0  0  0  0  0  0  0  0  0  0
    4.6834   -0.6764    3.2350 C   0  0  0  0  0  0  0  0  0  0  0  0
    5.1591   -1.9126    3.3775 N   0  0  0  0  0  0  0  0  0  0  0  0
    3.9345   -2.9569    3.4176 S   0  0  0  0  0  4  0  0  0  0  0  0
    2.7339   -1.8993    3.2640 N   0  0  0  0  0  0  0  0  0  0  0  0
    5.4701    0.4925    3.1034 C   0  0  0  0  0  0  0  0  0  0  0  0
    4.7248    1.6851    2.9955 C   0  0  0  0  0  0  0  0  0  0  0  0
    5.2292    2.9119    2.8260 N   0  0  0  0  0  0  0  0  0  0  0  0
    4.0306    3.9490    2.5786 S   0  0  0  0  0  0  0  0  0  0  0  0
    2.8074    2.9130    2.6818 N   0  0  0  0  0  0  0  0  0  0  0  0
    3.2886    1.6870    2.9066 C   0  0  0  0  0  0  0  0  0  0  0  0
    6.8847    0.5228    3.0422 C   0  0  0  0  0  0  0  0  0  0  0  0
    7.7376   -0.4603    2.6305 C   0  0  0  0  0  0  0  0  0  0  0  0
    9.1695   -0.4315    3.0187 C   0  0  0  0  0  0  0  0  0  0  0  0
    9.7725    0.4899    3.5236 O   0  0  0  0  0  0  0  0  0  0  0  0
    9.6879   -1.7796    2.6987 C   0  0  0  0  0  0  0  0  0  0  0  0
   10.9544   -2.2871    2.9784 C   0  0  0  0  0  0  0  0  0  0  0  0
   11.1384   -3.5887    2.5753 C   0  0  0  0  0  0  0  0  0  0  0  0
   10.1336   -4.3391    1.9512 C   0  0  0  0  0  0  0  0  0  0  0  0
    8.8807   -3.8510    1.6647 C   0  0  0  0  0  0  0  0  0  0  0  0
    8.6787   -2.5249    2.0546 C   0  0  0  0  0  0  0  0  0  0  0  0
    7.5104   -1.6663    1.8797 C   0  0  0  0  0  0  0  0  0  0  0  0
    6.5002   -1.8768    0.9707 C   0  0  0  0  0  0  0  0  0  0  0  0
    5.5556   -0.9022    0.6070 C   0  0  0  0  0  0  0  0  0  0  0  0
    4.7811   -0.1406    0.2277 N   0  0  0  0  0  0  0  0  0  0  0  0
    6.3253   -3.0620    0.2326 C   0  0  0  0  0  0  0  0  0  0  0  0
    6.1060   -4.0096   -0.3792 N   0  0  0  0  0  0  0  0  0  0  0  0
   11.0099   -5.5611    1.8289 C   0  0  0  0  0  0  0  0  0  0  0  0
   11.6023   -5.8448    0.4324 C   0  0  0  0  0  0  0  0  0  0  0  0
   12.7627   -6.7720    0.7125 C   0  0  0  0  0  0  0  0  0  0  0  0
   13.7165   -6.0589    1.2977 C   0  0  0  0  0  0  0  0  0  0  0  0
   13.2166   -4.6378    1.4230 C   0  0  0  0  0  0  0  0  0  0  0  0
   12.3657   -4.5445    0.1499 C   0  0  0  0  0  0  0  0  0  0  0  0
   12.1330   -4.7223    2.5190 C   0  0  0  0  0  0  0  0  0  0  0  0
   -7.2140    0.8348   -3.6588 H   0  0  0  0  0  0  0  0  0  0  0  0
   -2.7110    4.1894   -6.4870 H   0  0  0  0  0  0  0  0  0  0  0  0
   -7.6238    4.7857   -7.5647 H   0  0  0  0  0  0  0  0  0  0  0  0
   -5.7851    7.3663   -8.8778 H   0  0  0  0  0  0  0  0  0  0  0  0
   -6.3316    6.2368  -11.0285 H   0  0  0  0  0  0  0  0  0  0  0  0
   -5.8316    3.6937  -10.6834 H   0  0  0  0  0  0  0  0  0  0  0  0
   -3.2464    3.4203  -10.1397 H   0  0  0  0  0  0  0  0  0  0  0  0
   -2.1520    5.7961  -10.1508 H   0  0  0  0  0  0  0  0  0  0  0  0
   -3.9033    6.2443  -12.0856 H   0  0  0  0  0  0  0  0  0  0  0  0
   -4.0061    7.5889  -10.9216 H   0  0  0  0  0  0  0  0  0  0  0  0
   -3.2733    7.1004   -8.3487 H   0  0  0  0  0  0  0  0  0  0  0  0
   -6.7846   -0.6394   -1.7507 H   0  0  0  0  0  0  0  0  0  0  0  0
   -4.9959   -4.5078    1.4039 H   0  0  0  0  0  0  0  0  0  0  0  0
   -6.9237   -3.4359    4.3376 H   0  0  0  0  0  0  0  0  0  0  0  0
   -5.2071   -3.7878    4.5070 H   0  0  0  0  0  0  0  0  0  0  0  0
   -6.2229   -4.8211    3.4927 H   0  0  0  0  0  0  0  0  0  0  0  0
   -6.4125   -1.1314    3.5845 H   0  0  0  0  0  0  0  0  0  0  0  0
   -6.7270    0.9513    2.4696 H   0  0  0  0  0  0  0  0  0  0  0  0
   -6.3249    1.1424    0.7547 H   0  0  0  0  0  0  0  0  0  0  0  0
   -5.0638    1.2715    1.9816 H   0  0  0  0  0  0  0  0  0  0  0  0
   -4.0697   -4.2887   -0.7143 H   0  0  0  0  0  0  0  0  0  0  0  0
   -3.3487   -2.7205   -1.0952 H   0  0  0  0  0  0  0  0  0  0  0  0
   -4.9515   -3.1164   -1.7042 H   0  0  0  0  0  0  0  0  0  0  0  0
    0.4401    1.3311   -1.6498 H   0  0  0  0  0  0  0  0  0  0  0  0
    2.7872    2.0151   -1.6071 H   0  0  0  0  0  0  0  0  0  0  0  0
    6.0199    3.2279   -0.3764 H   0  0  0  0  0  0  0  0  0  0  0  0
    5.0707    2.7419   -1.7977 H   0  0  0  0  0  0  0  0  0  0  0  0
    4.6208    2.1534   -0.1688 H   0  0  0  0  0  0  0  0  0  0  0  0
    1.6389    5.8108   -0.0003 H   0  0  0  0  0  0  0  0  0  0  0  0
   -0.7310    5.1151   -0.0532 H   0  0  0  0  0  0  0  0  0  0  0  0
   -1.6277    4.2475   -2.7233 H   0  0  0  0  0  0  0  0  0  0  0  0
   -3.6198    5.3247   -3.6884 H   0  0  0  0  0  0  0  0  0  0  0  0
   -7.6475    3.4384   -2.1737 H   0  0  0  0  0  0  0  0  0  0  0  0
   -8.6244    4.7771   -2.8197 H   0  0  0  0  0  0  0  0  0  0  0  0
   -7.8701    4.9435   -1.2230 H   0  0  0  0  0  0  0  0  0  0  0  0
   -5.9877    3.8348   -0.4546 H   0  0  0  0  0  0  0  0  0  0  0  0
   -4.0100    2.8007    0.5167 H   0  0  0  0  0  0  0  0  0  0  0  0
    0.9528   -3.5566    4.8274 H   0  0  0  0  0  0  0  0  0  0  0  0
    1.9290   -3.5182    7.0842 H   0  0  0  0  0  0  0  0  0  0  0  0
    3.1643    0.7937    8.7510 H   0  0  0  0  0  0  0  0  0  0  0  0
    1.5789    0.6502    9.5802 H   0  0  0  0  0  0  0  0  0  0  0  0
    3.0755    0.1958   10.4222 H   0  0  0  0  0  0  0  0  0  0  0  0
    1.3232    0.7127    7.2625 H   0  0  0  0  0  0  0  0  0  0  0  0
    0.3345    0.6701    5.0525 H   0  0  0  0  0  0  0  0  0  0  0  0
    0.3354   -2.5815    1.1090 H   0  0  0  0  0  0  0  0  0  0  0  0
   -0.8663   -4.5690    0.2710 H   0  0  0  0  0  0  0  0  0  0  0  0
   -4.3589   -6.4705    3.1864 H   0  0  0  0  0  0  0  0  0  0  0  0
   -2.8031   -7.2679    3.5828 H   0  0  0  0  0  0  0  0  0  0  0  0
   -3.9333   -8.0238    2.4374 H   0  0  0  0  0  0  0  0  0  0  0  0
   -2.9053   -4.8961    4.0171 H   0  0  0  0  0  0  0  0  0  0  0  0
   -1.7367   -2.9145    4.8290 H   0  0  0  0  0  0  0  0  0  0  0  0
    7.3476    1.4389    3.3942 H   0  0  0  0  0  0  0  0  0  0  0  0
   11.6994   -1.6804    3.4690 H   0  0  0  0  0  0  0  0  0  0  0  0
    8.1101   -4.4381    1.1927 H   0  0  0  0  0  0  0  0  0  0  0  0
   10.6486   -6.4579    2.3289 H   0  0  0  0  0  0  0  0  0  0  0  0
   10.8800   -6.1734   -0.3099 H   0  0  0  0  0  0  0  0  0  0  0  0
   12.7490   -7.8277    0.5140 H   0  0  0  0  0  0  0  0  0  0  0  0
   14.6585   -6.4001    1.6856 H   0  0  0  0  0  0  0  0  0  0  0  0
   13.9667   -3.8676    1.5820 H   0  0  0  0  0  0  0  0  0  0  0  0
   12.9691   -4.6094   -0.7541 H   0  0  0  0  0  0  0  0  0  0  0  0
   11.7329   -3.6603    0.1026 H   0  0  0  0  0  0  0  0  0  0  0  0
   12.5230   -5.0618    3.4770 H   0  0  0  0  0  0  0  0  0  0  0  0
  1  2  2  0  0  0  0
  2  3  1  0  0  0  0
  3  4  2  0  0  0  0
  3  5  1  0  0  0  0
  5  6  2  0  0  0  0
  6  7  1  0  0  0  0
  7  8  2  0  0  0  0
  8  9  1  0  0  0  0
  9 10  2  0  0  0  0
 10 11  1  0  0  0  0
 11 12  2  0  0  0  0
 12 13  1  0  0  0  0
 13 14  3  0  0  0  0
 12 15  1  0  0  0  0
 15 16  3  0  0  0  0
  8 17  1  0  0  0  0
 17 18  1  0  0  0  0
 18 19  1  0  0  0  0
 19 20  2  0  0  0  0
 20 21  1  0  0  0  0
 21 22  1  0  0  0  0
 21 23  1  0  0  0  0
  1 24  1  0  0  0  0
 24 25  2  0  0  0  0
 25 26  1  0  0  0  0
 26 27  1  0  0  0  0
 27 28  2  0  0  0  0
 28 29  1  0  0  0  0
 29 30  2  0  0  0  0
 30 31  1  0  0  0  0
 30 32  1  0  0  0  0
 32 33  2  0  0  0  0
 33 34  1  0  0  0  0
 28 35  1  0  0  0  0
 26 36  2  0  0  0  0
 36 37  1  0  0  0  0
 36 38  1  0  0  0  0
 38 39  2  0  0  0  0
 39 40  1  0  0  0  0
 40 41  1  0  0  0  0
 41 42  2  0  0  0  0
 42 43  1  0  0  0  0
 43 44  2  0  0  0  0
 44 45  1  0  0  0  0
 45 46  1  0  0  0  0
 44 47  1  0  0  0  0
 47 48  2  0  0  0  0
 40 49  1  0  0  0  0
 49 50  2  0  0  0  0
 50 51  1  0  0  0  0
 51 52  2  0  0  0  0
 52 53  1  0  0  0  0
 53 54  1  0  0  0  0
 52 55  1  0  0  0  0
 55 56  2  0  0  0  0
 39 57  1  0  0  0  0
 57 58  1  0  0  0  0
 58 59  1  0  0  0  0
 59 60  2  0  0  0  0
 60 61  1  0  0  0  0
 61 62  1  0  0  0  0
 62 63  2  0  0  0  0
 63 64  1  0  0  0  0
 64 65  2  0  0  0  0
 65 66  1  0  0  0  0
 66 67  1  0  0  0  0
 65 68  1  0  0  0  0
 68 69  2  0  0  0  0
 61 70  1  0  0  0  0
 70 71  2  0  0  0  0
 71 72  1  0  0  0  0
 72 73  2  0  0  0  0
 73 74  1  0  0  0  0
 74 75  1  0  0  0  0
 73 76  1  0  0  0  0
 76 77  2  0  0  0  0
 60 78  1  0  0  0  0
 78 79  1  0  0  0  0
 59 80  1  0  0  0  0
 80 81  2  0  0  0  0
 81 82  1  0  0  0  0
 82 83  1  0  0  0  0
 83 84  2  0  0  0  0
 84 85  2  0  0  0  0
 82 86  2  0  0  0  0
 86 87  1  0  0  0  0
 87 88  2  0  0  0  0
 88 89  1  0  0  0  0
 89 90  1  0  0  0  0
 90 91  2  0  0  0  0
 86 92  1  0  0  0  0
 92 93  2  0  0  0  0
 93 94  1  0  0  0  0
 94 95  2  0  0  0  0
 94 96  1  0  0  0  0
 96 97  2  0  0  0  0
 97 98  1  0  0  0  0
 98 99  2  0  0  0  0
 99100  1  0  0  0  0
100101  2  0  0  0  0
101102  1  0  0  0  0
102103  2  0  0  0  0
103104  1  0  0  0  0
104105  3  0  0  0  0
103106  1  0  0  0  0
106107  3  0  0  0  0
 99108  1  0  0  0  0
108109  1  0  0  0  0
109110  1  0  0  0  0
110111  2  0  0  0  0
111112  1  0  0  0  0
112113  1  0  0  0  0
112114  1  0  0  0  0
 11  2  1  0  0  0  0
 23 17  1  0  0  0  0
 37 24  1  0  0  0  0
 79 38  1  0  0  0  0
 91 80  1  0  0  0  0
102 93  1  0  0  0  0
114108  1  0  0  0  0
 10  5  1  0  0  0  0
 22 18  1  0  0  0  0
 33 27  1  0  0  0  0
 48 41  1  0  0  0  0
 56 49  1  0  0  0  0
 78 57  2  0  0  0  0
 85 81  1  0  0  0  0
 91 87  1  0  0  0  0
101 96  1  0  0  0  0
113109  1  0  0  0  0
 23  7  1  0  0  0  0
 69 62  1  0  0  0  0
 77 70  1  0  0  0  0
114 98  1  0  0  0  0
  1115  1  0  0  0  0
  6116  1  0  0  0  0
  9117  1  0  0  0  0
 17118  1  0  0  0  0
 18119  1  0  0  0  0
 19120  1  0  0  0  0
 20121  1  0  0  0  0
 21122  1  0  0  0  0
 22123  1  0  0  0  0
 22124  1  0  0  0  0
 23125  1  0  0  0  0
 25126  1  0  0  0  0
 29127  1  0  0  0  0
 31128  1  0  0  0  0
 31129  1  0  0  0  0
 31130  1  0  0  0  0
 32131  1  0  0  0  0
 34132  1  0  0  0  0
 34133  1  0  0  0  0
 34134  1  0  0  0  0
 35135  1  0  0  0  0
 35136  1  0  0  0  0
 35137  1  0  0  0  0
 42138  1  0  0  0  0
 43139  1  0  0  0  0
 46140  1  0  0  0  0
 46141  1  0  0  0  0
 46142  1  0  0  0  0
 47143  1  0  0  0  0
 48144  1  0  0  0  0
 50145  1  0  0  0  0
 51146  1  0  0  0  0
 54147  1  0  0  0  0
 54148  1  0  0  0  0
 54149  1  0  0  0  0
 55150  1  0  0  0  0
 56151  1  0  0  0  0
 63152  1  0  0  0  0
 64153  1  0  0  0  0
 67154  1  0  0  0  0
 67155  1  0  0  0  0
 67156  1  0  0  0  0
 68157  1  0  0  0  0
 69158  1  0  0  0  0
 71159  1  0  0  0  0
 72160  1  0  0  0  0
 75161  1  0  0  0  0
 75162  1  0  0  0  0
 75163  1  0  0  0  0
 76164  1  0  0  0  0
 77165  1  0  0  0  0
 92166  1  0  0  0  0
 97167  1  0  0  0  0
100168  1  0  0  0  0
108169  1  0  0  0  0
109170  1  0  0  0  0
110171  1  0  0  0  0
111172  1  0  0  0  0
112173  1  0  0  0  0
113174  1  0  0  0  0
113175  1  0  0  0  0
114176  1  0  0  0  0
M  END
