149

C         -0.98850        4.68810       -5.69730
C         -1.29570        5.82440       -5.03240
C         -1.15780        6.04020       -3.56120
O         -0.83780        5.23510       -2.71590
C         -1.53250        7.44600       -3.33030
C         -1.50500        8.12190       -2.11250
C         -1.87890        9.44070       -2.19640
C         -2.25560       10.04660       -3.40390
C         -2.30400        9.38830       -4.60810
C         -1.93010        8.04040       -4.54440
C         -1.88790        7.03250       -5.59510
C         -2.40230        7.17660       -6.85570
C         -2.48610        6.15580       -7.82570
N         -2.62850        5.37090       -8.65250
C         -3.00230        8.35670       -7.34520
N         -3.50910        9.27490       -7.81180
C         -2.48100       11.38840       -2.75240
C         -1.37700       12.44790       -2.95630
C         -1.62380       13.44510       -1.84730
C         -1.27250       12.87170       -0.70350
C         -0.78210       11.47740       -1.02010
C         -0.14510       11.72720       -2.39330
C         -2.06560       10.71190       -1.40660
C         -0.44680        3.49680       -5.08320
C          0.58070        3.49800       -4.13340
F          1.33370        4.60090       -3.97960
C          0.87690        2.38620       -3.38080
C          0.13830        1.21520       -3.56180
C         -0.74280        1.14070       -4.64740
C         -1.02110        2.26020       -5.39440
C          0.23200        0.13210       -2.61160
C         -0.81180       -0.63700       -2.12410
N         -2.15160       -0.49630       -2.46000
C         -2.69930        0.77780       -2.66160
C         -2.28940        1.85950       -1.88180
C         -2.75610        3.12700       -2.14470
C         -3.63700        3.34660       -3.20110
S         -4.11350        5.02220       -3.50720
C         -4.86640        4.95690       -5.16020
C         -4.09850        2.26760       -3.94140
C         -3.63390        0.99540       -3.67160
C         -2.94440       -1.64500       -2.56100
C         -2.40250       -2.83220       -3.04710
C         -3.16860       -3.97850       -3.13300
C         -4.49950       -3.95410       -2.74200
S         -5.58190       -5.34670       -2.81780
C         -4.48510       -6.72770       -3.24940
C         -5.05010       -2.76460       -2.26650
C         -4.28450       -1.62570       -2.17120
C         -0.35220       -1.55200       -1.14190
S         -1.13450       -2.69300       -0.10890
C          0.39230       -3.05570        0.67390
C          1.44160       -2.30070        0.17900
N          2.73380       -2.28590        0.68170
C          3.80480       -2.11840       -0.20240
C          3.75370       -2.65980       -1.48440
C          4.79580       -2.47800       -2.37290
C          5.91630       -1.75590       -1.98930
S          7.31240       -1.46520       -3.03120
C          6.75940       -2.03340       -4.66450
C          5.98020       -1.22660       -0.70110
C          4.93870       -1.40020        0.18090
C          2.95280       -2.45050        2.05740
C          4.01540       -3.22220        2.51680
C          4.17320       -3.47830        3.86430
C          3.25960       -2.97180        4.77660
S          3.29460       -3.32230        6.50580
C          4.88120       -4.17330        6.73410
C          2.22660       -2.15170        4.32870
C          2.07890       -1.88560        2.98670
C          1.00120       -1.45360       -0.86930
S          1.75830       -0.22520       -1.82090
C          0.45760       -3.98730        1.78270
C         -0.45180       -3.93580        2.84180
F         -1.48400       -3.06830        2.78880
C         -0.30070       -4.69520        3.97620
C          0.78460       -5.57120        4.10920
C          1.64740       -5.70300        3.01720
C          1.48610       -4.92880        1.89020
C          0.88760       -6.26770        5.37240
C          1.83820       -7.02570        5.95240
C          3.19110       -7.30000        5.44540
O          3.83380       -6.54290        4.74930
N          3.78320       -8.49640        5.86580
C          5.15370       -8.75410        5.42610
C          6.16420       -8.30530        6.47410
C          3.22250       -9.44200        6.68840
O          3.81490      -10.43540        7.02640
C          1.79330       -9.15790        7.14060
C          0.91260       -9.68930        6.12580
N          0.22270      -10.08030        5.30330
C          1.55660       -7.64970        7.29850
C          2.43910       -7.05390        8.39690
H         -1.23610        4.59850       -6.74730
H         -1.20620        7.61730       -1.20740
H         -2.59970        9.86660       -5.52700
H         -3.48530       11.79760       -2.84300
H         -1.30830       12.84520       -3.96530
H         -2.06590       14.41250       -1.99780
H         -1.36290       13.26430        0.29240
H         -0.17110       10.99000       -0.26520
H          0.12270       10.81890       -2.92980
H          0.72200       12.38260       -2.33130
H         -2.79440       10.66670       -0.59960
H          1.63700        2.44770       -2.61760
H         -1.21720        0.20210       -4.88660
H         -1.74760        2.21020       -6.19180
H         -1.59250        1.70270       -1.07290
H         -2.42570        3.96100       -1.54760
H         -5.04070        5.99000       -5.44620
H         -4.18030        4.48690       -5.85960
H         -5.81420        4.42840       -5.12310
H         -4.80820        2.40320       -4.74150
H         -3.98300        0.16380       -4.26590
H         -1.37110       -2.85780       -3.36810
H         -2.71480       -4.87830       -3.51560
H         -3.68550       -6.80400       -2.51860
H         -4.09350       -6.59740       -4.25430
H         -5.10670       -7.61690       -3.21130
H         -6.08520       -2.75220       -1.96180
H         -4.71400       -0.71400       -1.78480
H          2.89210       -3.23660       -1.78830
H          4.72180       -2.91420       -3.35600
H          6.63210       -3.11230       -4.66520
H          7.55180       -1.75810       -5.35360
H          5.83890       -1.52550       -4.93680
H          6.85520       -0.66710       -0.40810
H          4.98880       -0.97370        1.17120
H          4.71180       -3.64720        1.80940
H          4.98910       -4.10570        4.17800
H          4.88550       -5.08510        6.14570
H          5.69460       -3.51410        6.44510
H          4.94780       -4.40300        7.79320
H          1.53850       -1.73110        5.04610
H          1.27420       -1.24930        2.64960
H         -1.01660       -4.57460        4.77480
H          2.46490       -6.40030        3.05370
H          2.17390       -5.03880        1.06580
H         -0.00940       -6.14340        5.97170
H          5.30290       -8.21010        4.49220
H          5.24530       -9.82740        5.25080
H          6.06480       -7.23970        6.67190
H          7.17070       -8.49820        6.11430
H          6.01580       -8.85630        7.39990
H          1.62160       -9.70260        8.07560
H          0.50840       -7.48240        7.56600
H          2.28880       -5.97720        8.43760
H          2.17870       -7.47880        9.36400
H          3.49340       -7.24610        8.21010
