
  xtb     02042221173D
 energy: -279.975144066557 gnorm: 0.000511706647 xtb: 6.4.1 (unknown)
164182  0     0  0            999 V2000
    6.6860    2.7804   -4.1984 C   0  0  0  0  0  0  0  0  0  0  0  0
    7.2597    1.7431   -4.8428 C   0  0  0  0  0  0  0  0  0  0  0  0
    6.6784    0.3668   -4.8566 C   0  0  0  0  0  0  0  0  0  0  0  0
    5.7226   -0.0341   -4.2286 O   0  0  0  0  0  0  0  0  0  0  0  0
    7.4393   -0.3744   -5.8724 C   0  0  0  0  0  0  0  0  0  0  0  0
    7.2250   -1.6922   -6.2736 C   0  0  0  0  0  0  0  0  0  0  0  0
    8.0636   -2.1171   -7.2747 C   0  0  0  0  0  0  0  0  0  0  0  0
    9.0453   -1.2908   -7.8417 C   0  0  0  0  0  0  0  0  0  0  0  0
    9.2693    0.0086   -7.4559 C   0  0  0  0  0  0  0  0  0  0  0  0
    8.4268    0.4621   -6.4352 C   0  0  0  0  0  0  0  0  0  0  0  0
    8.3737    1.7629   -5.7809 C   0  0  0  0  0  0  0  0  0  0  0  0
    9.2563    2.7916   -5.9570 C   0  0  0  0  0  0  0  0  0  0  0  0
    9.2409    3.9975   -5.2247 C   0  0  0  0  0  0  0  0  0  0  0  0
    9.3229    4.9873   -4.6495 N   0  0  0  0  0  0  0  0  0  0  0  0
   10.3434    2.7697   -6.8579 C   0  0  0  0  0  0  0  0  0  0  0  0
   11.2430    2.8193   -7.5686 N   0  0  0  0  0  0  0  0  0  0  0  0
    9.5003   -2.3581   -8.8042 C   0  0  0  0  0  0  0  0  0  0  0  0
    9.0395   -2.2403  -10.2784 C   0  0  0  0  0  0  0  0  0  0  0  0
    7.7421   -1.4703  -10.2627 C   0  0  0  0  0  0  0  0  0  0  0  0
    6.8141   -2.2515   -9.7264 C   0  0  0  0  0  0  0  0  0  0  0  0
    7.4671   -3.5642   -9.3696 C   0  0  0  0  0  0  0  0  0  0  0  0
    8.5061   -3.6650  -10.4979 C   0  0  0  0  0  0  0  0  0  0  0  0
    8.4082   -3.2781   -8.1727 C   0  0  0  0  0  0  0  0  0  0  0  0
    5.6121    2.5850   -3.2418 C   0  0  0  0  0  0  0  0  0  0  0  0
    4.3769    3.2036   -3.3749 C   0  0  0  0  0  0  0  0  0  0  0  0
    4.1657    4.0732   -4.4704 C   0  0  0  0  0  0  0  0  0  0  0  0
    4.0177    4.7661   -5.3708 N   0  0  0  0  0  0  0  0  0  0  0  0
    3.3006    2.9562   -2.4811 C   0  0  0  0  0  0  0  0  0  0  0  0
    2.1033    3.6796   -2.6849 C   0  0  0  0  0  0  0  0  0  0  0  0
    1.1499    4.2983   -2.8367 N   0  0  0  0  0  0  0  0  0  0  0  0
    3.4315    2.1028   -1.3868 C   0  0  0  0  0  0  0  0  0  0  0  0
    4.6841    1.4563   -1.2382 C   0  0  0  0  0  0  0  0  0  0  0  0
    5.7687    1.7085   -2.1447 C   0  0  0  0  0  0  0  0  0  0  0  0
    6.8674    1.0341   -1.8115 N   0  0  0  0  0  0  0  0  0  0  0  0
    6.5401    0.1209   -0.5299 S   0  0  0  0  0  0  0  0  0  0  0  0
    5.0131    0.5637   -0.3071 N   0  0  0  0  0  0  0  0  0  0  0  0
    2.3787    1.8827   -0.4301 C   0  0  0  0  0  0  0  0  0  0  0  0
    2.4852    1.9015    0.9563 C   0  0  0  0  0  0  0  0  0  0  0  0
    3.5945    2.2993    1.6697 N   0  0  0  0  0  0  0  0  0  0  0  0
    3.8280    1.7585    2.9407 C   0  0  0  0  0  0  0  0  0  0  0  0
    4.3446    2.5584    3.9602 C   0  0  0  0  0  0  0  0  0  0  0  0
    4.5275    2.0365    5.2203 C   0  0  0  0  0  0  0  0  0  0  0  0
    4.1953    0.7097    5.4929 C   0  0  0  0  0  0  0  0  0  0  0  0
    4.4380    0.1555    7.1494 S   0  0  0  0  0  0  0  0  0  0  0  0
    3.4999   -1.3977    7.2191 C   0  0  0  0  0  0  0  0  0  0  0  0
    3.7178   -0.0991    4.4702 C   0  0  0  0  0  0  0  0  0  0  0  0
    3.5413    0.4218    3.2037 C   0  0  0  0  0  0  0  0  0  0  0  0
    4.5327    3.1658    1.0885 C   0  0  0  0  0  0  0  0  0  0  0  0
    4.1100    4.2514    0.3188 C   0  0  0  0  0  0  0  0  0  0  0  0
    5.0208    4.9810   -0.4097 C   0  0  0  0  0  0  0  0  0  0  0  0
    6.3763    4.6515   -0.3797 C   0  0  0  0  0  0  0  0  0  0  0  0
    7.4302    5.5364   -1.4789 S   0  0  0  0  0  0  0  0  0  0  0  0
    8.9573    4.5581   -1.4726 C   0  0  0  0  0  0  0  0  0  0  0  0
    6.8123    3.6547    0.4848 C   0  0  0  0  0  0  0  0  0  0  0  0
    5.8969    2.9217    1.2155 C   0  0  0  0  0  0  0  0  0  0  0  0
    1.2371    1.5860    1.5526 C   0  0  0  0  0  0  0  0  0  0  0  0
    0.6858    1.3992    3.1831 S   0  0  0  0  0  0  0  0  0  0  0  0
   -0.9398    1.0666    2.6133 C   0  0  0  0  0  0  0  0  0  0  0  0
   -1.0313    1.0480    1.2320 C   0  0  0  0  0  0  0  0  0  0  0  0
   -2.1590    0.6844    0.5178 N   0  0  0  0  0  0  0  0  0  0  0  0
   -2.3957    1.3123   -0.7146 C   0  0  0  0  0  0  0  0  0  0  0  0
   -2.1320    2.6750   -0.8645 C   0  0  0  0  0  0  0  0  0  0  0  0
   -2.3093    3.2893   -2.0832 C   0  0  0  0  0  0  0  0  0  0  0  0
   -2.7707    2.5613   -3.1780 C   0  0  0  0  0  0  0  0  0  0  0  0
   -2.9758    3.4525   -4.6848 S   0  0  0  0  0  0  0  0  0  0  0  0
   -3.2104    2.1485   -5.9276 C   0  0  0  0  0  0  0  0  0  0  0  0
   -3.0586    1.2106   -3.0271 C   0  0  0  0  0  0  0  0  0  0  0  0
   -2.8643    0.5911   -1.8082 C   0  0  0  0  0  0  0  0  0  0  0  0
   -2.9623   -0.3732    0.9647 C   0  0  0  0  0  0  0  0  0  0  0  0
   -2.3928   -1.4663    1.6197 C   0  0  0  0  0  0  0  0  0  0  0  0
   -3.1901   -2.4738    2.1168 C   0  0  0  0  0  0  0  0  0  0  0  0
   -4.5703   -2.4251    1.9528 C   0  0  0  0  0  0  0  0  0  0  0  0
   -5.5032   -3.7253    2.7046 S   0  0  0  0  0  0  0  0  0  0  0  0
   -7.0534   -3.7172    1.7630 C   0  0  0  0  0  0  0  0  0  0  0  0
   -5.1397   -1.3667    1.2586 C   0  0  0  0  0  0  0  0  0  0  0  0
   -4.3414   -0.3481    0.7768 C   0  0  0  0  0  0  0  0  0  0  0  0
    0.2167    1.3695    0.6414 C   0  0  0  0  0  0  0  0  0  0  0  0
    0.7489    1.5515   -0.9885 S   0  0  0  0  0  0  0  0  0  0  0  0
   -2.0120    0.7923    3.5248 C   0  0  0  0  0  0  0  0  0  0  0  0
   -3.2459    1.3921    3.5172 C   0  0  0  0  0  0  0  0  0  0  0  0
   -4.2152    0.8524    4.3815 C   0  0  0  0  0  0  0  0  0  0  0  0
   -5.4936    1.5688    4.6702 C   0  0  0  0  0  0  0  0  0  0  0  0
   -5.2316    3.0081    5.1172 C   0  0  0  0  0  0  0  0  0  0  0  0
   -3.7981   -0.2916    5.0435 C   0  0  0  0  0  0  0  0  0  0  0  0
   -1.9446   -0.6045    4.7734 Se  0  0  0  0  0  2  0  0  0  0  0  0
   -4.4783   -1.2728    5.7977 C   0  0  0  0  0  0  0  0  0  0  0  0
   -5.7602   -1.7245    5.6578 C   0  0  0  0  0  0  0  0  0  0  0  0
   -6.7050   -1.3968    4.5672 C   0  0  0  0  0  0  0  0  0  0  0  0
   -6.5261   -0.6840    3.5982 O   0  0  0  0  0  0  0  0  0  0  0  0
   -7.9245   -2.1816    4.8396 C   0  0  0  0  0  0  0  0  0  0  0  0
   -9.1240   -2.1298    4.1323 C   0  0  0  0  0  0  0  0  0  0  0  0
  -10.0923   -2.9830    4.6030 C   0  0  0  0  0  0  0  0  0  0  0  0
   -9.8761   -3.8372    5.6924 C   0  0  0  0  0  0  0  0  0  0  0  0
   -8.7047   -3.8863    6.4089 C   0  0  0  0  0  0  0  0  0  0  0  0
   -7.7113   -3.0131    5.9550 C   0  0  0  0  0  0  0  0  0  0  0  0
   -6.3763   -2.7482    6.4851 C   0  0  0  0  0  0  0  0  0  0  0  0
   -5.8392   -3.3419    7.5978 C   0  0  0  0  0  0  0  0  0  0  0  0
   -4.5826   -3.0548    8.1719 C   0  0  0  0  0  0  0  0  0  0  0  0
   -3.5896   -2.8817    8.7237 N   0  0  0  0  0  0  0  0  0  0  0  0
   -6.4794   -4.3425    8.3594 C   0  0  0  0  0  0  0  0  0  0  0  0
   -6.9298   -5.1594    9.0292 N   0  0  0  0  0  0  0  0  0  0  0  0
  -11.2671   -4.4131    5.6187 C   0  0  0  0  0  0  0  0  0  0  0  0
  -11.4439   -5.8082    4.9708 C   0  0  0  0  0  0  0  0  0  0  0  0
  -10.3197   -5.9756    3.9787 C   0  0  0  0  0  0  0  0  0  0  0  0
  -10.5521   -5.1574    2.9611 C   0  0  0  0  0  0  0  0  0  0  0  0
  -11.8312   -4.4134    3.2519 C   0  0  0  0  0  0  0  0  0  0  0  0
  -12.6069   -5.5000    4.0137 C   0  0  0  0  0  0  0  0  0  0  0  0
  -11.5175   -3.4457    4.4191 C   0  0  0  0  0  0  0  0  0  0  0  0
    6.9806    3.8030   -4.4011 H   0  0  0  0  0  0  0  0  0  0  0  0
    6.4553   -2.2917   -5.8131 H   0  0  0  0  0  0  0  0  0  0  0  0
   10.0229    0.6327   -7.9063 H   0  0  0  0  0  0  0  0  0  0  0  0
   10.5402   -2.6659   -8.7176 H   0  0  0  0  0  0  0  0  0  0  0  0
    9.8034   -1.8799  -10.9618 H   0  0  0  0  0  0  0  0  0  0  0  0
    7.6479   -0.4489  -10.5818 H   0  0  0  0  0  0  0  0  0  0  0  0
    5.7898   -2.0127   -9.5074 H   0  0  0  0  0  0  0  0  0  0  0  0
    6.7994   -4.4097   -9.2267 H   0  0  0  0  0  0  0  0  0  0  0  0
    8.0508   -3.7971  -11.4780 H   0  0  0  0  0  0  0  0  0  0  0  0
    9.2539   -4.4392  -10.3320 H   0  0  0  0  0  0  0  0  0  0  0  0
    8.7339   -4.1885   -7.6735 H   0  0  0  0  0  0  0  0  0  0  0  0
    4.5840    3.5917    3.7579 H   0  0  0  0  0  0  0  0  0  0  0  0
    4.9139    2.6541    6.0162 H   0  0  0  0  0  0  0  0  0  0  0  0
    4.0070   -2.1725    6.6512 H   0  0  0  0  0  0  0  0  0  0  0  0
    3.4692   -1.6748    8.2682 H   0  0  0  0  0  0  0  0  0  0  0  0
    2.4924   -1.2307    6.8501 H   0  0  0  0  0  0  0  0  0  0  0  0
    3.4861   -1.1373    4.6439 H   0  0  0  0  0  0  0  0  0  0  0  0
    3.1914   -0.2135    2.4039 H   0  0  0  0  0  0  0  0  0  0  0  0
    3.0592    4.4973    0.2699 H   0  0  0  0  0  0  0  0  0  0  0  0
    4.6931    5.8008   -1.0306 H   0  0  0  0  0  0  0  0  0  0  0  0
    9.4903    4.6934   -0.5359 H   0  0  0  0  0  0  0  0  0  0  0  0
    8.7199    3.5121   -1.6488 H   0  0  0  0  0  0  0  0  0  0  0  0
    9.5465    4.9470   -2.2981 H   0  0  0  0  0  0  0  0  0  0  0  0
    7.8612    3.4242    0.5797 H   0  0  0  0  0  0  0  0  0  0  0  0
    6.2359    2.1241    1.8606 H   0  0  0  0  0  0  0  0  0  0  0  0
   -1.7810    3.2478   -0.0187 H   0  0  0  0  0  0  0  0  0  0  0  0
   -2.0857    4.3371   -2.2047 H   0  0  0  0  0  0  0  0  0  0  0  0
   -3.1905    2.6539   -6.8881 H   0  0  0  0  0  0  0  0  0  0  0  0
   -2.3927    1.4365   -5.8677 H   0  0  0  0  0  0  0  0  0  0  0  0
   -4.1713    1.6609   -5.7903 H   0  0  0  0  0  0  0  0  0  0  0  0
   -3.4252    0.6242   -3.8543 H   0  0  0  0  0  0  0  0  0  0  0  0
   -3.0701   -0.4640   -1.7028 H   0  0  0  0  0  0  0  0  0  0  0  0
   -1.3194   -1.5254    1.7329 H   0  0  0  0  0  0  0  0  0  0  0  0
   -2.7496   -3.3114    2.6366 H   0  0  0  0  0  0  0  0  0  0  0  0
   -7.5908   -4.6061    2.0786 H   0  0  0  0  0  0  0  0  0  0  0  0
   -7.6324   -2.8315    2.0044 H   0  0  0  0  0  0  0  0  0  0  0  0
   -6.8295   -3.7666    0.7015 H   0  0  0  0  0  0  0  0  0  0  0  0
   -6.2046   -1.3072    1.1130 H   0  0  0  0  0  0  0  0  0  0  0  0
   -4.7923    0.4865    0.2612 H   0  0  0  0  0  0  0  0  0  0  0  0
   -3.4530    2.2337    2.8775 H   0  0  0  0  0  0  0  0  0  0  0  0
   -6.1178    1.5666    3.7737 H   0  0  0  0  0  0  0  0  0  0  0  0
   -6.0373    1.0448    5.4569 H   0  0  0  0  0  0  0  0  0  0  0  0
   -4.7538    3.5861    4.3312 H   0  0  0  0  0  0  0  0  0  0  0  0
   -6.1717    3.4899    5.3741 H   0  0  0  0  0  0  0  0  0  0  0  0
   -4.5870    3.0202    5.9937 H   0  0  0  0  0  0  0  0  0  0  0  0
   -3.8490   -1.7956    6.5114 H   0  0  0  0  0  0  0  0  0  0  0  0
   -9.2539   -1.4477    3.3053 H   0  0  0  0  0  0  0  0  0  0  0  0
   -8.5650   -4.5376    7.2549 H   0  0  0  0  0  0  0  0  0  0  0  0
  -11.8807   -4.2929    6.5094 H   0  0  0  0  0  0  0  0  0  0  0  0
  -11.5798   -6.6200    5.6801 H   0  0  0  0  0  0  0  0  0  0  0  0
   -9.4699   -6.6131    4.1396 H   0  0  0  0  0  0  0  0  0  0  0  0
   -9.9428   -4.9772    2.0946 H   0  0  0  0  0  0  0  0  0  0  0  0
  -12.3234   -3.9516    2.3998 H   0  0  0  0  0  0  0  0  0  0  0  0
  -12.8713   -6.3480    3.3837 H   0  0  0  0  0  0  0  0  0  0  0  0
  -13.4962   -5.1254    4.5186 H   0  0  0  0  0  0  0  0  0  0  0  0
  -12.2804   -2.6786    4.5391 H   0  0  0  0  0  0  0  0  0  0  0  0
  1  2  2  0  0  0  0
  2  3  1  0  0  0  0
  3  4  2  0  0  0  0
  3  5  1  0  0  0  0
  5  6  2  0  0  0  0
  6  7  1  0  0  0  0
  7  8  2  0  0  0  0
  8  9  1  0  0  0  0
  9 10  2  0  0  0  0
 10 11  1  0  0  0  0
 11 12  2  0  0  0  0
 12 13  1  0  0  0  0
 13 14  3  0  0  0  0
 12 15  1  0  0  0  0
 15 16  3  0  0  0  0
  8 17  1  0  0  0  0
 17 18  1  0  0  0  0
 18 19  1  0  0  0  0
 19 20  2  0  0  0  0
 20 21  1  0  0  0  0
 21 22  1  0  0  0  0
 21 23  1  0  0  0  0
  1 24  1  0  0  0  0
 24 25  2  0  0  0  0
 25 26  1  0  0  0  0
 26 27  3  0  0  0  0
 25 28  1  0  0  0  0
 28 29  1  0  0  0  0
 29 30  3  0  0  0  0
 28 31  2  0  0  0  0
 31 32  1  0  0  0  0
 32 33  1  0  0  0  0
 33 34  2  0  0  0  0
 34 35  1  0  0  0  0
 35 36  1  0  0  0  0
 31 37  1  0  0  0  0
 37 38  2  0  0  0  0
 38 39  1  0  0  0  0
 39 40  1  0  0  0  0
 40 41  2  0  0  0  0
 41 42  1  0  0  0  0
 42 43  2  0  0  0  0
 43 44  1  0  0  0  0
 44 45  1  0  0  0  0
 43 46  1  0  0  0  0
 46 47  2  0  0  0  0
 39 48  1  0  0  0  0
 48 49  2  0  0  0  0
 49 50  1  0  0  0  0
 50 51  2  0  0  0  0
 51 52  1  0  0  0  0
 52 53  1  0  0  0  0
 51 54  1  0  0  0  0
 54 55  2  0  0  0  0
 38 56  1  0  0  0  0
 56 57  1  0  0  0  0
 57 58  1  0  0  0  0
 58 59  2  0  0  0  0
 59 60  1  0  0  0  0
 60 61  1  0  0  0  0
 61 62  2  0  0  0  0
 62 63  1  0  0  0  0
 63 64  2  0  0  0  0
 64 65  1  0  0  0  0
 65 66  1  0  0  0  0
 64 67  1  0  0  0  0
 67 68  2  0  0  0  0
 60 69  1  0  0  0  0
 69 70  2  0  0  0  0
 70 71  1  0  0  0  0
 71 72  2  0  0  0  0
 72 73  1  0  0  0  0
 73 74  1  0  0  0  0
 72 75  1  0  0  0  0
 75 76  2  0  0  0  0
 59 77  1  0  0  0  0
 77 78  1  0  0  0  0
 58 79  1  0  0  0  0
 79 80  2  0  0  0  0
 80 81  1  0  0  0  0
 81 82  1  0  0  0  0
 82 83  1  0  0  0  0
 81 84  2  0  0  0  0
 84 85  1  0  0  0  0
 84 86  1  0  0  0  0
 86 87  2  0  0  0  0
 87 88  1  0  0  0  0
 88 89  2  0  0  0  0
 88 90  1  0  0  0  0
 90 91  2  0  0  0  0
 91 92  1  0  0  0  0
 92 93  2  0  0  0  0
 93 94  1  0  0  0  0
 94 95  2  0  0  0  0
 95 96  1  0  0  0  0
 96 97  2  0  0  0  0
 97 98  1  0  0  0  0
 98 99  3  0  0  0  0
 97100  1  0  0  0  0
100101  3  0  0  0  0
 93102  1  0  0  0  0
102103  1  0  0  0  0
103104  1  0  0  0  0
104105  2  0  0  0  0
105106  1  0  0  0  0
106107  1  0  0  0  0
106108  1  0  0  0  0
 11  2  1  0  0  0  0
 23 17  1  0  0  0  0
 33 24  1  0  0  0  0
 78 37  1  0  0  0  0
 85 79  1  0  0  0  0
 96 87  1  0  0  0  0
108102  1  0  0  0  0
 10  5  1  0  0  0  0
 22 18  1  0  0  0  0
 36 32  2  0  0  0  0
 47 40  1  0  0  0  0
 55 48  1  0  0  0  0
 77 56  2  0  0  0  0
 95 90  1  0  0  0  0
107103  1  0  0  0  0
 23  7  1  0  0  0  0
 68 61  1  0  0  0  0
 76 69  1  0  0  0  0
108 92  1  0  0  0  0
  1109  1  0  0  0  0
  6110  1  0  0  0  0
  9111  1  0  0  0  0
 17112  1  0  0  0  0
 18113  1  0  0  0  0
 19114  1  0  0  0  0
 20115  1  0  0  0  0
 21116  1  0  0  0  0
 22117  1  0  0  0  0
 22118  1  0  0  0  0
 23119  1  0  0  0  0
 41120  1  0  0  0  0
 42121  1  0  0  0  0
 45122  1  0  0  0  0
 45123  1  0  0  0  0
 45124  1  0  0  0  0
 46125  1  0  0  0  0
 47126  1  0  0  0  0
 49127  1  0  0  0  0
 50128  1  0  0  0  0
 53129  1  0  0  0  0
 53130  1  0  0  0  0
 53131  1  0  0  0  0
 54132  1  0  0  0  0
 55133  1  0  0  0  0
 62134  1  0  0  0  0
 63135  1  0  0  0  0
 66136  1  0  0  0  0
 66137  1  0  0  0  0
 66138  1  0  0  0  0
 67139  1  0  0  0  0
 68140  1  0  0  0  0
 70141  1  0  0  0  0
 71142  1  0  0  0  0
 74143  1  0  0  0  0
 74144  1  0  0  0  0
 74145  1  0  0  0  0
 75146  1  0  0  0  0
 76147  1  0  0  0  0
 80148  1  0  0  0  0
 82149  1  0  0  0  0
 82150  1  0  0  0  0
 83151  1  0  0  0  0
 83152  1  0  0  0  0
 83153  1  0  0  0  0
 86154  1  0  0  0  0
 91155  1  0  0  0  0
 94156  1  0  0  0  0
102157  1  0  0  0  0
103158  1  0  0  0  0
104159  1  0  0  0  0
105160  1  0  0  0  0
106161  1  0  0  0  0
107162  1  0  0  0  0
107163  1  0  0  0  0
108164  1  0  0  0  0
M  END
