
  xtb     02152201033D
 energy: -248.544036801475 gnorm: 0.000346695892 xtb: 6.4.1 (unknown)
146160  0     0  0            999 V2000
    7.1008   -0.5085    2.4971 C   0  0  0  0  0  0  0  0  0  0  0  0
    7.2109   -1.3379    3.5567 C   0  0  0  0  0  0  0  0  0  0  0  0
    6.0969   -1.8636    4.4019 C   0  0  0  0  0  0  0  0  0  0  0  0
    4.9110   -1.8368    4.1681 O   0  0  0  0  0  0  0  0  0  0  0  0
    6.7513   -2.4815    5.5695 C   0  0  0  0  0  0  0  0  0  0  0  0
    6.1244   -3.0005    6.7007 C   0  0  0  0  0  0  0  0  0  0  0  0
    6.9924   -3.4760    7.6534 C   0  0  0  0  0  0  0  0  0  0  0  0
    8.3861   -3.4359    7.4988 C   0  0  0  0  0  0  0  0  0  0  0  0
    9.0183   -2.9403    6.3851 C   0  0  0  0  0  0  0  0  0  0  0  0
    8.1506   -2.4603    5.3973 C   0  0  0  0  0  0  0  0  0  0  0  0
    8.4498   -1.8905    4.0917 C   0  0  0  0  0  0  0  0  0  0  0  0
    9.6511   -1.9664    3.4416 C   0  0  0  0  0  0  0  0  0  0  0  0
    9.8706   -1.5589    2.1091 C   0  0  0  0  0  0  0  0  0  0  0  0
   10.1043   -1.2936    1.0162 N   0  0  0  0  0  0  0  0  0  0  0  0
   10.8143   -2.5516    3.9861 C   0  0  0  0  0  0  0  0  0  0  0  0
   11.7931   -3.0152    4.3659 N   0  0  0  0  0  0  0  0  0  0  0  0
    8.6341   -4.0614    8.8485 C   0  0  0  0  0  0  0  0  0  0  0  0
    9.0290   -5.5532    8.8546 C   0  0  0  0  0  0  0  0  0  0  0  0
    8.7346   -5.9991   10.2687 C   0  0  0  0  0  0  0  0  0  0  0  0
    7.4161   -6.0428   10.4117 C   0  0  0  0  0  0  0  0  0  0  0  0
    6.7970   -5.6271    9.0968 C   0  0  0  0  0  0  0  0  0  0  0  0
    7.8405   -6.1910    8.1237 C   0  0  0  0  0  0  0  0  0  0  0  0
    7.0817   -4.1117    9.0183 C   0  0  0  0  0  0  0  0  0  0  0  0
    5.8646    0.0241    1.9718 C   0  0  0  0  0  0  0  0  0  0  0  0
    4.8130    0.5080    2.7570 C   0  0  0  0  0  0  0  0  0  0  0  0
    5.0233    0.7597    4.0609 F   0  0  0  0  0  0  0  0  0  0  0  0
    3.5752    0.7847    2.2254 C   0  0  0  0  0  0  0  0  0  0  0  0
    3.3498    0.5867    0.8622 C   0  0  0  0  0  0  0  0  0  0  0  0
    4.4441    0.2970    0.0376 C   0  0  0  0  0  0  0  0  0  0  0  0
    5.6743    0.0262    0.5858 C   0  0  0  0  0  0  0  0  0  0  0  0
    2.0136    0.6431    0.3191 C   0  0  0  0  0  0  0  0  0  0  0  0
    1.4641   -0.1804   -0.6523 C   0  0  0  0  0  0  0  0  0  0  0  0
    2.0816   -1.2743   -1.2347 N   0  0  0  0  0  0  0  0  0  0  0  0
    3.0170   -2.0408   -0.5217 C   0  0  0  0  0  0  0  0  0  0  0  0
    4.1611   -2.5159   -1.1576 C   0  0  0  0  0  0  0  0  0  0  0  0
    5.1461   -3.1717   -0.4448 C   0  0  0  0  0  0  0  0  0  0  0  0
    5.0022   -3.3628    0.9219 C   0  0  0  0  0  0  0  0  0  0  0  0
    6.2315   -4.1093    1.9485 S   0  0  0  0  0  0  0  0  0  0  0  0
    7.6840   -4.2415    0.8642 C   0  0  0  0  0  0  0  0  0  0  0  0
    3.8272   -2.9542    1.5505 C   0  0  0  0  0  0  0  0  0  0  0  0
    2.8466   -2.3032    0.8380 C   0  0  0  0  0  0  0  0  0  0  0  0
    1.7516   -1.6237   -2.5519 C   0  0  0  0  0  0  0  0  0  0  0  0
    1.6297   -2.9649   -2.9170 C   0  0  0  0  0  0  0  0  0  0  0  0
    1.2740   -3.3028   -4.2024 C   0  0  0  0  0  0  0  0  0  0  0  0
    1.0250   -2.3134   -5.1528 C   0  0  0  0  0  0  0  0  0  0  0  0
    0.5546   -2.8645   -6.7623 S   0  0  0  0  0  0  0  0  0  0  0  0
   -0.0488   -1.3558   -7.5727 C   0  0  0  0  0  0  0  0  0  0  0  0
    1.1690   -0.9789   -4.8013 C   0  0  0  0  0  0  0  0  0  0  0  0
    1.5334   -0.6399   -3.5125 C   0  0  0  0  0  0  0  0  0  0  0  0
    0.1218    0.1954   -0.9236 C   0  0  0  0  0  0  0  0  0  0  0  0
   -1.0994   -0.4100   -1.9832 S   0  0  0  0  0  0  0  0  0  0  0  0
   -2.2357    0.8039   -1.4017 C   0  0  0  0  0  0  0  0  0  0  0  0
   -1.7039    1.5899   -0.3797 C   0  0  0  0  0  0  0  0  0  0  0  0
   -2.3772    2.5186    0.3716 N   0  0  0  0  0  0  0  0  0  0  0  0
   -1.6681    3.5981    0.9216 C   0  0  0  0  0  0  0  0  0  0  0  0
   -0.7111    4.2735    0.1701 C   0  0  0  0  0  0  0  0  0  0  0  0
    0.0092    5.3175    0.7181 C   0  0  0  0  0  0  0  0  0  0  0  0
   -0.2237    5.7068    2.0298 C   0  0  0  0  0  0  0  0  0  0  0  0
    0.6358    7.0142    2.8438 S   0  0  0  0  0  0  0  0  0  0  0  0
    1.9355    7.4825    1.6660 C   0  0  0  0  0  0  0  0  0  0  0  0
   -1.2009    5.0495    2.7772 C   0  0  0  0  0  0  0  0  0  0  0  0
   -1.9148    4.0073    2.2324 C   0  0  0  0  0  0  0  0  0  0  0  0
   -3.7551    2.4142    0.6250 C   0  0  0  0  0  0  0  0  0  0  0  0
   -4.5490    3.5617    0.6411 C   0  0  0  0  0  0  0  0  0  0  0  0
   -5.9064    3.4588    0.8248 C   0  0  0  0  0  0  0  0  0  0  0  0
   -6.5067    2.2125    1.0062 C   0  0  0  0  0  0  0  0  0  0  0  0
   -8.2618    2.2036    1.1539 S   0  0  0  0  0  0  0  0  0  0  0  0
   -8.6974    0.4437    1.1452 C   0  0  0  0  0  0  0  0  0  0  0  0
   -5.7114    1.0756    1.0576 C   0  0  0  0  0  0  0  0  0  0  0  0
   -4.3457    1.1794    0.8764 C   0  0  0  0  0  0  0  0  0  0  0  0
   -0.3458    1.2428   -0.1481 C   0  0  0  0  0  0  0  0  0  0  0  0
    0.8591    1.7974    0.9604 S   0  0  0  0  0  0  0  0  0  0  0  0
   -3.5216    0.8999   -2.0144 C   0  0  0  0  0  0  0  0  0  0  0  0
   -4.0759   -0.1422   -2.7834 C   0  0  0  0  0  0  0  0  0  0  0  0
   -5.3659    0.0052   -3.2195 C   0  0  0  0  0  0  0  0  0  0  0  0
   -6.0333    1.2047   -2.9018 C   0  0  0  0  0  0  0  0  0  0  0  0
   -5.4034    2.1852   -2.2493 N   0  0  0  0  0  0  0  0  0  0  0  0
   -4.2031    2.0417   -1.8324 N   0  0  0  0  0  0  0  0  0  0  0  0
   -7.4147    1.4404   -3.2523 C   0  0  0  0  0  0  0  0  0  0  0  0
   -7.9524    1.2229   -4.4746 C   0  0  0  0  0  0  0  0  0  0  0  0
   -7.1689    0.9975   -5.7262 C   0  0  0  0  0  0  0  0  0  0  0  0
   -6.0088    0.6664   -5.8303 O   0  0  0  0  0  0  0  0  0  0  0  0
   -8.1011    1.3220   -6.8200 C   0  0  0  0  0  0  0  0  0  0  0  0
   -7.8583    1.3771   -8.1798 C   0  0  0  0  0  0  0  0  0  0  0  0
   -8.9021    1.7240   -9.0219 C   0  0  0  0  0  0  0  0  0  0  0  0
  -10.1709    2.0185   -8.5240 C   0  0  0  0  0  0  0  0  0  0  0  0
  -11.2685    2.4243   -9.4546 C   0  0  0  0  0  0  0  0  0  0  0  0
  -10.4104    1.9570   -7.1523 C   0  0  0  0  0  0  0  0  0  0  0  0
   -9.3778    1.6054   -6.3002 C   0  0  0  0  0  0  0  0  0  0  0  0
   -9.3388    1.4466   -4.8524 C   0  0  0  0  0  0  0  0  0  0  0  0
  -10.4122    1.3878   -4.0072 C   0  0  0  0  0  0  0  0  0  0  0  0
  -11.7487    1.5781   -4.4152 C   0  0  0  0  0  0  0  0  0  0  0  0
  -12.8505    1.7285   -4.6992 N   0  0  0  0  0  0  0  0  0  0  0  0
  -10.3107    1.0385   -2.6437 C   0  0  0  0  0  0  0  0  0  0  0  0
  -10.2948    0.7009   -1.5469 N   0  0  0  0  0  0  0  0  0  0  0  0
    7.9876   -0.2589    1.9279 H   0  0  0  0  0  0  0  0  0  0  0  0
    5.0493   -2.9990    6.7865 H   0  0  0  0  0  0  0  0  0  0  0  0
   10.0903   -2.9066    6.2813 H   0  0  0  0  0  0  0  0  0  0  0  0
    9.2154   -3.4636    9.5479 H   0  0  0  0  0  0  0  0  0  0  0  0
   10.0243   -5.7618    8.4719 H   0  0  0  0  0  0  0  0  0  0  0  0
    9.4901   -6.1770   11.0113 H   0  0  0  0  0  0  0  0  0  0  0  0
    6.8506   -6.2645   11.2977 H   0  0  0  0  0  0  0  0  0  0  0  0
    5.7590   -5.9045    8.9350 H   0  0  0  0  0  0  0  0  0  0  0  0
    7.7175   -5.8537    7.0962 H   0  0  0  0  0  0  0  0  0  0  0  0
    7.8792   -7.2787    8.1475 H   0  0  0  0  0  0  0  0  0  0  0  0
    6.6272   -3.5512    9.8332 H   0  0  0  0  0  0  0  0  0  0  0  0
    2.7766    1.1059    2.8760 H   0  0  0  0  0  0  0  0  0  0  0  0
    4.3151    0.2769   -1.0329 H   0  0  0  0  0  0  0  0  0  0  0  0
    6.5004   -0.2511   -0.0519 H   0  0  0  0  0  0  0  0  0  0  0  0
    4.2923   -2.3483   -2.2166 H   0  0  0  0  0  0  0  0  0  0  0  0
    6.0274   -3.5082   -0.9663 H   0  0  0  0  0  0  0  0  0  0  0  0
    7.4893   -4.9444    0.0598 H   0  0  0  0  0  0  0  0  0  0  0  0
    8.4849   -4.6220    1.4911 H   0  0  0  0  0  0  0  0  0  0  0  0
    7.9519   -3.2618    0.4788 H   0  0  0  0  0  0  0  0  0  0  0  0
    3.7060   -3.1280    2.6073 H   0  0  0  0  0  0  0  0  0  0  0  0
    1.9476   -1.9778    1.3386 H   0  0  0  0  0  0  0  0  0  0  0  0
    1.8039   -3.7345   -2.1802 H   0  0  0  0  0  0  0  0  0  0  0  0
    1.1691   -4.3389   -4.4850 H   0  0  0  0  0  0  0  0  0  0  0  0
   -0.4970   -1.6842   -8.5053 H   0  0  0  0  0  0  0  0  0  0  0  0
   -0.7993   -0.8809   -6.9480 H   0  0  0  0  0  0  0  0  0  0  0  0
    0.7778   -0.6825   -7.7813 H   0  0  0  0  0  0  0  0  0  0  0  0
    1.0072   -0.1920   -5.5201 H   0  0  0  0  0  0  0  0  0  0  0  0
    1.6533    0.4012   -3.2494 H   0  0  0  0  0  0  0  0  0  0  0  0
   -0.5377    3.9833   -0.8557 H   0  0  0  0  0  0  0  0  0  0  0  0
    0.7413    5.8207    0.1078 H   0  0  0  0  0  0  0  0  0  0  0  0
    2.5427    6.6151    1.4244 H   0  0  0  0  0  0  0  0  0  0  0  0
    2.5393    8.2252    2.1781 H   0  0  0  0  0  0  0  0  0  0  0  0
    1.4947    7.9196    0.7747 H   0  0  0  0  0  0  0  0  0  0  0  0
   -1.3816    5.3631    3.7937 H   0  0  0  0  0  0  0  0  0  0  0  0
   -2.6631    3.4951    2.8180 H   0  0  0  0  0  0  0  0  0  0  0  0
   -4.0957    4.5246    0.4662 H   0  0  0  0  0  0  0  0  0  0  0  0
   -6.5290    4.3395    0.8061 H   0  0  0  0  0  0  0  0  0  0  0  0
   -9.7806    0.4147    1.0930 H   0  0  0  0  0  0  0  0  0  0  0  0
   -8.2832   -0.0308    0.2611 H   0  0  0  0  0  0  0  0  0  0  0  0
   -8.3513   -0.0341    2.0575 H   0  0  0  0  0  0  0  0  0  0  0  0
   -6.1411    0.1022    1.2337 H   0  0  0  0  0  0  0  0  0  0  0  0
   -3.7357    0.2877    0.9077 H   0  0  0  0  0  0  0  0  0  0  0  0
   -3.5025   -1.0353   -2.9830 H   0  0  0  0  0  0  0  0  0  0  0  0
   -5.8773   -0.7790   -3.7535 H   0  0  0  0  0  0  0  0  0  0  0  0
   -8.0164    1.8905   -2.4717 H   0  0  0  0  0  0  0  0  0  0  0  0
   -6.8751    1.1517   -8.5634 H   0  0  0  0  0  0  0  0  0  0  0  0
   -8.7341    1.7707  -10.0880 H   0  0  0  0  0  0  0  0  0  0  0  0
  -11.2181    3.4987   -9.6345 H   0  0  0  0  0  0  0  0  0  0  0  0
  -11.1729    1.9202  -10.4134 H   0  0  0  0  0  0  0  0  0  0  0  0
  -12.2428    2.2007   -9.0278 H   0  0  0  0  0  0  0  0  0  0  0  0
  -11.3921    2.1916   -6.7719 H   0  0  0  0  0  0  0  0  0  0  0  0
  1  2  2  0  0  0  0
  2  3  1  0  0  0  0
  3  4  2  0  0  0  0
  3  5  1  0  0  0  0
  5  6  2  0  0  0  0
  6  7  1  0  0  0  0
  7  8  2  0  0  0  0
  8  9  1  0  0  0  0
  9 10  2  0  0  0  0
 10 11  1  0  0  0  0
 11 12  2  0  0  0  0
 12 13  1  0  0  0  0
 13 14  3  0  0  0  0
 12 15  1  0  0  0  0
 15 16  3  0  0  0  0
  8 17  1  0  0  0  0
 17 18  1  0  0  0  0
 18 19  1  0  0  0  0
 19 20  2  0  0  0  0
 20 21  1  0  0  0  0
 21 22  1  0  0  0  0
 21 23  1  0  0  0  0
  1 24  1  0  0  0  0
 24 25  2  0  0  0  0
 25 26  1  0  0  0  0
 25 27  1  0  0  0  0
 27 28  2  0  0  0  0
 28 29  1  0  0  0  0
 29 30  2  0  0  0  0
 28 31  1  0  0  0  0
 31 32  2  0  0  0  0
 32 33  1  0  0  0  0
 33 34  1  0  0  0  0
 34 35  2  0  0  0  0
 35 36  1  0  0  0  0
 36 37  2  0  0  0  0
 37 38  1  0  0  0  0
 38 39  1  0  0  0  0
 37 40  1  0  0  0  0
 40 41  2  0  0  0  0
 33 42  1  0  0  0  0
 42 43  2  0  0  0  0
 43 44  1  0  0  0  0
 44 45  2  0  0  0  0
 45 46  1  0  0  0  0
 46 47  1  0  0  0  0
 45 48  1  0  0  0  0
 48 49  2  0  0  0  0
 32 50  1  0  0  0  0
 50 51  1  0  0  0  0
 51 52  1  0  0  0  0
 52 53  2  0  0  0  0
 53 54  1  0  0  0  0
 54 55  1  0  0  0  0
 55 56  2  0  0  0  0
 56 57  1  0  0  0  0
 57 58  2  0  0  0  0
 58 59  1  0  0  0  0
 59 60  1  0  0  0  0
 58 61  1  0  0  0  0
 61 62  2  0  0  0  0
 54 63  1  0  0  0  0
 63 64  2  0  0  0  0
 64 65  1  0  0  0  0
 65 66  2  0  0  0  0
 66 67  1  0  0  0  0
 67 68  1  0  0  0  0
 66 69  1  0  0  0  0
 69 70  2  0  0  0  0
 53 71  1  0  0  0  0
 71 72  1  0  0  0  0
 52 73  1  0  0  0  0
 73 74  2  0  0  0  0
 74 75  1  0  0  0  0
 75 76  2  0  0  0  0
 76 77  1  0  0  0  0
 77 78  2  0  0  0  0
 76 79  1  0  0  0  0
 79 80  2  0  0  0  0
 80 81  1  0  0  0  0
 81 82  2  0  0  0  0
 81 83  1  0  0  0  0
 83 84  2  0  0  0  0
 84 85  1  0  0  0  0
 85 86  2  0  0  0  0
 86 87  1  0  0  0  0
 86 88  1  0  0  0  0
 88 89  2  0  0  0  0
 89 90  1  0  0  0  0
 90 91  2  0  0  0  0
 91 92  1  0  0  0  0
 92 93  3  0  0  0  0
 91 94  1  0  0  0  0
 94 95  3  0  0  0  0
 11  2  1  0  0  0  0
 23 17  1  0  0  0  0
 30 24  1  0  0  0  0
 72 31  1  0  0  0  0
 78 73  1  0  0  0  0
 90 80  1  0  0  0  0
 10  5  1  0  0  0  0
 22 18  1  0  0  0  0
 41 34  1  0  0  0  0
 49 42  1  0  0  0  0
 71 50  2  0  0  0  0
 89 83  1  0  0  0  0
 23  7  1  0  0  0  0
 62 55  1  0  0  0  0
 70 63  1  0  0  0  0
  1 96  1  0  0  0  0
  6 97  1  0  0  0  0
  9 98  1  0  0  0  0
 17 99  1  0  0  0  0
 18100  1  0  0  0  0
 19101  1  0  0  0  0
 20102  1  0  0  0  0
 21103  1  0  0  0  0
 22104  1  0  0  0  0
 22105  1  0  0  0  0
 23106  1  0  0  0  0
 27107  1  0  0  0  0
 29108  1  0  0  0  0
 30109  1  0  0  0  0
 35110  1  0  0  0  0
 36111  1  0  0  0  0
 39112  1  0  0  0  0
 39113  1  0  0  0  0
 39114  1  0  0  0  0
 40115  1  0  0  0  0
 41116  1  0  0  0  0
 43117  1  0  0  0  0
 44118  1  0  0  0  0
 47119  1  0  0  0  0
 47120  1  0  0  0  0
 47121  1  0  0  0  0
 48122  1  0  0  0  0
 49123  1  0  0  0  0
 56124  1  0  0  0  0
 57125  1  0  0  0  0
 60126  1  0  0  0  0
 60127  1  0  0  0  0
 60128  1  0  0  0  0
 61129  1  0  0  0  0
 62130  1  0  0  0  0
 64131  1  0  0  0  0
 65132  1  0  0  0  0
 68133  1  0  0  0  0
 68134  1  0  0  0  0
 68135  1  0  0  0  0
 69136  1  0  0  0  0
 70137  1  0  0  0  0
 74138  1  0  0  0  0
 75139  1  0  0  0  0
 79140  1  0  0  0  0
 84141  1  0  0  0  0
 85142  1  0  0  0  0
 87143  1  0  0  0  0
 87144  1  0  0  0  0
 87145  1  0  0  0  0
 88146  1  0  0  0  0
M  END
