195

C         -1.90820       -6.94640        2.77100
C         -1.58250       -7.52200        3.97300
C         -0.23950       -7.80000        4.52180
O          0.84040       -7.72130        3.96930
C         -0.45390       -8.24820        5.91090
C          0.53190       -8.57210        6.84000
C          0.04130       -8.93600        8.07060
C         -1.33000       -8.98250        8.35310
C         -2.31200       -8.67770        7.44100
C         -1.83370       -8.29730        6.18290
C         -2.55740       -7.87960        4.98420
C         -3.92550       -7.80960        4.88630
C         -4.67310       -7.36850        3.77660
N         -5.39260       -7.00040        2.95750
C         -4.82220       -8.13060        5.92580
N         -5.63090       -8.34990        6.71220
C         -1.10250       -9.40590        9.78340
C         -1.26510       -8.31020       10.85840
C         -0.53080       -8.86680       12.05670
C          0.76820       -8.82500       11.78900
C          0.93340       -8.23910       10.40540
C         -0.24840       -7.26090       10.39020
C          0.42680       -9.35550        9.46750
C         -1.10910       -6.30640        1.81220
C          0.25750       -6.13190        1.64810
C          0.59800       -5.15210        0.72350
C          1.99760       -4.86390        0.35780
C          2.77710       -3.98130        1.10440
C          4.11130       -3.81200        0.76680
C          4.67890       -4.50160       -0.29290
C          6.12580       -4.33780       -0.64390
C          3.88270       -5.36520       -1.03320
C          2.54980       -5.56240       -0.72090
C          1.70750       -6.51820       -1.51130
C          2.16870       -3.21810        2.24110
C         -0.51710       -4.50500        0.17920
S         -1.97660       -5.30510        0.66160
C         -0.52310       -3.30960       -0.58150
C         -1.55820       -2.38920       -0.77450
N         -2.81500       -2.39550       -0.18710
C         -2.98910       -2.71510        1.16280
C         -1.96460       -2.51370        2.08990
C         -2.09440       -2.97360        3.38130
C         -3.25980       -3.62000        3.78750
S         -3.28540       -4.27400        5.42920
C         -5.05780       -4.45190        5.78550
C         -4.31220       -3.75730        2.89130
C         -4.17540       -3.31110        1.59340
C         -3.88620       -1.88720       -0.93650
C         -4.01160       -2.21580       -2.28710
C         -5.04620       -1.69920       -3.03370
C         -5.98380       -0.84950       -2.45000
S         -7.25930       -0.23950       -3.50730
C         -8.39110        0.61630       -2.37480
C         -5.86620       -0.52490       -1.10520
C         -4.82500       -1.03810       -0.35800
C         -1.13180       -1.31830       -1.59420
S         -1.91800        0.09040       -2.22010
C         -0.38900        0.67570       -2.85980
C          0.65280       -0.21870       -2.65340
N          1.94620       -0.04600       -3.12120
C          3.01950       -0.31140       -2.26550
C          4.24310       -0.74210       -2.77130
C          5.31950       -0.94850       -1.93200
C          5.18660       -0.74340       -0.56600
S          6.51010       -0.93650        0.58970
C          7.99490       -0.89540       -0.45550
C          3.95270       -0.36010       -0.04920
C          2.88400       -0.13880       -0.88740
C          2.14070        0.50480       -4.39410
C          1.25620        0.18710       -5.42290
C          1.37790        0.77600       -6.66370
C          2.39360        1.69210       -6.89980
S          2.60450        2.48590       -8.46720
C          0.88730        2.64180       -9.04750
C          3.30110        1.98800       -5.88870
C          3.17570        1.40660       -4.64550
C          0.20920       -1.35800       -1.94170
S          0.98620       -2.77610       -1.33290
C         -0.34200        1.98400       -3.41490
C         -1.35860        2.61540       -4.10500
C         -1.05750        3.92830       -4.44820
C         -1.95580        4.76540       -5.24690
C         -1.49390        5.42230       -6.39890
O         -0.18740        5.22400       -6.72330
C          0.42730        6.11170       -7.64450
C          1.93290        6.01740       -7.45190
C         -2.37650        6.17690       -7.16220
C         -3.69830        6.28150       -6.77550
C         -4.17340        5.63500       -5.65010
C         -3.30810        4.86760       -4.87910
O         -3.64690        4.22550       -3.72770
C         -5.00550        4.10460       -3.35880
C         -5.75350        3.08500       -4.21250
C          0.19740        4.34230       -3.96160
S          1.02010        3.02530       -3.16610
C          0.63100        5.67050       -3.99460
C          1.79370        6.23690       -3.52860
C          2.91100        5.52820       -2.90020
O          3.04570        4.32440       -2.75190
C          3.86720        6.56180       -2.46520
C          5.06040        6.36270       -1.77650
C          5.72600        7.52390       -1.46480
C          5.24030        8.79000       -1.81500
C          4.06850        8.99880       -2.50390
C          3.37490        7.83050       -2.82970
C          2.10650        7.64960       -3.53730
C          1.38350        8.65760       -4.12670
C          1.74600       10.02000       -4.10440
N          1.96990       11.14640       -4.13220
C          0.20040        8.50230       -4.87560
N         -0.74770        8.48390       -5.52640
C          6.39870        9.50280       -1.16310
C          6.15370       10.16560        0.21520
C          5.02820        9.40090        0.86640
C          5.49030        8.20200        1.19550
C          6.93700        8.13470        0.77290
C          7.35180        9.59810        0.99320
C          6.94170        8.09130       -0.77540
H         -2.96680       -6.85410        2.56050
H          1.57710       -8.52310        6.57710
H         -3.36180       -8.72530        7.67600
H         -1.54380      -10.35710       10.07500
H         -2.28750       -7.98000       11.02060
H         -1.01800       -9.27230       12.92410
H          1.58250       -9.18880       12.38790
H          1.91430       -7.84400       10.15510
H         -0.46410       -6.83970        9.41010
H         -0.12540       -6.45600       11.11320
H          1.00540      -10.27410        9.54710
H          0.98310       -6.68310        2.21780
H          4.72080       -3.13680        1.34950
H          6.63920       -3.74530        0.10790
H          6.21960       -3.84410       -1.61120
H          6.61170       -5.30960       -0.71740
H          4.31760       -5.90590       -1.86220
H          0.84450       -6.00740       -1.93750
H          1.33680       -7.31800       -0.87060
H          2.28370       -6.95940       -2.32040
H          1.47940       -2.46520        1.85700
H          1.60690       -3.88160        2.89660
H          2.93750       -2.71430        2.82080
H         -1.05620       -2.01570        1.78610
H         -1.28990       -2.84410        4.08890
H         -5.12290       -4.70810        6.83850
H         -5.49420       -5.24820        5.19000
H         -5.55720       -3.50610        5.59860
H         -5.22600       -4.25210        3.17610
H         -4.97750       -3.47040        0.88950
H         -3.29480       -2.88330       -2.74150
H         -5.14620       -1.95280       -4.07790
H         -9.23130        0.93230       -2.98530
H         -7.90390        1.48470       -1.94050
H         -8.73200       -0.07110       -1.60640
H         -6.57040        0.13650       -0.62730
H         -4.73080       -0.76920        0.68360
H          4.35350       -0.90760       -3.83260
H          6.25720       -1.26860       -2.35770
H          8.08160       -1.81310       -1.03020
H          8.83440       -0.81200        0.22780
H          7.95610       -0.02610       -1.10480
H          3.85040       -0.21110        1.01460
H          1.94470        0.20390       -0.48030
H          0.46340       -0.52510       -5.24640
H          0.68080        0.51110       -7.44280
H          0.91380        3.35570       -9.86480
H          0.27380        3.01920       -8.23480
H          0.51880        1.68710       -9.41120
H          4.09000        2.69930       -6.07820
H          3.85020        1.68280       -3.85090
H         -2.27480        2.12060       -4.37360
H          0.15640        5.83140       -8.67200
H          0.08680        7.13640       -7.45510
H          2.19740        6.30830       -6.43840
H          2.27450        4.99960       -7.61630
H          2.43380        6.67800       -8.15390
H         -2.04220        6.68000       -8.05370
H         -4.37650        6.87630       -7.36810
H         -5.21170        5.74270       -5.38280
H         -4.96820        3.76630       -2.31920
H         -5.50580        5.08040       -3.38480
H         -5.30870        2.10010       -4.09430
H         -6.79500        3.03850       -3.90720
H         -5.71020        3.35830       -5.26410
H         -0.10200        6.34690       -4.41620
H          5.39380        5.36860       -1.52210
H          3.71020        9.98080       -2.76330
H          7.00850       10.12220       -1.81790
H          6.04370       11.24630        0.18290
H          4.02690        9.77760        0.96520
H          4.95220        7.37660        1.62370
H          7.54070        7.36600        1.24840
H          7.34550        9.88400        2.04400
H          8.31480        9.84780        0.54980
H          7.90590        7.78830       -1.17930
