226

C         -4.93590        9.35300       -4.84610
C         -4.45550       10.51670       -5.37060
C         -3.12180       11.09880       -5.12820
O         -2.30340       10.75480       -4.29720
C         -2.97130       12.19330       -6.10050
C         -1.83970       12.97950       -6.30580
C         -1.97570       13.90220       -7.31450
C         -3.15430       14.03840       -8.06130
C         -4.28140       13.27760       -7.86130
C         -4.16320       12.32790       -6.84200
C         -5.12740       11.34220       -6.36100
C         -6.43640       11.25140       -6.75520
C         -7.38550       10.33910       -6.24680
N         -8.22150        9.64040       -5.88290
C         -7.04140       12.09080       -7.71470
N         -7.60130       12.73290       -8.48430
C         -2.57740       15.13450       -8.92090
C         -2.12110       14.75990      -10.35300
C         -1.76270       13.29470      -10.32060
C         -0.64770       13.16610       -9.61390
C         -0.23180       14.54220       -9.15570
C         -0.71560       15.38210      -10.34860
C         -1.26490       14.98330       -8.08890
C         -4.33250        8.43060       -3.96270
C         -4.92320        7.21530       -3.67240
C         -4.15300        6.38790       -2.84180
C         -4.44390        5.07700       -2.39530
C         -5.65950        4.39000       -2.77680
C         -6.23130        4.27370       -4.01150
C         -7.42040        3.51920       -4.00010
Cl        -8.34880        3.18730       -5.40620
C         -7.78100        3.07230       -2.75370
S         -9.20730        2.13330       -2.40050
C         -9.38720        2.36660       -0.59510
C         -8.55810        1.39020        0.21310
S         -6.60270        3.54830       -1.57420
C         -3.49440        4.47840       -1.58410
C         -2.27800        5.10270       -1.20720
C         -2.00180        6.41780       -1.62950
C         -0.80190        7.09930       -1.19400
S         -0.89750        8.74230       -0.61800
C          0.77230        8.73560       -0.16090
S          1.57020       10.07770        0.60350
C          0.13270       11.16370        0.93090
C          0.59130       12.40860        1.66260
C          1.35630        7.53750       -0.48710
C          0.46990        6.61390       -1.06760
Cl         3.00950        7.19450       -0.17060
C         -2.95240        7.03100       -2.44210
S         -2.79140        8.61210       -3.15000
C         -1.47350        4.25630       -0.41050
C         -2.02030        3.02560       -0.18520
S         -3.59060        2.85720       -0.95240
C         -1.49020        1.89950        0.50330
C         -0.50590        1.78930        1.48130
N          0.20610        2.80200        2.09550
C          1.53890        2.49600        2.45340
C          2.00890        2.73120        3.74340
C          3.28600        2.34950        4.08970
C          4.11710        1.72570        3.15950
S          5.70800        1.22520        3.72810
C          6.52090        0.59350        2.23190
C          3.66160        1.52120        1.86420
C          2.38340        1.91020        1.51650
C         -0.29840        4.07880        2.33510
C          0.56810        5.17550        2.36290
C          0.07280        6.45240        2.50470
C         -1.29750        6.66560        2.61020
S         -1.87290        8.33530        2.71200
C         -3.47880        8.23300        1.86650
C         -2.15920        5.57870        2.64410
C         -1.66390        4.29720        2.51220
C         -0.26060        0.42060        1.77620
S          0.84440       -0.41070        2.81480
C          0.30560       -1.96970        2.19880
C         -0.68620       -1.84110        1.22970
N         -1.26800       -2.83320        0.45630
C         -0.53640       -3.86440       -0.13460
C         -1.18280       -5.04430       -0.50510
C         -0.47300       -6.09960       -1.04050
C          0.90310       -6.00250       -1.20330
S          1.91130       -7.31800       -1.80990
C          0.74380       -8.31690       -2.77940
C          1.55090       -4.82260       -0.85150
C          0.84170       -3.76220       -0.33310
C         -2.58760       -2.57660        0.02490
C         -3.56420       -2.24980        0.96470
C         -4.82470       -1.87780        0.55230
C         -5.13160       -1.82550       -0.80490
S         -6.74850       -1.27530       -1.24660
C         -6.51680       -0.61210       -2.92120
C         -4.17810       -2.20650       -1.74040
C         -2.91460       -2.57810       -1.32780
C         -1.01940       -0.47560        1.04470
S         -2.12690        0.33710        0.00340
C          0.99940       -3.12570        2.64730
C          0.68300       -4.44210        2.46140
C          1.70480       -5.34070        2.84270
C          1.77610       -6.72650        2.58840
C          0.67500       -7.46840        2.01420
C          0.72520       -8.57880        1.21260
C         -0.54650       -9.07260        0.86860
Cl        -0.75670      -10.44650       -0.14530
C         -1.58570       -8.36720        1.41220
S         -3.30960       -8.58380        1.19870
C         -3.54090      -10.23110        1.97040
C         -3.17350      -10.21910        3.43960
S         -0.98130       -7.05730        2.37300
C          2.98320       -7.35220        2.90810
C          4.05860       -6.68270        3.55340
C          3.96590       -5.30070        3.85350
C          4.99310       -4.56370        4.55440
S          6.69970       -4.85310        4.34520
C          7.12020       -3.63630        5.51100
S          8.81600       -3.47040        5.89180
C          9.04350       -1.67140        6.14620
C          8.61180       -0.86540        4.94000
C          5.98730       -3.04440        6.00860
C          4.79650       -3.55110        5.45530
Cl         5.94630       -1.82110        7.21830
C          2.80530       -4.66560        3.43130
S          2.54700       -2.94030        3.45120
C          5.12390       -7.56030        3.81230
C          4.93340       -8.84140        3.33440
S          3.36340       -9.01580        2.58710
C          5.93500       -9.83460        3.42110
C          6.00500      -11.06100        2.82810
C          5.02570      -11.63640        1.88530
O          3.89420      -11.25280        1.66090
C          5.69460      -12.78600        1.25520
C          5.20380      -13.56960        0.21320
C          6.06820      -14.55400       -0.20040
C          7.32990      -14.74590        0.37970
C          7.82400      -13.98300        1.41100
C          6.95880      -12.97610        1.84950
C          7.13950      -11.96880        2.89140
C          8.16890      -11.93130        3.79370
C          9.22660      -12.86440        3.83250
N         10.11220      -13.58910        3.92530
C          8.30260      -10.99310        4.83970
N          8.47940      -10.27760        5.72050
C          7.66250      -15.89810       -0.53480
C          7.56190      -17.33170        0.04200
C          6.54790      -17.27460        1.15750
C          5.35340      -17.09380        0.61010
C          5.53810      -17.02500       -0.88580
C          6.71780      -17.99510       -1.05810
C          6.25670      -15.68500       -1.17970
H         -5.91350        9.02850       -5.18290
H         -0.95220       12.83890       -5.70880
H         -5.17800       13.39400       -8.44670
H         -3.09620       16.09030       -8.88770
H         -2.80410       15.06950      -11.13940
H         -2.36850       12.52040      -10.75360
H         -0.13600       12.26270       -9.33790
H          0.80590       14.65390       -8.85260
H         -0.71580       16.45360      -10.15370
H         -0.16050       15.17440      -11.26210
H         -0.92510       15.84100       -7.51170
H         -5.88770        6.93930       -4.05990
H         -5.80620        4.68210       -4.90950
H        -10.45170        2.21840       -0.41420
H         -9.12510        3.40190       -0.37980
H         -8.83040        0.36610       -0.02820
H         -7.49730        1.51880        0.01360
H         -8.73300        1.55870        1.27340
H         -0.57200       10.58650        1.53040
H         -0.31440       11.40800       -0.03360
H         -0.26300       13.05210        1.85950
H          1.05350       12.14340        2.61040
H          1.31460       12.96030        1.06650
H          0.78380        5.64680       -1.41340
H         -0.51030        4.54550       -0.04180
H          1.36210        3.20030        4.46930
H          3.65140        2.51390        5.09150
H          6.01620       -0.30390        1.88520
H          7.53700        0.35410        2.52760
H          6.53380        1.36430        1.46710
H          4.28320        1.05500        1.11780
H          2.02660        1.74330        0.51010
H          1.62980        5.02410        2.24070
H          0.74400        7.29690        2.51060
H         -4.23760        7.84170        2.53780
H         -3.37640        7.60890        0.98350
H         -3.73270        9.24750        1.57650
H         -3.22080        5.72050        2.77170
H         -2.34210        3.45830        2.54740
H         -2.24770       -5.14110       -0.35370
H         -1.00150       -7.00130       -1.30460
H          0.17360       -7.66620       -3.43510
H          0.09090       -8.88420       -2.12430
H          1.35400       -8.99650       -3.36590
H          2.61820       -4.74710       -0.99170
H          1.35380       -2.84370       -0.09140
H         -3.31540       -2.26710        2.01550
H         -5.58010       -1.60730        1.27360
H         -6.42350       -1.41880       -3.64220
H         -5.64200        0.03130       -2.93160
H         -7.41020       -0.03330       -3.13620
H         -4.40600       -2.20060       -2.79430
H         -2.16540       -2.84930       -2.05690
H         -0.25440       -4.75200        2.04830
H          1.62820       -9.01190        0.82610
H         -4.59930      -10.44230        1.82350
H         -2.94790      -10.95040        1.40840
H         -3.38640      -11.19130        3.87940
H         -2.11380      -10.00640        3.56980
H         -3.74660       -9.46170        3.96990
H          8.50700       -1.37770        7.04520
H         10.11560       -1.58310        6.32200
H          9.13060       -1.21110        4.04780
H          7.53910       -0.95510        4.78410
H          8.84500        0.18520        5.10080
H          3.82930       -3.20620        5.77090
H          6.02850       -7.27790        4.31900
H          6.79340       -9.51620        4.00140
H          4.22940      -13.38150       -0.20970
H          8.80060      -14.13710        1.83880
H          8.53860      -15.76560       -1.16660
H          8.51750      -17.78830        0.28470
H          6.80300      -17.31270        2.20030
H          4.41040      -16.95030        1.10420
H          4.65110      -17.20320       -1.48820
H          6.45390      -19.02500       -0.82310
H          7.17690      -17.94890       -2.04480
H          6.21490      -15.41410       -2.23300
