
  xtb     02132212493D
 energy: -360.443354710260 gnorm: 0.000920666330 xtb: 6.4.1 (unknown)
218240  0     0  0            999 V2000
   -3.6384   -4.0919    7.9625 C   0  0  0  0  0  0  0  0  0  0  0  0
   -2.4684   -4.5478    8.4670 C   0  0  0  0  0  0  0  0  0  0  0  0
   -1.1797   -4.6043    7.7145 C   0  0  0  0  0  0  0  0  0  0  0  0
   -0.9921   -4.3841    6.5386 O   0  0  0  0  0  0  0  0  0  0  0  0
   -0.1498   -4.9232    8.7163 C   0  0  0  0  0  0  0  0  0  0  0  0
    1.2188   -5.0362    8.4850 C   0  0  0  0  0  0  0  0  0  0  0  0
    1.9523   -5.3351    9.6064 C   0  0  0  0  0  0  0  0  0  0  0  0
    1.3693   -5.4998   10.8713 C   0  0  0  0  0  0  0  0  0  0  0  0
    0.0230   -5.3812   11.1149 C   0  0  0  0  0  0  0  0  0  0  0  0
   -0.7457   -5.0844    9.9832 C   0  0  0  0  0  0  0  0  0  0  0  0
   -2.1820   -4.8767    9.8575 C   0  0  0  0  0  0  0  0  0  0  0  0
   -3.1009   -4.9941   10.8659 C   0  0  0  0  0  0  0  0  0  0  0  0
   -2.7883   -5.3296   12.2006 C   0  0  0  0  0  0  0  0  0  0  0  0
   -2.6109   -5.5821   13.3065 N   0  0  0  0  0  0  0  0  0  0  0  0
   -4.4914   -4.7954   10.7309 C   0  0  0  0  0  0  0  0  0  0  0  0
   -5.6300   -4.6455   10.7101 N   0  0  0  0  0  0  0  0  0  0  0  0
    2.6942   -5.7904   11.5310 C   0  0  0  0  0  0  0  0  0  0  0  0
    3.0212   -7.2656   11.8711 C   0  0  0  0  0  0  0  0  0  0  0  0
    2.2434   -8.1134   10.8951 C   0  0  0  0  0  0  0  0  0  0  0  0
    2.7924   -7.9591    9.6976 C   0  0  0  0  0  0  0  0  0  0  0  0
    3.9522   -7.0050    9.8425 C   0  0  0  0  0  0  0  0  0  0  0  0
    4.4271   -7.3685   11.2582 C   0  0  0  0  0  0  0  0  0  0  0  0
    3.3420   -5.6089   10.1220 C   0  0  0  0  0  0  0  0  0  0  0  0
   -3.8472   -3.7566    6.5729 C   0  0  0  0  0  0  0  0  0  0  0  0
   -3.3940   -4.5509    5.5121 C   0  0  0  0  0  0  0  0  0  0  0  0
   -3.0075   -5.8130    5.7547 F   0  0  0  0  0  0  0  0  0  0  0  0
   -3.3823   -4.0955    4.2146 C   0  0  0  0  0  0  0  0  0  0  0  0
   -3.8324   -2.8043    3.9324 C   0  0  0  0  0  0  0  0  0  0  0  0
   -4.4716   -2.0819    4.9485 C   0  0  0  0  0  0  0  0  0  0  0  0
   -4.4807   -2.5552    6.2385 C   0  0  0  0  0  0  0  0  0  0  0  0
   -3.5746   -2.2026    2.6459 C   0  0  0  0  0  0  0  0  0  0  0  0
   -3.2109   -0.8872    2.4047 C   0  0  0  0  0  0  0  0  0  0  0  0
   -3.0023    0.0956    3.3619 N   0  0  0  0  0  0  0  0  0  0  0  0
   -2.3763   -0.2302    4.5748 C   0  0  0  0  0  0  0  0  0  0  0  0
   -2.7794    0.3869    5.7563 C   0  0  0  0  0  0  0  0  0  0  0  0
   -2.2481   -0.0035    6.9694 C   0  0  0  0  0  0  0  0  0  0  0  0
   -1.2990   -1.0151    7.0177 C   0  0  0  0  0  0  0  0  0  0  0  0
   -0.6134   -1.6337    8.5263 S   0  0  0  0  0  0  0  0  0  0  0  0
   -1.8781   -1.2032    9.7595 C   0  0  0  0  0  0  0  0  0  0  0  0
   -0.8342   -1.5803    5.8334 C   0  0  0  0  0  0  0  0  0  0  0  0
   -1.3718   -1.1963    4.6260 C   0  0  0  0  0  0  0  0  0  0  0  0
   -3.2028    1.4345    3.0019 C   0  0  0  0  0  0  0  0  0  0  0  0
   -2.3007    2.4235    3.3978 C   0  0  0  0  0  0  0  0  0  0  0  0
   -2.4899    3.7292    3.0090 C   0  0  0  0  0  0  0  0  0  0  0  0
   -3.5820    4.0861    2.2177 C   0  0  0  0  0  0  0  0  0  0  0  0
   -3.7017    5.7886    1.7768 S   0  0  0  0  0  0  0  0  0  0  0  0
   -5.2387    5.8921    0.8203 C   0  0  0  0  0  0  0  0  0  0  0  0
   -4.4893    3.1086    1.8352 C   0  0  0  0  0  0  0  0  0  0  0  0
   -4.2997    1.7959    2.2236 C   0  0  0  0  0  0  0  0  0  0  0  0
   -2.9207   -0.6875    1.0330 C   0  0  0  0  0  0  0  0  0  0  0  0
   -2.3247    0.6574    0.1338 S   0  0  0  0  0  0  0  0  0  0  0  0
   -2.1259   -0.3641   -1.2957 C   0  0  0  0  0  0  0  0  0  0  0  0
   -2.5121   -1.6679   -1.0662 C   0  0  0  0  0  0  0  0  0  0  0  0
   -2.4500   -2.6963   -1.9989 N   0  0  0  0  0  0  0  0  0  0  0  0
   -3.5530   -3.5277   -2.1889 C   0  0  0  0  0  0  0  0  0  0  0  0
   -4.8321   -3.0817   -1.8648 C   0  0  0  0  0  0  0  0  0  0  0  0
   -5.9368   -3.8844   -2.0644 C   0  0  0  0  0  0  0  0  0  0  0  0
   -5.7874   -5.1499   -2.6112 C   0  0  0  0  0  0  0  0  0  0  0  0
   -7.1345   -6.2407   -2.9498 S   0  0  0  0  0  0  0  0  0  0  0  0
   -8.6018   -5.2234   -2.6205 C   0  0  0  0  0  0  0  0  0  0  0  0
   -4.5092   -5.6106   -2.9193 C   0  0  0  0  0  0  0  0  0  0  0  0
   -3.4051   -4.8169   -2.7038 C   0  0  0  0  0  0  0  0  0  0  0  0
   -1.2108   -2.9488   -2.6116 C   0  0  0  0  0  0  0  0  0  0  0  0
   -1.1102   -3.1347   -3.9867 C   0  0  0  0  0  0  0  0  0  0  0  0
    0.1242   -3.3085   -4.5820 C   0  0  0  0  0  0  0  0  0  0  0  0
    1.2776   -3.3131   -3.8069 C   0  0  0  0  0  0  0  0  0  0  0  0
    2.9124   -3.4477   -4.4584 S   0  0  0  0  0  0  0  0  0  0  0  0
    2.6604   -3.8224   -6.2154 C   0  0  0  0  0  0  0  0  0  0  0  0
    1.1753   -3.1826   -2.4239 C   0  0  0  0  0  0  0  0  0  0  0  0
   -0.0537   -2.9944   -1.8320 C   0  0  0  0  0  0  0  0  0  0  0  0
   -2.9920   -1.8312    0.2613 C   0  0  0  0  0  0  0  0  0  0  0  0
   -3.4910   -3.1948    1.1968 S   0  0  0  0  0  0  0  0  0  0  0  0
   -1.4677    0.2879   -2.3933 C   0  0  0  0  0  0  0  0  0  0  0  0
   -1.8125    1.5392   -2.8825 C   0  0  0  0  0  0  0  0  0  0  0  0
   -3.0276    2.1504   -2.6201 N   0  0  0  0  0  0  0  0  0  0  0  0
   -3.0464    3.5264   -2.3451 C   0  0  0  0  0  0  0  0  0  0  0  0
   -4.0536    4.3347   -2.8624 C   0  0  0  0  0  0  0  0  0  0  0  0
   -4.0670    5.6920   -2.6064 C   0  0  0  0  0  0  0  0  0  0  0  0
   -3.0632    6.2652   -1.8358 C   0  0  0  0  0  0  0  0  0  0  0  0
   -2.9878    7.9808   -1.4315 S   0  0  0  0  0  0  0  0  0  0  0  0
   -4.2719    8.7298   -2.4768 C   0  0  0  0  0  0  0  0  0  0  0  0
   -2.0553    5.4572   -1.3129 C   0  0  0  0  0  0  0  0  0  0  0  0
   -2.0474    4.1030   -1.5609 C   0  0  0  0  0  0  0  0  0  0  0  0
   -4.2058    1.3994   -2.6001 C   0  0  0  0  0  0  0  0  0  0  0  0
   -4.3912    0.3309   -3.4794 C   0  0  0  0  0  0  0  0  0  0  0  0
   -5.5719   -0.3765   -3.4748 C   0  0  0  0  0  0  0  0  0  0  0  0
   -6.5942   -0.0437   -2.5879 C   0  0  0  0  0  0  0  0  0  0  0  0
   -8.0657   -1.0205   -2.6732 S   0  0  0  0  0  0  0  0  0  0  0  0
   -9.2514   -0.1140   -1.6387 C   0  0  0  0  0  0  0  0  0  0  0  0
   -6.4057    0.9993   -1.6923 C   0  0  0  0  0  0  0  0  0  0  0  0
   -5.2230    1.7128   -1.7029 C   0  0  0  0  0  0  0  0  0  0  0  0
   -0.7625    2.1003   -3.6482 C   0  0  0  0  0  0  0  0  0  0  0  0
   -0.4430    3.6170   -4.4179 S   0  0  0  0  0  0  0  0  0  0  0  0
    1.2236    3.1430   -4.7671 C   0  0  0  0  0  0  0  0  0  0  0  0
    1.4924    1.8439   -4.3250 C   0  0  0  0  0  0  0  0  0  0  0  0
    2.7496    1.2752   -4.1052 N   0  0  0  0  0  0  0  0  0  0  0  0
    3.4718    0.6425   -5.1221 C   0  0  0  0  0  0  0  0  0  0  0  0
    4.8642    0.6275   -5.0765 C   0  0  0  0  0  0  0  0  0  0  0  0
    5.5805    0.0216   -6.0829 C   0  0  0  0  0  0  0  0  0  0  0  0
    4.9211   -0.5678   -7.1602 C   0  0  0  0  0  0  0  0  0  0  0  0
    5.9417   -1.2931   -8.4079 S   0  0  0  0  0  0  0  0  0  0  0  0
    4.7690   -1.8028   -9.6964 C   0  0  0  0  0  0  0  0  0  0  0  0
    3.5355   -0.5639   -7.2025 C   0  0  0  0  0  0  0  0  0  0  0  0
    2.8149    0.0302   -6.1836 C   0  0  0  0  0  0  0  0  0  0  0  0
    2.9472    0.9056   -2.7604 C   0  0  0  0  0  0  0  0  0  0  0  0
    2.5136    1.7798   -1.7624 C   0  0  0  0  0  0  0  0  0  0  0  0
    2.4637    1.3778   -0.4446 C   0  0  0  0  0  0  0  0  0  0  0  0
    2.8746    0.0973   -0.0977 C   0  0  0  0  0  0  0  0  0  0  0  0
    2.7084   -0.5594    1.5339 S   0  0  0  0  0  0  0  0  0  0  0  0
    1.3969    0.4733    2.2560 C   0  0  0  0  0  0  0  0  0  0  0  0
    3.4321   -0.7274   -1.0713 C   0  0  0  0  0  0  0  0  0  0  0  0
    3.4639   -0.3355   -2.3923 C   0  0  0  0  0  0  0  0  0  0  0  0
    0.3514    1.2802   -3.7164 C   0  0  0  0  0  0  0  0  0  0  0  0
    0.1139   -0.2368   -2.9318 S   0  0  0  0  0  0  0  0  0  0  0  0
    2.1589    4.1399   -5.1086 C   0  0  0  0  0  0  0  0  0  0  0  0
    3.2982    3.9368   -5.8431 C   0  0  0  0  0  0  0  0  0  0  0  0
    3.3910    2.9804   -6.9625 C   0  0  0  0  0  0  0  0  0  0  0  0
    2.5123    2.2460   -7.3701 O   0  0  0  0  0  0  0  0  0  0  0  0
    4.7025    3.2251   -7.5918 C   0  0  0  0  0  0  0  0  0  0  0  0
    5.2516    2.5531   -8.6802 C   0  0  0  0  0  0  0  0  0  0  0  0
    6.4984    2.9994   -9.0478 C   0  0  0  0  0  0  0  0  0  0  0  0
    7.1441    4.0579   -8.3949 C   0  0  0  0  0  0  0  0  0  0  0  0
    6.6086    4.7413   -7.3293 C   0  0  0  0  0  0  0  0  0  0  0  0
    5.3483    4.2892   -6.9301 C   0  0  0  0  0  0  0  0  0  0  0  0
    4.4926    4.7449   -5.8389 C   0  0  0  0  0  0  0  0  0  0  0  0
    4.8130    5.6783   -4.8842 C   0  0  0  0  0  0  0  0  0  0  0  0
    4.0105    5.9478   -3.7570 C   0  0  0  0  0  0  0  0  0  0  0  0
    3.4200    6.1757   -2.7982 N   0  0  0  0  0  0  0  0  0  0  0  0
    5.9920    6.4483   -4.8821 C   0  0  0  0  0  0  0  0  0  0  0  0
    6.9255    7.1156   -4.8347 N   0  0  0  0  0  0  0  0  0  0  0  0
    8.3485    3.9876   -9.2992 C   0  0  0  0  0  0  0  0  0  0  0  0
    9.6323    3.3228   -8.7458 C   0  0  0  0  0  0  0  0  0  0  0  0
    9.1885    2.3339   -7.6958 C   0  0  0  0  0  0  0  0  0  0  0  0
    8.5842    1.3295   -8.3159 C   0  0  0  0  0  0  0  0  0  0  0  0
    8.6040    1.6226   -9.7946 C   0  0  0  0  0  0  0  0  0  0  0  0
    9.9463    2.3634   -9.9051 C   0  0  0  0  0  0  0  0  0  0  0  0
    7.6316    2.8057  -10.0251 C   0  0  0  0  0  0  0  0  0  0  0  0
   -4.4603   -3.8655    8.6300 H   0  0  0  0  0  0  0  0  0  0  0  0
    1.6260   -4.8960    7.4962 H   0  0  0  0  0  0  0  0  0  0  0  0
   -0.4078   -5.5018   12.0949 H   0  0  0  0  0  0  0  0  0  0  0  0
    2.9933   -5.1056   12.3219 H   0  0  0  0  0  0  0  0  0  0  0  0
    2.9125   -7.5211   12.9217 H   0  0  0  0  0  0  0  0  0  0  0  0
    1.3661   -8.6754   11.1570 H   0  0  0  0  0  0  0  0  0  0  0  0
    2.4651   -8.3659    8.7588 H   0  0  0  0  0  0  0  0  0  0  0  0
    4.6913   -7.0230    9.0459 H   0  0  0  0  0  0  0  0  0  0  0  0
    5.1358   -6.6541   11.6751 H   0  0  0  0  0  0  0  0  0  0  0  0
    4.8400   -8.3743   11.3185 H   0  0  0  0  0  0  0  0  0  0  0  0
    4.0651   -4.8062    9.9918 H   0  0  0  0  0  0  0  0  0  0  0  0
   -2.9703   -4.7197    3.4372 H   0  0  0  0  0  0  0  0  0  0  0  0
   -4.9438   -1.1403    4.7172 H   0  0  0  0  0  0  0  0  0  0  0  0
   -4.9251   -1.9642    7.0258 H   0  0  0  0  0  0  0  0  0  0  0  0
   -3.5289    1.1640    5.7229 H   0  0  0  0  0  0  0  0  0  0  0  0
   -2.5902    0.4792    7.8710 H   0  0  0  0  0  0  0  0  0  0  0  0
   -1.8475   -0.1408    9.9822 H   0  0  0  0  0  0  0  0  0  0  0  0
   -1.6257   -1.7679   10.6521 H   0  0  0  0  0  0  0  0  0  0  0  0
   -2.8563   -1.5003    9.3924 H   0  0  0  0  0  0  0  0  0  0  0  0
   -0.0685   -2.3374    5.8698 H   0  0  0  0  0  0  0  0  0  0  0  0
   -1.0247   -1.6590    3.7148 H   0  0  0  0  0  0  0  0  0  0  0  0
   -1.4468    2.1538    4.0011 H   0  0  0  0  0  0  0  0  0  0  0  0
   -1.7884    4.4937    3.3051 H   0  0  0  0  0  0  0  0  0  0  0  0
   -5.3362    6.9398    0.5533 H   0  0  0  0  0  0  0  0  0  0  0  0
   -5.1588    5.2896   -0.0804 H   0  0  0  0  0  0  0  0  0  0  0  0
   -6.0819    5.5879    1.4337 H   0  0  0  0  0  0  0  0  0  0  0  0
   -5.3549    3.3566    1.2421 H   0  0  0  0  0  0  0  0  0  0  0  0
   -5.0104    1.0406    1.9198 H   0  0  0  0  0  0  0  0  0  0  0  0
   -4.9701   -2.0895   -1.4635 H   0  0  0  0  0  0  0  0  0  0  0  0
   -6.9075   -3.4987   -1.8028 H   0  0  0  0  0  0  0  0  0  0  0  0
   -9.4503   -5.8272   -2.9268 H   0  0  0  0  0  0  0  0  0  0  0  0
   -8.5603   -4.3122   -3.2102 H   0  0  0  0  0  0  0  0  0  0  0  0
   -8.6718   -5.0022   -1.5593 H   0  0  0  0  0  0  0  0  0  0  0  0
   -4.3927   -6.6034   -3.3260 H   0  0  0  0  0  0  0  0  0  0  0  0
   -2.4201   -5.1942   -2.9328 H   0  0  0  0  0  0  0  0  0  0  0  0
   -2.0047   -3.1202   -4.5919 H   0  0  0  0  0  0  0  0  0  0  0  0
    0.1729   -3.4247   -5.6527 H   0  0  0  0  0  0  0  0  0  0  0  0
    3.6565   -3.9528   -6.6273 H   0  0  0  0  0  0  0  0  0  0  0  0
    2.0916   -4.7419   -6.3197 H   0  0  0  0  0  0  0  0  0  0  0  0
    2.1653   -2.9886   -6.7034 H   0  0  0  0  0  0  0  0  0  0  0  0
    2.0700   -3.2161   -1.8236 H   0  0  0  0  0  0  0  0  0  0  0  0
   -0.1260   -2.8770   -0.7611 H   0  0  0  0  0  0  0  0  0  0  0  0
   -4.8302    3.8949   -3.4711 H   0  0  0  0  0  0  0  0  0  0  0  0
   -4.8628    6.2904   -3.0204 H   0  0  0  0  0  0  0  0  0  0  0  0
   -4.1797    9.8010   -2.3273 H   0  0  0  0  0  0  0  0  0  0  0  0
   -4.0878    8.4855   -3.5187 H   0  0  0  0  0  0  0  0  0  0  0  0
   -5.2588    8.4009   -2.1629 H   0  0  0  0  0  0  0  0  0  0  0  0
   -1.2872    5.9058   -0.7029 H   0  0  0  0  0  0  0  0  0  0  0  0
   -1.2730    3.4785   -1.1406 H   0  0  0  0  0  0  0  0  0  0  0  0
   -3.6092    0.0682   -4.1756 H   0  0  0  0  0  0  0  0  0  0  0  0
   -5.7193   -1.1956   -4.1618 H   0  0  0  0  0  0  0  0  0  0  0  0
  -10.2046   -0.6146   -1.7775 H   0  0  0  0  0  0  0  0  0  0  0  0
   -8.9588   -0.1674   -0.5939 H   0  0  0  0  0  0  0  0  0  0  0  0
   -9.3216    0.9153   -1.9778 H   0  0  0  0  0  0  0  0  0  0  0  0
   -7.1679    1.2644   -0.9767 H   0  0  0  0  0  0  0  0  0  0  0  0
   -5.0744    2.5195   -1.0014 H   0  0  0  0  0  0  0  0  0  0  0  0
    5.3738    1.0983   -4.2490 H   0  0  0  0  0  0  0  0  0  0  0  0
    6.6589    0.0113   -6.0498 H   0  0  0  0  0  0  0  0  0  0  0  0
    4.1226   -2.5937   -9.3260 H   0  0  0  0  0  0  0  0  0  0  0  0
    4.1907   -0.9470  -10.0323 H   0  0  0  0  0  0  0  0  0  0  0  0
    5.3777   -2.1799  -10.5125 H   0  0  0  0  0  0  0  0  0  0  0  0
    3.0006   -1.0075   -8.0267 H   0  0  0  0  0  0  0  0  0  0  0  0
    1.7358    0.0291   -6.2128 H   0  0  0  0  0  0  0  0  0  0  0  0
    2.1839    2.7740   -2.0269 H   0  0  0  0  0  0  0  0  0  0  0  0
    2.0956    2.0660    0.2993 H   0  0  0  0  0  0  0  0  0  0  0  0
    0.5665    0.5481    1.5593 H   0  0  0  0  0  0  0  0  0  0  0  0
    1.7830    1.4564    2.5091 H   0  0  0  0  0  0  0  0  0  0  0  0
    1.0814   -0.0374    3.1611 H   0  0  0  0  0  0  0  0  0  0  0  0
    3.8051   -1.6988   -0.7856 H   0  0  0  0  0  0  0  0  0  0  0  0
    3.8377   -1.0120   -3.1452 H   0  0  0  0  0  0  0  0  0  0  0  0
    1.9561    5.1254   -4.7058 H   0  0  0  0  0  0  0  0  0  0  0  0
    4.7145    1.7529   -9.1639 H   0  0  0  0  0  0  0  0  0  0  0  0
    7.1096    5.5632   -6.8448 H   0  0  0  0  0  0  0  0  0  0  0  0
    8.5622    4.8853   -9.8763 H   0  0  0  0  0  0  0  0  0  0  0  0
   10.4099    4.0216   -8.4486 H   0  0  0  0  0  0  0  0  0  0  0  0
    9.3082    2.4897   -6.6395 H   0  0  0  0  0  0  0  0  0  0  0  0
    8.0998    0.4704   -7.8924 H   0  0  0  0  0  0  0  0  0  0  0  0
    8.4439    0.7711  -10.4505 H   0  0  0  0  0  0  0  0  0  0  0  0
   10.0879    2.8683  -10.8599 H   0  0  0  0  0  0  0  0  0  0  0  0
   10.7998    1.7192   -9.6994 H   0  0  0  0  0  0  0  0  0  0  0  0
    7.3782    2.9337  -11.0761 H   0  0  0  0  0  0  0  0  0  0  0  0
  1  2  2  0  0  0  0
  2  3  1  0  0  0  0
  3  4  2  0  0  0  0
  3  5  1  0  0  0  0
  5  6  2  0  0  0  0
  6  7  1  0  0  0  0
  7  8  2  0  0  0  0
  8  9  1  0  0  0  0
  9 10  2  0  0  0  0
 10 11  1  0  0  0  0
 11 12  2  0  0  0  0
 12 13  1  0  0  0  0
 13 14  3  0  0  0  0
 12 15  1  0  0  0  0
 15 16  3  0  0  0  0
  8 17  1  0  0  0  0
 17 18  1  0  0  0  0
 18 19  1  0  0  0  0
 19 20  2  0  0  0  0
 20 21  1  0  0  0  0
 21 22  1  0  0  0  0
 21 23  1  0  0  0  0
  1 24  1  0  0  0  0
 24 25  2  0  0  0  0
 25 26  1  0  0  0  0
 25 27  1  0  0  0  0
 27 28  2  0  0  0  0
 28 29  1  0  0  0  0
 29 30  2  0  0  0  0
 28 31  1  0  0  0  0
 31 32  2  0  0  0  0
 32 33  1  0  0  0  0
 33 34  1  0  0  0  0
 34 35  2  0  0  0  0
 35 36  1  0  0  0  0
 36 37  2  0  0  0  0
 37 38  1  0  0  0  0
 38 39  1  0  0  0  0
 37 40  1  0  0  0  0
 40 41  2  0  0  0  0
 33 42  1  0  0  0  0
 42 43  2  0  0  0  0
 43 44  1  0  0  0  0
 44 45  2  0  0  0  0
 45 46  1  0  0  0  0
 46 47  1  0  0  0  0
 45 48  1  0  0  0  0
 48 49  2  0  0  0  0
 32 50  1  0  0  0  0
 50 51  1  0  0  0  0
 51 52  1  0  0  0  0
 52 53  2  0  0  0  0
 53 54  1  0  0  0  0
 54 55  1  0  0  0  0
 55 56  2  0  0  0  0
 56 57  1  0  0  0  0
 57 58  2  0  0  0  0
 58 59  1  0  0  0  0
 59 60  1  0  0  0  0
 58 61  1  0  0  0  0
 61 62  2  0  0  0  0
 54 63  1  0  0  0  0
 63 64  2  0  0  0  0
 64 65  1  0  0  0  0
 65 66  2  0  0  0  0
 66 67  1  0  0  0  0
 67 68  1  0  0  0  0
 66 69  1  0  0  0  0
 69 70  2  0  0  0  0
 53 71  1  0  0  0  0
 71 72  1  0  0  0  0
 52 73  1  0  0  0  0
 73 74  2  0  0  0  0
 74 75  1  0  0  0  0
 75 76  1  0  0  0  0
 76 77  2  0  0  0  0
 77 78  1  0  0  0  0
 78 79  2  0  0  0  0
 79 80  1  0  0  0  0
 80 81  1  0  0  0  0
 79 82  1  0  0  0  0
 82 83  2  0  0  0  0
 75 84  1  0  0  0  0
 84 85  2  0  0  0  0
 85 86  1  0  0  0  0
 86 87  2  0  0  0  0
 87 88  1  0  0  0  0
 88 89  1  0  0  0  0
 87 90  1  0  0  0  0
 90 91  2  0  0  0  0
 74 92  1  0  0  0  0
 92 93  1  0  0  0  0
 93 94  1  0  0  0  0
 94 95  2  0  0  0  0
 95 96  1  0  0  0  0
 96 97  1  0  0  0  0
 97 98  2  0  0  0  0
 98 99  1  0  0  0  0
 99100  2  0  0  0  0
100101  1  0  0  0  0
101102  1  0  0  0  0
100103  1  0  0  0  0
103104  2  0  0  0  0
 96105  1  0  0  0  0
105106  2  0  0  0  0
106107  1  0  0  0  0
107108  2  0  0  0  0
108109  1  0  0  0  0
109110  1  0  0  0  0
108111  1  0  0  0  0
111112  2  0  0  0  0
 95113  1  0  0  0  0
113114  1  0  0  0  0
 94115  1  0  0  0  0
115116  2  0  0  0  0
116117  1  0  0  0  0
117118  2  0  0  0  0
117119  1  0  0  0  0
119120  2  0  0  0  0
120121  1  0  0  0  0
121122  2  0  0  0  0
122123  1  0  0  0  0
123124  2  0  0  0  0
124125  1  0  0  0  0
125126  2  0  0  0  0
126127  1  0  0  0  0
127128  3  0  0  0  0
126129  1  0  0  0  0
129130  3  0  0  0  0
122131  1  0  0  0  0
131132  1  0  0  0  0
132133  1  0  0  0  0
133134  2  0  0  0  0
134135  1  0  0  0  0
135136  1  0  0  0  0
135137  1  0  0  0  0
 11  2  1  0  0  0  0
 23 17  1  0  0  0  0
 30 24  1  0  0  0  0
 72 31  1  0  0  0  0
114 73  1  0  0  0  0
125116  1  0  0  0  0
137131  1  0  0  0  0
 10  5  1  0  0  0  0
 22 18  1  0  0  0  0
 41 34  1  0  0  0  0
 49 42  1  0  0  0  0
 71 50  2  0  0  0  0
 83 76  1  0  0  0  0
 91 84  1  0  0  0  0
113 92  2  0  0  0  0
124119  1  0  0  0  0
136132  1  0  0  0  0
 23  7  1  0  0  0  0
 62 55  1  0  0  0  0
 70 63  1  0  0  0  0
104 97  1  0  0  0  0
112105  1  0  0  0  0
137121  1  0  0  0  0
  1138  1  0  0  0  0
  6139  1  0  0  0  0
  9140  1  0  0  0  0
 17141  1  0  0  0  0
 18142  1  0  0  0  0
 19143  1  0  0  0  0
 20144  1  0  0  0  0
 21145  1  0  0  0  0
 22146  1  0  0  0  0
 22147  1  0  0  0  0
 23148  1  0  0  0  0
 27149  1  0  0  0  0
 29150  1  0  0  0  0
 30151  1  0  0  0  0
 35152  1  0  0  0  0
 36153  1  0  0  0  0
 39154  1  0  0  0  0
 39155  1  0  0  0  0
 39156  1  0  0  0  0
 40157  1  0  0  0  0
 41158  1  0  0  0  0
 43159  1  0  0  0  0
 44160  1  0  0  0  0
 47161  1  0  0  0  0
 47162  1  0  0  0  0
 47163  1  0  0  0  0
 48164  1  0  0  0  0
 49165  1  0  0  0  0
 56166  1  0  0  0  0
 57167  1  0  0  0  0
 60168  1  0  0  0  0
 60169  1  0  0  0  0
 60170  1  0  0  0  0
 61171  1  0  0  0  0
 62172  1  0  0  0  0
 64173  1  0  0  0  0
 65174  1  0  0  0  0
 68175  1  0  0  0  0
 68176  1  0  0  0  0
 68177  1  0  0  0  0
 69178  1  0  0  0  0
 70179  1  0  0  0  0
 77180  1  0  0  0  0
 78181  1  0  0  0  0
 81182  1  0  0  0  0
 81183  1  0  0  0  0
 81184  1  0  0  0  0
 82185  1  0  0  0  0
 83186  1  0  0  0  0
 85187  1  0  0  0  0
 86188  1  0  0  0  0
 89189  1  0  0  0  0
 89190  1  0  0  0  0
 89191  1  0  0  0  0
 90192  1  0  0  0  0
 91193  1  0  0  0  0
 98194  1  0  0  0  0
 99195  1  0  0  0  0
102196  1  0  0  0  0
102197  1  0  0  0  0
102198  1  0  0  0  0
103199  1  0  0  0  0
104200  1  0  0  0  0
106201  1  0  0  0  0
107202  1  0  0  0  0
110203  1  0  0  0  0
110204  1  0  0  0  0
110205  1  0  0  0  0
111206  1  0  0  0  0
112207  1  0  0  0  0
115208  1  0  0  0  0
120209  1  0  0  0  0
123210  1  0  0  0  0
131211  1  0  0  0  0
132212  1  0  0  0  0
133213  1  0  0  0  0
134214  1  0  0  0  0
135215  1  0  0  0  0
136216  1  0  0  0  0
136217  1  0  0  0  0
137218  1  0  0  0  0
M  END
