146

C         -4.51030        3.18180        7.73110
C         -4.73500        4.49880        7.51990
C         -4.08500        5.32750        6.46030
O         -3.42960        4.95390        5.51350
C         -4.33990        6.72630        6.84500
C         -3.87370        7.86200        6.18470
C         -4.27850        9.04490        6.75220
C         -5.08140        9.09820        7.90130
C         -5.53800        7.98780        8.56900
C         -5.14470        6.77050        8.00190
C         -5.44630        5.40580        8.41300
C         -6.31490        5.03310        9.40090
C         -7.01330        5.93450       10.23290
N         -7.60600        6.61230       10.94450
C         -6.67230        3.69910        9.69970
N         -7.04450        2.65190        9.98880
C         -5.11330       10.60580        7.90430
C         -6.39950       11.29780        7.38820
C         -7.04290       10.34030        6.41550
C         -6.28140       10.29210        5.33070
C         -5.10860       11.21560        5.55040
C         -5.77680       12.30340        6.40630
C         -4.21790       10.54630        6.62660
C         -3.86280        2.28260        6.80250
C         -2.97200        1.30670        7.26330
F         -2.71900        1.23390        8.58600
C         -2.30440        0.44820        6.41880
C         -2.53970        0.52230        5.04710
C         -3.47110        1.44800        4.57040
C         -4.11570        2.30960        5.42860
C         -1.79040       -0.30330        4.09710
C         -2.38220       -0.86070        2.98250
F         -3.71370       -0.79650        2.81450
C         -1.64860       -1.51370        1.98240
F         -2.34080       -1.99590        0.94090
C         -0.27040       -1.64140        2.03710
C          0.36280       -1.15440        3.22140
N          1.68510       -1.30880        3.38270
C          2.28400       -0.85360        4.45610
C          3.75710       -1.12860        4.52550
C          4.01850       -2.62790        4.69310
C          1.53800       -0.15640        5.44770
N          0.24600        0.00320        5.30760
C         -0.38610       -0.49340        4.23050
C          2.13580        0.41770        6.69550
C          2.36410       -0.67030        7.74720
C          0.49450       -2.17250        0.93680
C          1.84770       -2.34460        0.80580
C          2.08050       -2.78360       -0.51810
C          3.25740       -3.06300       -1.24380
C          4.58750       -3.07550       -0.70250
C          4.99930       -3.10770        0.60620
C          6.39840       -3.12760        0.71640
F          7.01470       -3.15600        1.91650
C          7.08260       -3.11120       -0.46560
C          8.55500       -3.13890       -0.68650
C          8.96750       -4.30100       -1.58980
S          5.96190       -3.08510       -1.77860
C          3.02090       -3.31700       -2.59240
C          1.74120       -3.37650       -3.20810
C          0.55490       -3.16010       -2.46530
C         -0.77090       -3.22370       -3.01280
S         -1.06110       -3.45800       -4.71920
C         -2.77260       -3.41720       -4.51560
C         -3.70920       -3.60210       -5.65820
C         -3.60680       -5.01410       -6.23710
C         -3.06920       -3.23590       -3.19310
C         -1.96470       -3.12080       -2.33710
F         -4.33580       -3.16800       -2.74710
C          0.79610       -2.84470       -1.12350
O         -0.14470       -2.49330       -0.22140
C          2.00520       -3.64480       -4.57000
C          3.37550       -3.71520       -4.71310
O          3.98600       -3.53070       -3.50100
C          4.26880       -3.88720       -5.79640
C          4.04120       -3.99210       -7.13530
C          2.74190       -3.95090       -7.85170
O          1.62080       -3.98040       -7.38910
C          3.07610       -3.86930       -9.28370
C          2.17310       -3.73100      -10.33550
C          2.76470       -3.63900      -11.57120
C          4.15470       -3.68490      -11.74890
C          5.05500       -3.83510      -10.72130
C          4.47350       -3.92820       -9.45250
C          5.09470       -4.07010       -8.13870
C          6.43190       -4.26760       -7.91420
C          7.05570       -4.44530       -6.65950
N          7.66320       -4.60630       -5.69750
C          7.40650       -4.34910       -8.93240
N          8.25780       -4.42670       -9.69880
C          4.04880       -3.49640      -13.24140
C          4.36210       -2.08960      -13.81030
C          4.06500       -1.10340      -12.70790
C          2.74960       -1.06520      -12.54190
C          2.13350       -2.02620      -13.52880
C          3.12270       -1.88600      -14.69660
C          2.50080       -3.45080      -13.04370
H         -4.78580        2.74490        8.68410
H         -3.25630        7.77460        5.30430
H         -6.14460        8.04430        9.45750
H         -4.70850       11.09060        8.79030
H         -7.04330       11.69250        8.16930
H         -7.92850        9.77210        6.63220
H         -6.40310        9.67540        4.45940
H         -4.57590       11.53630        4.65910
H         -6.52450       12.87160        5.85530
H         -5.06760       12.98490        6.87410
H         -3.22520       10.98920        6.67830
H         -1.60790       -0.26540        6.82470
H         -3.67220        1.51500        3.51330
H         -4.84010        3.00660        5.04110
H          4.20380       -0.80190        3.58350
H          4.22400       -0.57600        5.33860
H          5.08280       -2.83320        4.61240
H          3.66870       -2.97690        5.66240
H          3.49200       -3.18650        3.92320
H          1.43390        1.15420        7.08840
H          3.07810        0.91860        6.46730
H          2.76200       -0.22840        8.65700
H          3.06690       -1.41920        7.39130
H          1.42480       -1.16330        7.98570
H          2.55830       -2.12560        1.57020
H          4.35120       -3.15510        1.45850
H          8.87040       -2.19840       -1.14830
H          9.04810       -3.22170        0.28490
H          8.49260       -4.21220       -2.56420
H         10.04540       -4.30260       -1.72790
H          8.67310       -5.24940       -1.14620
H         -4.72550       -3.41590       -5.30510
H         -3.47690       -2.87650       -6.44180
H         -2.60020       -5.19620       -6.60680
H         -4.30870       -5.13340       -7.05840
H         -3.83600       -5.75450       -5.47420
H         -2.06300       -2.97430       -1.27990
H          1.30760       -3.76830       -5.37030
H          5.29940       -3.88160       -5.46200
H          1.11090       -3.69540      -10.15030
H          6.12020       -3.86720      -10.87730
H          4.46290       -4.29340      -13.85560
H          5.33640       -2.00140      -14.28310
H          4.82150       -0.59300      -12.14100
H          2.18780       -0.51700      -11.80830
H          1.07850       -1.88090      -13.74570
H          3.09240       -0.89980      -15.15760
H          3.00420       -2.65320      -15.46060
H          1.90220       -4.22150      -13.52520
