178

C         -5.49030       -3.43300        4.13240
C         -5.43440       -3.15330        5.47070
C         -4.37310       -2.39300        6.13430
O         -3.32820       -1.99640        5.64350
C         -4.82210       -2.17920        7.52100
C         -4.16050       -1.46340        8.51560
C         -4.84040       -1.40670        9.70840
C         -6.08340       -2.02390        9.89980
C         -6.74260       -2.74020        8.92870
C         -6.07310       -2.80440        7.70390
C         -6.46600       -3.44250        6.44790
C         -7.61260       -4.16610        6.24850
C         -8.59420       -4.39510        7.23520
N         -9.43400       -4.62170        7.98490
C         -7.98580       -4.80240        5.04600
N         -8.36140       -5.36130        4.11510
C         -6.19350       -1.54090       11.32410
C         -7.13410       -0.34260       11.60470
C         -7.21010        0.45140       10.32430
C         -6.03430        1.03690       10.14050
C         -5.14200        0.65000       11.29410
C         -6.18350        0.54860       12.41990
C         -4.80900       -0.85170       11.11000
C         -4.63280       -3.03820        3.09350
C         -4.97980       -3.23850        1.76080
C         -4.12180       -2.62130        0.86080
S         -4.23820       -2.61960       -0.89170
C         -5.54830       -3.84690       -1.22410
C         -5.08610       -5.27080       -0.98310
C         -3.08020       -1.95410        1.50110
S         -3.14830       -2.13160        3.22010
C         -2.16450       -1.05630        0.86020
C         -2.53340        0.01680        0.06490
N         -3.84170        0.40970       -0.17800
C         -4.78070        0.31090        0.85730
C         -4.41300        0.65070        2.15690
C         -5.26930        0.43510        3.21820
C         -6.51990       -0.12130        2.99480
S         -7.63910       -0.56770        4.29040
C         -6.93700        0.22930        5.76230
C         -6.92230       -0.39590        1.68900
C         -6.06760       -0.17870        0.63040
C         -4.19040        0.84310       -1.45960
C         -3.53100        0.33200       -2.57950
C         -3.84720        0.78470       -3.83890
C         -4.83470        1.75120       -4.01670
S         -5.14220        2.25490       -5.68250
C         -6.44480        3.50890       -5.53060
C         -5.50690        2.24890       -2.90930
C         -5.18290        1.80140       -1.64270
C         -1.39370        0.70660       -0.41360
S         -1.15830        2.10350       -1.40590
C          0.56250        1.93840       -1.23970
C          0.93850        0.86410       -0.46890
N          2.28310        0.50050       -0.25760
C          2.85930       -0.44710       -1.09720
C          4.13810       -0.94140       -0.83930
C          4.74070       -1.83590       -1.69930
C          4.06270       -2.28770       -2.82160
S          4.76800       -3.37510       -4.03460
C          6.20850       -4.08800       -3.18530
C          2.76010       -1.85880       -3.04610
C          2.16270       -0.95600       -2.19530
C          3.05300        1.44330        0.45160
C          4.24830        1.95170       -0.04990
C          4.93970        2.92530        0.64350
C          4.43910        3.41800        1.84160
S          5.24290        4.67990        2.78010
C          6.27380        5.51670        1.53950
C          3.25130        2.90280        2.35190
C          2.56460        1.92590        1.66490
C         -0.19170        0.16900        0.02100
S         -0.42880       -1.17900        1.07400
C          1.52120        2.71850       -2.02190
C          2.27740        3.74610       -1.51260
F          1.99580        4.26180       -0.30740
C          3.39550        4.24250       -2.20700
F          4.14590        5.18480       -1.61030
C          3.81040        3.69710       -3.40090
C          2.97140        2.71740       -4.00710
N          3.28700        2.20830       -5.20850
C          2.52310        1.28640       -5.73920
C          2.98110        0.71660       -7.04590
C          3.76830       -0.57530       -6.80940
C          1.34030        0.85250       -5.07230
N          1.02470        1.33690       -3.89900
C          1.82200        2.25480       -3.32860
C          0.34600       -0.08920       -5.67870
C         -0.67580        0.69840       -6.50450
C          5.06600        4.04430       -4.04230
C          5.91180        3.07560       -4.44980
C          5.76450        1.64310       -4.05160
O          5.04230        1.19000       -3.18880
C          6.76510        0.90880       -4.83260
C          6.93590       -0.47390       -4.86710
C          7.94810       -0.89120       -5.69450
C          8.74080        0.00310       -6.42990
C          8.58650        1.36840       -6.40130
C          7.55790        1.81790       -5.56480
C          7.09840        3.17500       -5.29080
C          7.67170        4.32860       -5.75010
C          7.20150        5.62920       -5.46670
N          6.87920        6.71450       -5.27790
C          8.83020        4.38070       -6.55480
N          9.76920        4.49520       -7.20480
C          9.56300       -1.10580       -7.03760
C         10.97750       -1.35460       -6.45760
C         10.94520       -0.88020       -5.02590
C         10.19320       -1.72690       -4.33540
C          9.70180       -2.78870       -5.28830
C         10.90490       -2.87460       -6.24090
C          8.67640       -2.10010       -6.22270
H         -6.36470       -3.96500        3.77920
H         -3.20240       -1.00530        8.32510
H         -7.69830       -3.20810        9.09440
H         -6.26690       -2.31340       12.08660
H         -8.08370       -0.61100       12.05950
H         -8.06680        0.46020        9.67590
H         -5.71090        1.63180        9.30610
H         -4.27810        1.28630       11.46690
H         -5.80360        0.06780       13.32020
H         -6.62350        1.51150       12.67490
H         -3.97720       -1.17210       11.73420
H         -5.86520       -3.78630        1.49510
H         -6.41790       -3.58260       -0.62400
H         -5.78790       -3.68840       -2.27580
H         -5.89400       -5.96340       -1.21010
H         -4.23690       -5.50330       -1.62150
H         -4.78630       -5.41560        0.05240
H         -3.43210        1.06220        2.34240
H         -4.93510        0.68420        4.21190
H         -5.96680       -0.19770        6.00100
H         -6.86490        1.30030        5.59780
H         -7.63260        0.02370        6.57040
H         -7.90640       -0.80610        1.52060
H         -6.37550       -0.41690       -0.37650
H         -2.78340       -0.43550       -2.45460
H         -3.33910        0.38840       -4.70420
H         -7.33960        3.06630       -5.10260
H         -6.64800        3.84350       -6.54320
H         -6.08920        4.34200       -4.93120
H         -6.27960        2.99350       -3.01310
H         -5.70110        2.20470       -0.78530
H          4.67270       -0.61110        0.03790
H          5.74340       -2.16920       -1.48110
H          6.99210       -3.34340       -3.07360
H          6.55660       -4.89380       -3.82410
H          5.90220       -4.48410       -2.22190
H          2.22040       -2.23290       -3.90330
H          1.15610       -0.62550       -2.39840
H          4.62060        1.60310       -1.00160
H          5.85900        3.30700        0.22800
H          6.58490        6.45150        1.99510
H          7.14810        4.91600        1.30450
H          5.67980        5.71330        0.65230
H          2.86970        3.28610        3.28520
H          1.63530        1.53950        2.05560
H          2.13050        0.51960       -7.69850
H          3.63250        1.44870       -7.52540
H          3.16120       -1.32250       -6.30460
H          4.63710       -0.37490       -6.18850
H          4.10650       -0.98540       -7.75760
H          0.84120       -0.83030       -6.30490
H         -0.17470       -0.59890       -4.86730
H         -0.18990        1.23970       -7.31350
H         -1.19110        1.41730       -5.87210
H         -1.41060        0.02230       -6.93430
H          5.26880        5.09320       -4.20790
H          6.29180       -1.12010       -4.29280
H          9.20150        2.04010       -6.97690
H          9.54250       -1.17410       -8.12330
H         11.78960       -0.97370       -7.07060
H         11.41200        0.02510       -4.68470
H          9.90770       -1.66870       -3.30110
H          9.35310       -3.71520       -4.83920
H         10.69740       -3.43370       -7.15210
H         11.79590       -3.27400       -5.75890
H          8.06920       -2.81550       -6.77360
