
  xtb     02082220233D
 energy: -309.224128614745 gnorm: 0.000541387812 xtb: 6.4.1 (unknown)
178197  0     0  0            999 V2000
   -3.3717    5.6440   -4.8412 C   0  0  0  0  0  0  0  0  0  0  0  0
   -4.6611    5.1915   -4.7411 C   0  0  0  0  0  0  0  0  0  0  0  0
   -5.0726    3.9101   -4.1603 C   0  0  0  0  0  0  0  0  0  0  0  0
   -4.3489    3.0278   -3.7240 O   0  0  0  0  0  0  0  0  0  0  0  0
   -6.5385    3.8738   -4.2102 C   0  0  0  0  0  0  0  0  0  0  0  0
   -7.3666    2.8576   -3.7385 C   0  0  0  0  0  0  0  0  0  0  0  0
   -8.7061    3.1072   -3.9141 C   0  0  0  0  0  0  0  0  0  0  0  0
   -9.1854    4.2794   -4.5147 C   0  0  0  0  0  0  0  0  0  0  0  0
   -8.3770    5.2874   -4.9863 C   0  0  0  0  0  0  0  0  0  0  0  0
   -7.0090    5.0575   -4.8162 C   0  0  0  0  0  0  0  0  0  0  0  0
   -5.8599    5.8921   -5.1664 C   0  0  0  0  0  0  0  0  0  0  0  0
   -5.9276    7.1151   -5.7823 C   0  0  0  0  0  0  0  0  0  0  0  0
   -7.1255    7.7427   -6.1850 C   0  0  0  0  0  0  0  0  0  0  0  0
   -8.0545    8.3164   -6.5398 N   0  0  0  0  0  0  0  0  0  0  0  0
   -4.8276    7.9344   -6.1121 C   0  0  0  0  0  0  0  0  0  0  0  0
   -3.9914    8.6643   -6.4089 N   0  0  0  0  0  0  0  0  0  0  0  0
  -10.6271    3.8708   -4.3449 C   0  0  0  0  0  0  0  0  0  0  0  0
  -11.4334    4.5329   -3.1998 C   0  0  0  0  0  0  0  0  0  0  0  0
  -10.4326    4.9292   -2.1426 C   0  0  0  0  0  0  0  0  0  0  0  0
   -9.9786    3.8184   -1.5777 C   0  0  0  0  0  0  0  0  0  0  0  0
  -10.6644    2.6504   -2.2425 C   0  0  0  0  0  0  0  0  0  0  0  0
  -12.0342    3.2778   -2.5466 C   0  0  0  0  0  0  0  0  0  0  0  0
  -10.0922    2.5637   -3.6790 C   0  0  0  0  0  0  0  0  0  0  0  0
   -2.1740    5.0450   -4.4127 C   0  0  0  0  0  0  0  0  0  0  0  0
   -0.9366    5.6713   -4.5320 C   0  0  0  0  0  0  0  0  0  0  0  0
    0.1272    4.9448   -4.0073 C   0  0  0  0  0  0  0  0  0  0  0  0
    1.7725    5.5563   -3.8484 S   0  0  0  0  0  0  0  0  0  0  0  0
    1.4380    7.1854   -3.0862 C   0  0  0  0  0  0  0  0  0  0  0  0
    0.7880    7.0474   -1.7255 C   0  0  0  0  0  0  0  0  0  0  0  0
   -0.2812    3.7161   -3.4971 C   0  0  0  0  0  0  0  0  0  0  0  0
   -1.9955    3.4867   -3.6491 S   0  0  0  0  0  0  0  0  0  0  0  0
    0.4550    2.7179   -2.8079 C   0  0  0  0  0  0  0  0  0  0  0  0
   -0.2907    2.0353   -1.3853 S   0  0  0  0  0  0  0  0  0  0  0  0
    1.0455    0.9576   -1.0824 C   0  0  0  0  0  0  0  0  0  0  0  0
    1.9797    1.1047   -2.0819 C   0  0  0  0  0  0  0  0  0  0  0  0
    3.4083    0.2104   -2.4754 S   0  0  0  0  0  0  0  0  0  0  0  0
    3.6570    1.1946   -3.9152 C   0  0  0  0  0  0  0  0  0  0  0  0
    4.8052    0.9888   -4.7321 C   0  0  0  0  0  0  0  0  0  0  0  0
    5.8507    0.0990   -4.5266 C   0  0  0  0  0  0  0  0  0  0  0  0
    6.8507    0.1565   -5.5042 C   0  0  0  0  0  0  0  0  0  0  0  0
    6.5806    1.0944   -6.4659 C   0  0  0  0  0  0  0  0  0  0  0  0
    7.3624    1.4616   -7.6470 C   0  0  0  0  0  0  0  0  0  0  0  0
    7.0423    2.3306   -8.4208 O   0  0  0  0  0  0  0  0  0  0  0  0
    8.4616    0.7052   -7.7619 O   0  0  0  0  0  0  0  0  0  0  0  0
    9.3131    0.9818   -8.8760 C   0  0  0  0  0  0  0  0  0  0  0  0
   10.2621    2.1338   -8.5791 C   0  0  0  0  0  0  0  0  0  0  0  0
    5.0897    1.9157   -6.1760 S   0  0  0  0  0  0  0  0  0  0  0  0
    5.9409   -0.9830   -3.1966 Cl  0  0  0  0  0  0  0  0  0  0  0  0
    2.6421    2.1086   -4.0915 C   0  0  0  0  0  0  0  0  0  0  0  0
    1.6729    2.0966   -3.0533 C   0  0  0  0  0  0  0  0  0  0  0  0
    2.5160    3.1033   -5.4753 Cl  0  0  0  0  0  0  0  0  0  0  0  0
    1.0239    0.0707    0.0233 C   0  0  0  0  0  0  0  0  0  0  0  0
    2.0885   -0.4641    0.7449 C   0  0  0  0  0  0  0  0  0  0  0  0
    3.3895   -0.0098    0.6850 N   0  0  0  0  0  0  0  0  0  0  0  0
    4.4247   -0.8972    1.0266 C   0  0  0  0  0  0  0  0  0  0  0  0
    5.4493   -0.4978    1.8823 C   0  0  0  0  0  0  0  0  0  0  0  0
    6.3972   -1.4085    2.2940 C   0  0  0  0  0  0  0  0  0  0  0  0
    6.3330   -2.7301    1.8646 C   0  0  0  0  0  0  0  0  0  0  0  0
    7.5187   -3.8728    2.5039 S   0  0  0  0  0  0  0  0  0  0  0  0
    6.5174   -5.3869    2.6190 C   0  0  0  0  0  0  0  0  0  0  0  0
    5.3550   -3.1138    0.9578 C   0  0  0  0  0  0  0  0  0  0  0  0
    4.4082   -2.2012    0.5400 C   0  0  0  0  0  0  0  0  0  0  0  0
    3.6732    1.3362    0.4103 C   0  0  0  0  0  0  0  0  0  0  0  0
    4.8323    1.6738   -0.2881 C   0  0  0  0  0  0  0  0  0  0  0  0
    5.0471    2.9681   -0.7136 C   0  0  0  0  0  0  0  0  0  0  0  0
    4.1091    3.9562   -0.4426 C   0  0  0  0  0  0  0  0  0  0  0  0
    4.2598    5.6112   -1.0399 S   0  0  0  0  0  0  0  0  0  0  0  0
    5.2098    5.3885   -2.5710 C   0  0  0  0  0  0  0  0  0  0  0  0
    3.0045    3.6472    0.3447 C   0  0  0  0  0  0  0  0  0  0  0  0
    2.7922    2.3546    0.7729 C   0  0  0  0  0  0  0  0  0  0  0  0
    1.6285   -1.4768    1.6270 C   0  0  0  0  0  0  0  0  0  0  0  0
    2.4196   -2.5911    2.6828 S   0  0  0  0  0  0  0  0  0  0  0  0
    0.8590   -3.2743    3.1590 C   0  0  0  0  0  0  0  0  0  0  0  0
   -0.2267   -2.5737    2.5702 C   0  0  0  0  0  0  0  0  0  0  0  0
   -1.5530   -2.7600    2.8530 N   0  0  0  0  0  0  0  0  0  0  0  0
   -2.0180   -3.1649    4.1191 C   0  0  0  0  0  0  0  0  0  0  0  0
   -3.1366   -3.9875    4.2017 C   0  0  0  0  0  0  0  0  0  0  0  0
   -3.5794   -4.4460    5.4271 C   0  0  0  0  0  0  0  0  0  0  0  0
   -2.8953   -4.1027    6.5848 C   0  0  0  0  0  0  0  0  0  0  0  0
   -3.3113   -4.7310    8.1792 S   0  0  0  0  0  0  0  0  0  0  0  0
   -4.2189   -6.2543    7.7879 C   0  0  0  0  0  0  0  0  0  0  0  0
   -1.8182   -3.2194    6.5102 C   0  0  0  0  0  0  0  0  0  0  0  0
   -1.3899   -2.7437    5.2925 C   0  0  0  0  0  0  0  0  0  0  0  0
   -2.5099   -2.2959    1.9250 C   0  0  0  0  0  0  0  0  0  0  0  0
   -3.5201   -1.4263    2.3336 C   0  0  0  0  0  0  0  0  0  0  0  0
   -4.3556   -0.8543    1.4001 C   0  0  0  0  0  0  0  0  0  0  0  0
   -4.1964   -1.1408    0.0469 C   0  0  0  0  0  0  0  0  0  0  0  0
   -5.1618   -0.2340   -1.1213 S   0  0  0  0  0  0  0  0  0  0  0  0
   -3.9632   -0.0175   -2.4729 C   0  0  0  0  0  0  0  0  0  0  0  0
   -3.2673   -2.0949   -0.3488 C   0  0  0  0  0  0  0  0  0  0  0  0
   -2.4278   -2.6686    0.5858 C   0  0  0  0  0  0  0  0  0  0  0  0
    0.2450   -1.6108    1.6590 C   0  0  0  0  0  0  0  0  0  0  0  0
   -0.5362   -0.5056    0.5770 S   0  0  0  0  0  0  0  0  0  0  0  0
    0.7081   -4.4110    3.9513 C   0  0  0  0  0  0  0  0  0  0  0  0
    1.6368   -5.1441    4.6568 C   0  0  0  0  0  0  0  0  0  0  0  0
    3.0758   -4.8969    4.7339 C   0  0  0  0  0  0  0  0  0  0  0  0
    3.7397   -4.1196    4.0638 O   0  0  0  0  0  0  0  0  0  0  0  0
    3.6006   -5.8030    5.7691 C   0  0  0  0  0  0  0  0  0  0  0  0
    4.9176   -5.9016    6.2118 C   0  0  0  0  0  0  0  0  0  0  0  0
    5.1045   -6.8392    7.1995 C   0  0  0  0  0  0  0  0  0  0  0  0
    4.0600   -7.6228    7.7064 C   0  0  0  0  0  0  0  0  0  0  0  0
    2.7569   -7.5379    7.2739 C   0  0  0  0  0  0  0  0  0  0  0  0
    2.5438   -6.5878    6.2719 C   0  0  0  0  0  0  0  0  0  0  0  0
    1.3210   -6.2326    5.5516 C   0  0  0  0  0  0  0  0  0  0  0  0
    0.1060   -6.8567    5.7028 C   0  0  0  0  0  0  0  0  0  0  0  0
   -0.1832   -7.8315    6.6781 C   0  0  0  0  0  0  0  0  0  0  0  0
   -0.5172   -8.6100    7.4543 N   0  0  0  0  0  0  0  0  0  0  0  0
   -1.0232   -6.6618    4.8871 C   0  0  0  0  0  0  0  0  0  0  0  0
   -1.9810   -6.6120    4.2516 N   0  0  0  0  0  0  0  0  0  0  0  0
    4.9634   -8.3419    8.6775 C   0  0  0  0  0  0  0  0  0  0  0  0
    4.8852   -7.8952   10.1526 C   0  0  0  0  0  0  0  0  0  0  0  0
    6.1756   -8.4043   10.7535 C   0  0  0  0  0  0  0  0  0  0  0  0
    7.1649   -7.6616   10.2735 C   0  0  0  0  0  0  0  0  0  0  0  0
    6.5597   -6.6379    9.3402 C   0  0  0  0  0  0  0  0  0  0  0  0
    5.2167   -6.4013   10.0430 C   0  0  0  0  0  0  0  0  0  0  0  0
    6.1283   -7.4674    8.1121 C   0  0  0  0  0  0  0  0  0  0  0  0
   -3.2213    6.6148   -5.2970 H   0  0  0  0  0  0  0  0  0  0  0  0
   -6.9576    1.9731   -3.2749 H   0  0  0  0  0  0  0  0  0  0  0  0
   -8.7651    6.1812   -5.4450 H   0  0  0  0  0  0  0  0  0  0  0  0
  -11.2076    3.7778   -5.2605 H   0  0  0  0  0  0  0  0  0  0  0  0
  -12.1223    5.3085   -3.5235 H   0  0  0  0  0  0  0  0  0  0  0  0
  -10.1258    5.9423   -1.9593 H   0  0  0  0  0  0  0  0  0  0  0  0
   -9.2155    3.7162   -0.8286 H   0  0  0  0  0  0  0  0  0  0  0  0
  -10.6522    1.7119   -1.6949 H   0  0  0  0  0  0  0  0  0  0  0  0
  -12.6425    2.6834   -3.2269 H   0  0  0  0  0  0  0  0  0  0  0  0
  -12.6033    3.5036   -1.6462 H   0  0  0  0  0  0  0  0  0  0  0  0
  -10.3207    1.6151   -4.1606 H   0  0  0  0  0  0  0  0  0  0  0  0
   -0.8332    6.6444   -4.9795 H   0  0  0  0  0  0  0  0  0  0  0  0
    0.8318    7.7720   -3.7748 H   0  0  0  0  0  0  0  0  0  0  0  0
    2.4239    7.6405   -3.0011 H   0  0  0  0  0  0  0  0  0  0  0  0
    1.4231    6.4562   -1.0698 H   0  0  0  0  0  0  0  0  0  0  0  0
   -0.1842    6.5637   -1.8055 H   0  0  0  0  0  0  0  0  0  0  0  0
    0.6499    8.0314   -1.2825 H   0  0  0  0  0  0  0  0  0  0  0  0
    7.7289   -0.4612   -5.5026 H   0  0  0  0  0  0  0  0  0  0  0  0
    8.6918    1.2183   -9.7459 H   0  0  0  0  0  0  0  0  0  0  0  0
    9.8605    0.0530   -9.0485 H   0  0  0  0  0  0  0  0  0  0  0  0
   10.9338    2.2767   -9.4205 H   0  0  0  0  0  0  0  0  0  0  0  0
    9.6966    3.0487   -8.4209 H   0  0  0  0  0  0  0  0  0  0  0  0
   10.8475    1.9200   -7.6880 H   0  0  0  0  0  0  0  0  0  0  0  0
    5.4758    0.5187    2.2460 H   0  0  0  0  0  0  0  0  0  0  0  0
    7.1775   -1.1138    2.9784 H   0  0  0  0  0  0  0  0  0  0  0  0
    5.5346   -5.1155    2.9931 H   0  0  0  0  0  0  0  0  0  0  0  0
    6.4511   -5.8765    1.6516 H   0  0  0  0  0  0  0  0  0  0  0  0
    7.0277   -6.0381    3.3221 H   0  0  0  0  0  0  0  0  0  0  0  0
    5.3207   -4.1225    0.5784 H   0  0  0  0  0  0  0  0  0  0  0  0
    3.6445   -2.4949   -0.1651 H   0  0  0  0  0  0  0  0  0  0  0  0
    5.5510    0.9049   -0.5278 H   0  0  0  0  0  0  0  0  0  0  0  0
    5.9405    3.1933   -1.2738 H   0  0  0  0  0  0  0  0  0  0  0  0
    6.2571    5.2069   -2.3479 H   0  0  0  0  0  0  0  0  0  0  0  0
    5.1097    6.3176   -3.1227 H   0  0  0  0  0  0  0  0  0  0  0  0
    4.7767    4.5736   -3.1429 H   0  0  0  0  0  0  0  0  0  0  0  0
    2.3051    4.4261    0.6064 H   0  0  0  0  0  0  0  0  0  0  0  0
    1.9259    2.1303    1.3766 H   0  0  0  0  0  0  0  0  0  0  0  0
   -3.6462   -4.2881    3.2996 H   0  0  0  0  0  0  0  0  0  0  0  0
   -4.4396   -5.0933    5.4612 H   0  0  0  0  0  0  0  0  0  0  0  0
   -5.2292   -6.0214    7.4640 H   0  0  0  0  0  0  0  0  0  0  0  0
   -3.6777   -6.8092    7.0274 H   0  0  0  0  0  0  0  0  0  0  0  0
   -4.2506   -6.8243    8.7111 H   0  0  0  0  0  0  0  0  0  0  0  0
   -1.3214   -2.9187    7.4198 H   0  0  0  0  0  0  0  0  0  0  0  0
   -0.5503   -2.0666    5.2403 H   0  0  0  0  0  0  0  0  0  0  0  0
   -3.6113   -1.1687    3.3782 H   0  0  0  0  0  0  0  0  0  0  0  0
   -5.1104   -0.1459    1.7033 H   0  0  0  0  0  0  0  0  0  0  0  0
   -4.2316    0.9026   -2.9835 H   0  0  0  0  0  0  0  0  0  0  0  0
   -4.0110   -0.8572   -3.1603 H   0  0  0  0  0  0  0  0  0  0  0  0
   -2.9715    0.0824   -2.0429 H   0  0  0  0  0  0  0  0  0  0  0  0
   -3.1806   -2.3780   -1.3859 H   0  0  0  0  0  0  0  0  0  0  0  0
   -1.6863   -3.3914    0.2787 H   0  0  0  0  0  0  0  0  0  0  0  0
   -0.3148   -4.7536    4.0371 H   0  0  0  0  0  0  0  0  0  0  0  0
    5.6935   -5.2788    5.7945 H   0  0  0  0  0  0  0  0  0  0  0  0
    1.9654   -8.1508    7.6720 H   0  0  0  0  0  0  0  0  0  0  0  0
    5.0197   -9.4227    8.5623 H   0  0  0  0  0  0  0  0  0  0  0  0
    3.9658   -8.1689   10.6628 H   0  0  0  0  0  0  0  0  0  0  0  0
    6.2398   -9.2592   11.4008 H   0  0  0  0  0  0  0  0  0  0  0  0
    8.2204   -7.7720   10.4398 H   0  0  0  0  0  0  0  0  0  0  0  0
    7.1662   -5.7658    9.1107 H   0  0  0  0  0  0  0  0  0  0  0  0
    5.3397   -5.9346   11.0189 H   0  0  0  0  0  0  0  0  0  0  0  0
    4.5017   -5.8301    9.4539 H   0  0  0  0  0  0  0  0  0  0  0  0
    6.9623   -7.9654    7.6208 H   0  0  0  0  0  0  0  0  0  0  0  0
  1  2  2  0  0  0  0
  2  3  1  0  0  0  0
  3  4  2  0  0  0  0
  3  5  1  0  0  0  0
  5  6  2  0  0  0  0
  6  7  1  0  0  0  0
  7  8  2  0  0  0  0
  8  9  1  0  0  0  0
  9 10  2  0  0  0  0
 10 11  1  0  0  0  0
 11 12  2  0  0  0  0
 12 13  1  0  0  0  0
 13 14  3  0  0  0  0
 12 15  1  0  0  0  0
 15 16  3  0  0  0  0
  8 17  1  0  0  0  0
 17 18  1  0  0  0  0
 18 19  1  0  0  0  0
 19 20  2  0  0  0  0
 20 21  1  0  0  0  0
 21 22  1  0  0  0  0
 21 23  1  0  0  0  0
  1 24  1  0  0  0  0
 24 25  2  0  0  0  0
 25 26  1  0  0  0  0
 26 27  1  0  0  0  0
 27 28  1  0  0  0  0
 28 29  1  0  0  0  0
 26 30  2  0  0  0  0
 30 31  1  0  0  0  0
 30 32  1  0  0  0  0
 32 33  1  0  0  0  0
 33 34  1  0  0  0  0
 34 35  2  0  0  0  0
 35 36  1  0  0  0  0
 36 37  1  0  0  0  0
 37 38  1  0  0  0  0
 38 39  2  0  0  0  0
 39 40  1  0  0  0  0
 40 41  2  0  0  0  0
 41 42  1  0  0  0  0
 42 43  2  0  0  0  0
 42 44  1  0  0  0  0
 44 45  1  0  0  0  0
 45 46  1  0  0  0  0
 41 47  1  0  0  0  0
 39 48  1  0  0  0  0
 37 49  2  0  0  0  0
 49 50  1  0  0  0  0
 49 51  1  0  0  0  0
 34 52  1  0  0  0  0
 52 53  2  0  0  0  0
 53 54  1  0  0  0  0
 54 55  1  0  0  0  0
 55 56  2  0  0  0  0
 56 57  1  0  0  0  0
 57 58  2  0  0  0  0
 58 59  1  0  0  0  0
 59 60  1  0  0  0  0
 58 61  1  0  0  0  0
 61 62  2  0  0  0  0
 54 63  1  0  0  0  0
 63 64  2  0  0  0  0
 64 65  1  0  0  0  0
 65 66  2  0  0  0  0
 66 67  1  0  0  0  0
 67 68  1  0  0  0  0
 66 69  1  0  0  0  0
 69 70  2  0  0  0  0
 53 71  1  0  0  0  0
 71 72  1  0  0  0  0
 72 73  1  0  0  0  0
 73 74  2  0  0  0  0
 74 75  1  0  0  0  0
 75 76  1  0  0  0  0
 76 77  2  0  0  0  0
 77 78  1  0  0  0  0
 78 79  2  0  0  0  0
 79 80  1  0  0  0  0
 80 81  1  0  0  0  0
 79 82  1  0  0  0  0
 82 83  2  0  0  0  0
 75 84  1  0  0  0  0
 84 85  2  0  0  0  0
 85 86  1  0  0  0  0
 86 87  2  0  0  0  0
 87 88  1  0  0  0  0
 88 89  1  0  0  0  0
 87 90  1  0  0  0  0
 90 91  2  0  0  0  0
 74 92  1  0  0  0  0
 92 93  1  0  0  0  0
 73 94  1  0  0  0  0
 94 95  2  0  0  0  0
 95 96  1  0  0  0  0
 96 97  2  0  0  0  0
 96 98  1  0  0  0  0
 98 99  2  0  0  0  0
 99100  1  0  0  0  0
100101  2  0  0  0  0
101102  1  0  0  0  0
102103  2  0  0  0  0
103104  1  0  0  0  0
104105  2  0  0  0  0
105106  1  0  0  0  0
106107  3  0  0  0  0
105108  1  0  0  0  0
108109  3  0  0  0  0
101110  1  0  0  0  0
110111  1  0  0  0  0
111112  1  0  0  0  0
112113  2  0  0  0  0
113114  1  0  0  0  0
114115  1  0  0  0  0
114116  1  0  0  0  0
 11  2  1  0  0  0  0
 23 17  1  0  0  0  0
 31 24  1  0  0  0  0
 50 32  2  0  0  0  0
 93 52  1  0  0  0  0
104 95  1  0  0  0  0
116110  1  0  0  0  0
 10  5  1  0  0  0  0
 22 18  1  0  0  0  0
 50 35  1  0  0  0  0
 62 55  1  0  0  0  0
 70 63  1  0  0  0  0
 92 71  2  0  0  0  0
103 98  1  0  0  0  0
115111  1  0  0  0  0
 23  7  1  0  0  0  0
 47 38  1  0  0  0  0
 83 76  1  0  0  0  0
 91 84  1  0  0  0  0
116100  1  0  0  0  0
  1117  1  0  0  0  0
  6118  1  0  0  0  0
  9119  1  0  0  0  0
 17120  1  0  0  0  0
 18121  1  0  0  0  0
 19122  1  0  0  0  0
 20123  1  0  0  0  0
 21124  1  0  0  0  0
 22125  1  0  0  0  0
 22126  1  0  0  0  0
 23127  1  0  0  0  0
 25128  1  0  0  0  0
 28129  1  0  0  0  0
 28130  1  0  0  0  0
 29131  1  0  0  0  0
 29132  1  0  0  0  0
 29133  1  0  0  0  0
 40134  1  0  0  0  0
 45135  1  0  0  0  0
 45136  1  0  0  0  0
 46137  1  0  0  0  0
 46138  1  0  0  0  0
 46139  1  0  0  0  0
 56140  1  0  0  0  0
 57141  1  0  0  0  0
 60142  1  0  0  0  0
 60143  1  0  0  0  0
 60144  1  0  0  0  0
 61145  1  0  0  0  0
 62146  1  0  0  0  0
 64147  1  0  0  0  0
 65148  1  0  0  0  0
 68149  1  0  0  0  0
 68150  1  0  0  0  0
 68151  1  0  0  0  0
 69152  1  0  0  0  0
 70153  1  0  0  0  0
 77154  1  0  0  0  0
 78155  1  0  0  0  0
 81156  1  0  0  0  0
 81157  1  0  0  0  0
 81158  1  0  0  0  0
 82159  1  0  0  0  0
 83160  1  0  0  0  0
 85161  1  0  0  0  0
 86162  1  0  0  0  0
 89163  1  0  0  0  0
 89164  1  0  0  0  0
 89165  1  0  0  0  0
 90166  1  0  0  0  0
 91167  1  0  0  0  0
 94168  1  0  0  0  0
 99169  1  0  0  0  0
102170  1  0  0  0  0
110171  1  0  0  0  0
111172  1  0  0  0  0
112173  1  0  0  0  0
113174  1  0  0  0  0
114175  1  0  0  0  0
115176  1  0  0  0  0
115177  1  0  0  0  0
116178  1  0  0  0  0
M  END
