155

C         -7.41860        5.09580       -0.37380
C         -7.82220        5.21580       -1.67880
C         -7.14050        4.64160       -2.84450
O         -6.08740        4.02700       -2.86400
C         -7.98330        4.94970       -4.01150
C         -7.75390        4.57090       -5.33240
C         -8.72870        4.98500       -6.20810
C         -9.85010        5.71850       -5.79910
C        -10.08670        6.09920       -4.49920
C         -9.10460        5.69250       -3.59090
C         -9.01140        5.90020       -2.14570
C         -9.89060        6.63950       -1.39510
C         -9.79720        6.87240       -0.00750
N         -9.79650        7.11760        1.11530
C        -11.02270        7.30280       -1.91240
N        -11.95860        7.87210       -2.25760
C        -10.41370        5.78880       -7.19680
C        -10.24100        7.12730       -7.94510
C        -10.43730        6.75740       -9.39760
C         -9.37390        6.06470       -9.78500
C         -8.44100        5.95460       -8.60050
C         -8.71700        7.30200       -7.92100
C         -9.16200        4.97240       -7.65300
C         -6.29720        4.44820        0.16740
C         -6.05500        4.40160        1.53870
C         -4.89290        3.72670        1.89230
S         -4.30080        3.47740        3.52430
C         -5.16510        4.77930        4.47770
C         -4.71450        6.17370        4.08980
C         -4.21790        3.22490        0.77480
S         -5.04230        3.61150       -0.70400
C         -3.00690        2.49480        0.69670
C         -2.42490        2.08630       -0.47720
C         -1.20090        1.41200       -0.31140
C         -0.39180        0.84900       -1.32530
C         -0.71300        0.97730       -2.73230
C         -0.60310        0.00990       -3.69060
C         -0.96360        0.40230       -4.99880
C         -1.34690        1.69910       -5.14100
C         -1.83750        2.37560       -6.37800
C         -3.33550        2.67040       -6.28300
Se        -1.28390        2.60380       -3.50120
C          0.73270        0.16210       -0.88910
C          1.07970        0.03170        0.48010
C          0.25530        0.56400        1.49840
C          0.51280        0.33510        2.90270
C          0.24400        1.18750        3.93780
C          0.50890        0.68010        5.22680
C          0.97270       -0.59970        5.27800
C          1.38730       -1.36250        6.49140
C          2.87380       -1.14360        6.77920
Se         1.14950       -1.31870        3.56360
C         -0.86100        1.26990        1.05880
S         -2.05530        2.02390        2.08600
C          2.30330       -0.64930        0.63890
C          2.86400       -1.07970       -0.53260
S          1.90740       -0.61940       -1.92150
C          4.00590       -1.91770       -0.62720
C          4.51580       -2.61110       -1.69990
C          5.54720       -3.50110       -1.36360
C          6.16610       -4.39920       -2.34150
C          5.32520       -5.21150       -3.12110
O          4.00260       -5.08270       -2.87750
C          3.09640       -6.06110       -3.34960
C          1.77850       -5.81860       -2.63080
C          5.87930       -6.08490       -4.05050
C          7.25120       -6.12710       -4.21080
C          8.09140       -5.32760       -3.45850
C          7.55690       -4.45990       -2.51140
O          8.27810       -3.60790       -1.73430
C          9.69250       -3.67920       -1.72130
C         10.22680       -4.88850       -0.95900
C          5.80780       -3.52440        0.00640
S          4.84680       -2.32590        0.83400
C          6.67160       -4.37650        0.72250
C          6.63760       -4.65400        2.06070
C          7.85920       -5.09420        2.77170
O          8.88920       -5.50080        2.27590
C          7.58430       -4.84730        4.20460
C          8.45940       -5.00940        5.27580
C          7.91830       -4.68490        6.49750
C          6.60470       -4.22050        6.64950
C          5.72600       -4.06310        5.60490
C          6.25600       -4.39420        4.35620
C          5.61150       -4.41810        3.04970
C          4.25520       -4.47020        2.82950
C          3.27610       -4.06910        3.74790
N          2.42960       -3.64760        4.40540
C          3.70200       -4.90630        1.60610
N          3.22200       -5.33290        0.65450
C          6.73750       -4.09160        8.14610
C          6.07300       -5.18150        9.02250
C          6.01050       -6.42960        8.17710
C          7.24870       -6.88200        8.03190
C          8.17070       -5.94850        8.77670
C          7.25460       -5.53470        9.93960
C          8.19680       -4.62080        7.97870
H         -8.04900        5.55320        0.37890
H         -6.87970        3.99830       -5.60040
H        -10.95900        6.65700       -4.20270
H        -11.40010        5.34930       -7.33260
H        -10.84580        7.94440       -7.56160
H        -11.32500        6.98190       -9.95920
H         -9.19610        5.59500      -10.73460
H         -7.40540        5.70390       -8.81480
H         -8.29610        7.38920       -6.92110
H         -8.38970        8.14400       -8.52870
H         -9.31400        3.98920       -8.09460
H         -6.73640        4.85270        2.23730
H         -6.23900        4.64130        4.36140
H         -4.89490        4.55510        5.50940
H         -4.94400        6.38320        3.04720
H         -5.22150        6.91020        4.70990
H         -3.64120        6.27570        4.23270
H         -2.90130        2.25530       -1.42770
H         -0.31180       -1.00020       -3.45680
H         -0.94130       -0.28650       -5.82730
H         -1.64010        1.73000       -7.23680
H         -1.29780        3.31530       -6.52730
H         -3.89630        1.74480       -6.17270
H         -3.53850        3.29890       -5.41580
H         -3.67930        3.18500       -7.17740
H         -0.10250        2.19590        3.78630
H          0.34600        1.26860        6.11530
H          0.79350       -1.03400        7.34770
H          1.21320       -2.42700        6.32720
H          3.07610       -0.09220        6.97220
H          3.46100       -1.45440        5.91670
H          3.18370       -1.72540        7.64440
H          2.78230       -0.82150        1.58840
H          4.13400       -2.49510       -2.69780
H          3.47550       -7.06570       -3.12120
H          2.97060       -5.96980       -4.43830
H          1.05540       -6.58050       -2.90760
H          1.94570       -5.84610       -1.55750
H          1.38660       -4.83960       -2.89310
H          5.24970       -6.72020       -4.65210
H          7.67810       -6.79900       -4.94030
H          9.15470       -5.38660       -3.62150
H         10.08730       -3.65590       -2.74470
H          9.99670       -2.75820       -1.21640
H         11.31320       -4.86970       -0.97060
H          9.88820       -5.81680       -1.41340
H          9.89120       -4.87110        0.07550
H          7.50030       -4.80190        0.17150
H          9.46530       -5.36760        5.12210
H          4.71570       -3.70680        5.72510
H          6.60290       -3.09080        8.55210
H          5.14420       -4.87610        9.49700
H          5.10730       -6.81040        7.73730
H          7.58680       -7.71650        7.44600
H          9.15160       -6.34300        9.02860
H          7.03200       -6.35970       10.61470
H          7.63160       -4.68550       10.50810
H          9.01430       -3.97070        8.28480
