
  xtb     02092218333D
 energy: -310.236982392533 gnorm: 0.000586262826 xtb: 6.4.1 (unknown)
181200  0     0  0            999 V2000
    0.8393    9.1551   -1.1661 C   0  0  0  0  0  0  0  0  0  0  0  0
    0.8431    9.7761    0.0340 C   0  0  0  0  0  0  0  0  0  0  0  0
    0.4124    9.1470    1.3174 C   0  0  0  0  0  0  0  0  0  0  0  0
    0.0373    8.0109    1.5006 O   0  0  0  0  0  0  0  0  0  0  0  0
    0.4190   10.2338    2.3118 C   0  0  0  0  0  0  0  0  0  0  0  0
    0.0798   10.1249    3.6599 C   0  0  0  0  0  0  0  0  0  0  0  0
    0.1489   11.3084    4.3529 C   0  0  0  0  0  0  0  0  0  0  0  0
    0.5193   12.5187    3.7484 C   0  0  0  0  0  0  0  0  0  0  0  0
    0.8554   12.6415    2.4222 C   0  0  0  0  0  0  0  0  0  0  0  0
    0.7985   11.4447    1.6974 C   0  0  0  0  0  0  0  0  0  0  0  0
    1.0916   11.1883    0.2926 C   0  0  0  0  0  0  0  0  0  0  0  0
    1.5819   12.0969   -0.6049 C   0  0  0  0  0  0  0  0  0  0  0  0
    1.9368   11.8098   -1.9414 C   0  0  0  0  0  0  0  0  0  0  0  0
    2.2666   11.6647   -3.0313 N   0  0  0  0  0  0  0  0  0  0  0  0
    1.8302   13.4559   -0.3146 C   0  0  0  0  0  0  0  0  0  0  0  0
    2.0521   14.5697   -0.1478 N   0  0  0  0  0  0  0  0  0  0  0  0
    0.3576   13.2995    5.0285 C   0  0  0  0  0  0  0  0  0  0  0  0
   -0.9245   14.1488    5.1618 C   0  0  0  0  0  0  0  0  0  0  0  0
   -1.0395   14.3971    6.6486 C   0  0  0  0  0  0  0  0  0  0  0  0
   -1.3845   13.2520    7.2235 C   0  0  0  0  0  0  0  0  0  0  0  0
   -1.5092   12.2105    6.1349 C   0  0  0  0  0  0  0  0  0  0  0  0
   -2.0204   13.0895    4.9862 C   0  0  0  0  0  0  0  0  0  0  0  0
   -0.0502   11.9504    5.7032 C   0  0  0  0  0  0  0  0  0  0  0  0
    0.7149    7.7276   -1.3377 C   0  0  0  0  0  0  0  0  0  0  0  0
    1.4373    6.8195   -0.5355 C   0  0  0  0  0  0  0  0  0  0  0  0
    2.3458    7.0278    0.4259 N   0  0  0  0  0  0  0  0  0  0  0  0
    2.6666    5.8312    0.8253 N   0  0  0  0  0  0  0  0  0  0  0  0
    3.6561    5.6234    1.8430 C   0  0  0  0  0  0  0  0  0  0  0  0
    5.0402    5.4837    1.2158 C   0  0  0  0  0  0  0  0  0  0  0  0
    2.0834    4.8302    0.2309 N   0  0  0  0  0  0  0  0  0  0  0  0
    1.2819    5.4091   -0.6755 C   0  0  0  0  0  0  0  0  0  0  0  0
    0.4133    4.8603   -1.6332 C   0  0  0  0  0  0  0  0  0  0  0  0
   -0.2241    5.7632   -2.4572 C   0  0  0  0  0  0  0  0  0  0  0  0
   -0.0777    7.1597   -2.3238 C   0  0  0  0  0  0  0  0  0  0  0  0
   -0.9825    8.1856   -3.3688 Cl  0  0  0  0  0  0  0  0  0  0  0  0
   -1.2168    5.1584   -3.7197 Cl  0  0  0  0  0  0  0  0  0  0  0  0
    0.1683    3.4133   -1.7140 C   0  0  0  0  0  0  0  0  0  0  0  0
    1.1649    2.5317   -2.0921 C   0  0  0  0  0  0  0  0  0  0  0  0
    2.3503    3.0908   -2.4419 O   0  0  0  0  0  0  0  0  0  0  0  0
    3.5725    2.4575   -2.0766 C   0  0  0  0  0  0  0  0  0  0  0  0
    3.5948    2.0126   -0.6204 C   0  0  0  0  0  0  0  0  0  0  0  0
    0.8928    1.1299   -2.1860 C   0  0  0  0  0  0  0  0  0  0  0  0
    1.8707    0.3000   -2.6909 O   0  0  0  0  0  0  0  0  0  0  0  0
    1.6655   -0.1137   -4.0379 C   0  0  0  0  0  0  0  0  0  0  0  0
    1.8004    1.0215   -5.0457 C   0  0  0  0  0  0  0  0  0  0  0  0
   -0.3095    0.5941   -1.7657 C   0  0  0  0  0  0  0  0  0  0  0  0
   -1.2947    1.4784   -1.2794 C   0  0  0  0  0  0  0  0  0  0  0  0
   -1.0796    2.8967   -1.3255 C   0  0  0  0  0  0  0  0  0  0  0  0
   -2.1268    3.5763   -0.8525 N   0  0  0  0  0  0  0  0  0  0  0  0
   -3.2409    2.5255   -0.3625 S   0  0  0  0  0  0  0  0  0  0  0  0
   -2.4749    1.1672   -0.7442 N   0  0  0  0  0  0  0  0  0  0  0  0
   -0.5473   -0.8524   -1.7505 C   0  0  0  0  0  0  0  0  0  0  0  0
   -1.2205   -1.6318   -2.6636 C   0  0  0  0  0  0  0  0  0  0  0  0
   -1.7809   -1.1394   -3.8394 N   0  0  0  0  0  0  0  0  0  0  0  0
   -2.7061   -0.0742   -3.6912 C   0  0  0  0  0  0  0  0  0  0  0  0
   -3.8579   -0.2720   -2.9353 C   0  0  0  0  0  0  0  0  0  0  0  0
   -4.7338    0.7694   -2.7289 C   0  0  0  0  0  0  0  0  0  0  0  0
   -4.4586    2.0300   -3.2548 C   0  0  0  0  0  0  0  0  0  0  0  0
   -5.5939    3.3196   -2.8415 S   0  0  0  0  0  0  0  0  0  0  0  0
   -4.6261    4.8340   -3.0898 C   0  0  0  0  0  0  0  0  0  0  0  0
   -3.3290    2.2197   -4.0397 C   0  0  0  0  0  0  0  0  0  0  0  0
   -2.4588    1.1673   -4.2593 C   0  0  0  0  0  0  0  0  0  0  0  0
   -1.6928   -1.8480   -5.0340 C   0  0  0  0  0  0  0  0  0  0  0  0
   -0.6416   -2.7354   -5.2624 C   0  0  0  0  0  0  0  0  0  0  0  0
   -0.5530   -3.4412   -6.4462 C   0  0  0  0  0  0  0  0  0  0  0  0
   -1.5097   -3.2672   -7.4346 C   0  0  0  0  0  0  0  0  0  0  0  0
   -1.4908   -4.1196   -8.9836 S   0  0  0  0  0  0  0  0  0  0  0  0
   -0.3348   -5.4907   -8.6953 C   0  0  0  0  0  0  0  0  0  0  0  0
   -2.5438   -2.3581   -7.2264 C   0  0  0  0  0  0  0  0  0  0  0  0
   -2.6382   -1.6593   -6.0442 C   0  0  0  0  0  0  0  0  0  0  0  0
   -1.2478   -2.9875   -2.2482 C   0  0  0  0  0  0  0  0  0  0  0  0
   -1.8879   -4.4296   -2.9349 S   0  0  0  0  0  0  0  0  0  0  0  0
   -1.3313   -5.3713   -1.5407 C   0  0  0  0  0  0  0  0  0  0  0  0
   -0.6070   -4.5809   -0.6258 C   0  0  0  0  0  0  0  0  0  0  0  0
    0.1114   -4.9991    0.4603 N   0  0  0  0  0  0  0  0  0  0  0  0
    0.6555   -6.2769    0.6055 C   0  0  0  0  0  0  0  0  0  0  0  0
    0.7242   -6.8527    1.8783 C   0  0  0  0  0  0  0  0  0  0  0  0
    1.2053   -8.1297    2.0417 C   0  0  0  0  0  0  0  0  0  0  0  0
    1.6272   -8.8775    0.9422 C   0  0  0  0  0  0  0  0  0  0  0  0
    2.1203  -10.5351    1.2692 S   0  0  0  0  0  0  0  0  0  0  0  0
    2.6292  -11.1841   -0.3456 C   0  0  0  0  0  0  0  0  0  0  0  0
    1.6182   -8.2894   -0.3170 C   0  0  0  0  0  0  0  0  0  0  0  0
    1.1395   -7.0036   -0.4805 C   0  0  0  0  0  0  0  0  0  0  0  0
    0.3237   -4.0747    1.5085 C   0  0  0  0  0  0  0  0  0  0  0  0
    1.6050   -3.8685    2.0048 C   0  0  0  0  0  0  0  0  0  0  0  0
    1.8235   -2.9596    3.0221 C   0  0  0  0  0  0  0  0  0  0  0  0
    0.7572   -2.2470    3.5551 C   0  0  0  0  0  0  0  0  0  0  0  0
    0.9124   -1.0510    4.8410 S   0  0  0  0  0  0  0  0  0  0  0  0
    2.6791   -1.0795    5.2614 C   0  0  0  0  0  0  0  0  0  0  0  0
   -0.5314   -2.4679    3.0689 C   0  0  0  0  0  0  0  0  0  0  0  0
   -0.7494   -3.3735    2.0557 C   0  0  0  0  0  0  0  0  0  0  0  0
   -0.6120   -3.2241   -1.0392 C   0  0  0  0  0  0  0  0  0  0  0  0
    0.0455   -1.7598   -0.3845 S   0  0  0  0  0  0  0  0  0  0  0  0
   -1.6286   -6.7361   -1.5713 C   0  0  0  0  0  0  0  0  0  0  0  0
   -1.6496   -7.5947   -0.4947 C   0  0  0  0  0  0  0  0  0  0  0  0
   -1.9389   -7.1895    0.8904 C   0  0  0  0  0  0  0  0  0  0  0  0
   -2.1978   -6.0691    1.2905 O   0  0  0  0  0  0  0  0  0  0  0  0
   -1.9868   -8.4448    1.6706 C   0  0  0  0  0  0  0  0  0  0  0  0
   -2.1900   -8.5777    3.0406 C   0  0  0  0  0  0  0  0  0  0  0  0
   -2.1364   -9.8756    3.4918 C   0  0  0  0  0  0  0  0  0  0  0  0
   -1.9281  -10.9673    2.6405 C   0  0  0  0  0  0  0  0  0  0  0  0
   -1.7387  -10.8518    1.2839 C   0  0  0  0  0  0  0  0  0  0  0  0
   -1.7636   -9.5380    0.8106 C   0  0  0  0  0  0  0  0  0  0  0  0
   -1.5356   -9.0251   -0.5370 C   0  0  0  0  0  0  0  0  0  0  0  0
   -1.0935   -9.7546   -1.6153 C   0  0  0  0  0  0  0  0  0  0  0  0
   -0.6798   -9.1842   -2.8349 C   0  0  0  0  0  0  0  0  0  0  0  0
   -0.2686   -8.7903   -3.8335 N   0  0  0  0  0  0  0  0  0  0  0  0
   -0.8926  -11.1463   -1.6139 C   0  0  0  0  0  0  0  0  0  0  0  0
   -0.6775  -12.2736   -1.6811 N   0  0  0  0  0  0  0  0  0  0  0  0
   -1.9953  -11.9657    3.7702 C   0  0  0  0  0  0  0  0  0  0  0  0
   -0.6511  -12.5493    4.2528 C   0  0  0  0  0  0  0  0  0  0  0  0
   -0.9588  -13.0811    5.6335 C   0  0  0  0  0  0  0  0  0  0  0  0
   -1.1325  -12.0398    6.4374 C   0  0  0  0  0  0  0  0  0  0  0  0
   -0.9484  -10.7866    5.6120 C   0  0  0  0  0  0  0  0  0  0  0  0
    0.1187  -11.2764    4.6245 C   0  0  0  0  0  0  0  0  0  0  0  0
   -2.2095  -10.7454    4.7221 C   0  0  0  0  0  0  0  0  0  0  0  0
    0.9149    9.7336   -2.0783 H   0  0  0  0  0  0  0  0  0  0  0  0
   -0.2032    9.1733    4.0821 H   0  0  0  0  0  0  0  0  0  0  0  0
    1.1363   13.5793    1.9731 H   0  0  0  0  0  0  0  0  0  0  0  0
    1.2474   13.8142    5.3857 H   0  0  0  0  0  0  0  0  0  0  0  0
   -0.9615   15.0211    4.5152 H   0  0  0  0  0  0  0  0  0  0  0  0
   -0.8118   15.3353    7.1193 H   0  0  0  0  0  0  0  0  0  0  0  0
   -1.5024   13.0427    8.2705 H   0  0  0  0  0  0  0  0  0  0  0  0
   -2.0794   11.3172    6.3751 H   0  0  0  0  0  0  0  0  0  0  0  0
   -3.0135   13.4888    5.1847 H   0  0  0  0  0  0  0  0  0  0  0  0
   -2.0131   12.5988    4.0147 H   0  0  0  0  0  0  0  0  0  0  0  0
    0.5698   11.5628    6.5095 H   0  0  0  0  0  0  0  0  0  0  0  0
    3.6223    6.4852    2.5116 H   0  0  0  0  0  0  0  0  0  0  0  0
    3.3867    4.7151    2.3852 H   0  0  0  0  0  0  0  0  0  0  0  0
    5.0595    4.6387    0.5322 H   0  0  0  0  0  0  0  0  0  0  0  0
    5.7825    5.3240    1.9925 H   0  0  0  0  0  0  0  0  0  0  0  0
    5.2958    6.3867    0.6671 H   0  0  0  0  0  0  0  0  0  0  0  0
    3.7871    1.6095   -2.7340 H   0  0  0  0  0  0  0  0  0  0  0  0
    4.3165    3.2402   -2.2532 H   0  0  0  0  0  0  0  0  0  0  0  0
    3.1973    2.8071    0.0083 H   0  0  0  0  0  0  0  0  0  0  0  0
    4.6157    1.7841   -0.3257 H   0  0  0  0  0  0  0  0  0  0  0  0
    2.9872    1.1210   -0.4864 H   0  0  0  0  0  0  0  0  0  0  0  0
    2.4338   -0.8720   -4.2065 H   0  0  0  0  0  0  0  0  0  0  0  0
    0.6787   -0.5743   -4.1411 H   0  0  0  0  0  0  0  0  0  0  0  0
    1.6372    0.6302   -6.0464 H   0  0  0  0  0  0  0  0  0  0  0  0
    2.7897    1.4701   -4.9992 H   0  0  0  0  0  0  0  0  0  0  0  0
    1.0624    1.7968   -4.8478 H   0  0  0  0  0  0  0  0  0  0  0  0
   -4.0510   -1.2420   -2.5032 H   0  0  0  0  0  0  0  0  0  0  0  0
   -5.6251    0.6298   -2.1370 H   0  0  0  0  0  0  0  0  0  0  0  0
   -4.4547    5.0095   -4.1476 H   0  0  0  0  0  0  0  0  0  0  0  0
   -3.6905    4.7573   -2.5432 H   0  0  0  0  0  0  0  0  0  0  0  0
   -5.2303    5.6373   -2.6799 H   0  0  0  0  0  0  0  0  0  0  0  0
   -3.1103    3.1821   -4.4725 H   0  0  0  0  0  0  0  0  0  0  0  0
   -1.5767    1.3130   -4.8651 H   0  0  0  0  0  0  0  0  0  0  0  0
    0.1228   -2.8773   -4.5130 H   0  0  0  0  0  0  0  0  0  0  0  0
    0.2733   -4.1199   -6.5828 H   0  0  0  0  0  0  0  0  0  0  0  0
   -0.6119   -6.0166   -7.7867 H   0  0  0  0  0  0  0  0  0  0  0  0
    0.6851   -5.1201   -8.6421 H   0  0  0  0  0  0  0  0  0  0  0  0
   -0.4399   -6.1488   -9.5522 H   0  0  0  0  0  0  0  0  0  0  0  0
   -3.2814   -2.2153   -8.0011 H   0  0  0  0  0  0  0  0  0  0  0  0
   -3.4549   -0.9704   -5.8910 H   0  0  0  0  0  0  0  0  0  0  0  0
    0.3686   -6.2963    2.7316 H   0  0  0  0  0  0  0  0  0  0  0  0
    1.2404   -8.5744    3.0242 H   0  0  0  0  0  0  0  0  0  0  0  0
    2.9784  -12.1938   -0.1533 H   0  0  0  0  0  0  0  0  0  0  0  0
    1.7808  -11.2174   -1.0225 H   0  0  0  0  0  0  0  0  0  0  0  0
    3.4395  -10.5837   -0.7484 H   0  0  0  0  0  0  0  0  0  0  0  0
    1.9677   -8.8245   -1.1855 H   0  0  0  0  0  0  0  0  0  0  0  0
    1.1382   -6.5662   -1.4676 H   0  0  0  0  0  0  0  0  0  0  0  0
    2.4352   -4.4202    1.5884 H   0  0  0  0  0  0  0  0  0  0  0  0
    2.8290   -2.8148    3.3822 H   0  0  0  0  0  0  0  0  0  0  0  0
    2.7978   -0.3631    6.0684 H   0  0  0  0  0  0  0  0  0  0  0  0
    3.2712   -0.7707    4.4049 H   0  0  0  0  0  0  0  0  0  0  0  0
    2.9634   -2.0699    5.6042 H   0  0  0  0  0  0  0  0  0  0  0  0
   -1.3557   -1.9224    3.5014 H   0  0  0  0  0  0  0  0  0  0  0  0
   -1.7457   -3.5707    1.6932 H   0  0  0  0  0  0  0  0  0  0  0  0
   -1.8820   -7.1309   -2.5484 H   0  0  0  0  0  0  0  0  0  0  0  0
   -2.3582   -7.7129    3.6636 H   0  0  0  0  0  0  0  0  0  0  0  0
   -1.5855  -11.6993    0.6365 H   0  0  0  0  0  0  0  0  0  0  0  0
   -2.7845  -12.7117    3.6981 H   0  0  0  0  0  0  0  0  0  0  0  0
   -0.1755  -13.2339    3.5564 H   0  0  0  0  0  0  0  0  0  0  0  0
   -1.0693  -14.1243    5.8650 H   0  0  0  0  0  0  0  0  0  0  0  0
   -1.4182  -12.0394    7.4732 H   0  0  0  0  0  0  0  0  0  0  0  0
   -0.7452   -9.8681    6.1566 H   0  0  0  0  0  0  0  0  0  0  0  0
    1.0659  -11.4955    5.1144 H   0  0  0  0  0  0  0  0  0  0  0  0
    0.2922  -10.6116    3.7811 H   0  0  0  0  0  0  0  0  0  0  0  0
   -3.1326  -10.6859    5.2963 H   0  0  0  0  0  0  0  0  0  0  0  0
  1  2  2  0  0  0  0
  2  3  1  0  0  0  0
  3  4  2  0  0  0  0
  3  5  1  0  0  0  0
  5  6  2  0  0  0  0
  6  7  1  0  0  0  0
  7  8  2  0  0  0  0
  8  9  1  0  0  0  0
  9 10  2  0  0  0  0
 10 11  1  0  0  0  0
 11 12  2  0  0  0  0
 12 13  1  0  0  0  0
 13 14  3  0  0  0  0
 12 15  1  0  0  0  0
 15 16  3  0  0  0  0
  8 17  1  0  0  0  0
 17 18  1  0  0  0  0
 18 19  1  0  0  0  0
 19 20  2  0  0  0  0
 20 21  1  0  0  0  0
 21 22  1  0  0  0  0
 21 23  1  0  0  0  0
  1 24  1  0  0  0  0
 24 25  1  0  0  0  0
 25 26  2  0  0  0  0
 26 27  1  0  0  0  0
 27 28  1  0  0  0  0
 28 29  1  0  0  0  0
 27 30  1  0  0  0  0
 30 31  2  0  0  0  0
 31 32  1  0  0  0  0
 32 33  2  0  0  0  0
 33 34  1  0  0  0  0
 34 35  1  0  0  0  0
 33 36  1  0  0  0  0
 32 37  1  0  0  0  0
 37 38  2  0  0  0  0
 38 39  1  0  0  0  0
 39 40  1  0  0  0  0
 40 41  1  0  0  0  0
 38 42  1  0  0  0  0
 42 43  1  0  0  0  0
 43 44  1  0  0  0  0
 44 45  1  0  0  0  0
 42 46  2  0  0  0  0
 46 47  1  0  0  0  0
 47 48  1  0  0  0  0
 48 49  2  0  0  0  0
 49 50  1  0  0  0  0
 50 51  1  0  0  0  0
 46 52  1  0  0  0  0
 52 53  2  0  0  0  0
 53 54  1  0  0  0  0
 54 55  1  0  0  0  0
 55 56  2  0  0  0  0
 56 57  1  0  0  0  0
 57 58  2  0  0  0  0
 58 59  1  0  0  0  0
 59 60  1  0  0  0  0
 58 61  1  0  0  0  0
 61 62  2  0  0  0  0
 54 63  1  0  0  0  0
 63 64  2  0  0  0  0
 64 65  1  0  0  0  0
 65 66  2  0  0  0  0
 66 67  1  0  0  0  0
 67 68  1  0  0  0  0
 66 69  1  0  0  0  0
 69 70  2  0  0  0  0
 53 71  1  0  0  0  0
 71 72  1  0  0  0  0
 72 73  1  0  0  0  0
 73 74  2  0  0  0  0
 74 75  1  0  0  0  0
 75 76  1  0  0  0  0
 76 77  2  0  0  0  0
 77 78  1  0  0  0  0
 78 79  2  0  0  0  0
 79 80  1  0  0  0  0
 80 81  1  0  0  0  0
 79 82  1  0  0  0  0
 82 83  2  0  0  0  0
 75 84  1  0  0  0  0
 84 85  2  0  0  0  0
 85 86  1  0  0  0  0
 86 87  2  0  0  0  0
 87 88  1  0  0  0  0
 88 89  1  0  0  0  0
 87 90  1  0  0  0  0
 90 91  2  0  0  0  0
 74 92  1  0  0  0  0
 92 93  1  0  0  0  0
 73 94  1  0  0  0  0
 94 95  2  0  0  0  0
 95 96  1  0  0  0  0
 96 97  2  0  0  0  0
 96 98  1  0  0  0  0
 98 99  2  0  0  0  0
 99100  1  0  0  0  0
100101  2  0  0  0  0
101102  1  0  0  0  0
102103  2  0  0  0  0
103104  1  0  0  0  0
104105  2  0  0  0  0
105106  1  0  0  0  0
106107  3  0  0  0  0
105108  1  0  0  0  0
108109  3  0  0  0  0
101110  1  0  0  0  0
110111  1  0  0  0  0
111112  1  0  0  0  0
112113  2  0  0  0  0
113114  1  0  0  0  0
114115  1  0  0  0  0
114116  1  0  0  0  0
 11  2  1  0  0  0  0
 23 17  1  0  0  0  0
 34 24  2  0  0  0  0
 48 37  1  0  0  0  0
 93 52  1  0  0  0  0
104 95  1  0  0  0  0
116110  1  0  0  0  0
 10  5  1  0  0  0  0
 22 18  1  0  0  0  0
 31 25  1  0  0  0  0
 51 47  2  0  0  0  0
 62 55  1  0  0  0  0
 70 63  1  0  0  0  0
 92 71  2  0  0  0  0
103 98  1  0  0  0  0
115111  1  0  0  0  0
 23  7  1  0  0  0  0
 83 76  1  0  0  0  0
 91 84  1  0  0  0  0
116100  1  0  0  0  0
  1117  1  0  0  0  0
  6118  1  0  0  0  0
  9119  1  0  0  0  0
 17120  1  0  0  0  0
 18121  1  0  0  0  0
 19122  1  0  0  0  0
 20123  1  0  0  0  0
 21124  1  0  0  0  0
 22125  1  0  0  0  0
 22126  1  0  0  0  0
 23127  1  0  0  0  0
 28128  1  0  0  0  0
 28129  1  0  0  0  0
 29130  1  0  0  0  0
 29131  1  0  0  0  0
 29132  1  0  0  0  0
 40133  1  0  0  0  0
 40134  1  0  0  0  0
 41135  1  0  0  0  0
 41136  1  0  0  0  0
 41137  1  0  0  0  0
 44138  1  0  0  0  0
 44139  1  0  0  0  0
 45140  1  0  0  0  0
 45141  1  0  0  0  0
 45142  1  0  0  0  0
 56143  1  0  0  0  0
 57144  1  0  0  0  0
 60145  1  0  0  0  0
 60146  1  0  0  0  0
 60147  1  0  0  0  0
 61148  1  0  0  0  0
 62149  1  0  0  0  0
 64150  1  0  0  0  0
 65151  1  0  0  0  0
 68152  1  0  0  0  0
 68153  1  0  0  0  0
 68154  1  0  0  0  0
 69155  1  0  0  0  0
 70156  1  0  0  0  0
 77157  1  0  0  0  0
 78158  1  0  0  0  0
 81159  1  0  0  0  0
 81160  1  0  0  0  0
 81161  1  0  0  0  0
 82162  1  0  0  0  0
 83163  1  0  0  0  0
 85164  1  0  0  0  0
 86165  1  0  0  0  0
 89166  1  0  0  0  0
 89167  1  0  0  0  0
 89168  1  0  0  0  0
 90169  1  0  0  0  0
 91170  1  0  0  0  0
 94171  1  0  0  0  0
 99172  1  0  0  0  0
102173  1  0  0  0  0
110174  1  0  0  0  0
111175  1  0  0  0  0
112176  1  0  0  0  0
113177  1  0  0  0  0
114178  1  0  0  0  0
115179  1  0  0  0  0
115180  1  0  0  0  0
116181  1  0  0  0  0
M  END
