
  xtb     02082204503D
 energy: -289.236446734026 gnorm: 0.000580280335 xtb: 6.4.1 (unknown)
170188  0     0  0            999 V2000
   -0.7535   -7.1864   -3.8850 C   0  0  0  0  0  0  0  0  0  0  0  0
   -1.0016   -8.4625   -4.3159 C   0  0  0  0  0  0  0  0  0  0  0  0
   -1.0929   -9.7119   -3.5257 C   0  0  0  0  0  0  0  0  0  0  0  0
   -1.0942   -9.8559   -2.3186 O   0  0  0  0  0  0  0  0  0  0  0  0
   -1.1577  -10.8097   -4.5073 C   0  0  0  0  0  0  0  0  0  0  0  0
   -1.2107  -12.1733   -4.2241 C   0  0  0  0  0  0  0  0  0  0  0  0
   -1.2509  -12.9747   -5.3393 C   0  0  0  0  0  0  0  0  0  0  0  0
   -1.2270  -12.4580   -6.6419 C   0  0  0  0  0  0  0  0  0  0  0  0
   -1.1754  -11.1162   -6.9345 C   0  0  0  0  0  0  0  0  0  0  0  0
   -1.1479  -10.2816   -5.8122 C   0  0  0  0  0  0  0  0  0  0  0  0
   -1.1142   -8.8252   -5.7197 C   0  0  0  0  0  0  0  0  0  0  0  0
   -1.2455   -7.9712   -6.7856 C   0  0  0  0  0  0  0  0  0  0  0  0
   -1.3649   -8.3830   -8.1300 C   0  0  0  0  0  0  0  0  0  0  0  0
   -1.4607   -8.6343   -9.2464 N   0  0  0  0  0  0  0  0  0  0  0  0
   -1.3283   -6.5658   -6.7240 C   0  0  0  0  0  0  0  0  0  0  0  0
   -1.4258   -5.4219   -6.7846 N   0  0  0  0  0  0  0  0  0  0  0  0
   -1.2880  -13.8270   -7.2721 C   0  0  0  0  0  0  0  0  0  0  0  0
   -2.6543  -14.2603   -7.8439 C   0  0  0  0  0  0  0  0  0  0  0  0
   -2.5446  -15.7647   -7.9427 C   0  0  0  0  0  0  0  0  0  0  0  0
   -2.5735  -16.2531   -6.7093 C   0  0  0  0  0  0  0  0  0  0  0  0
   -2.7029  -15.0869   -5.7560 C   0  0  0  0  0  0  0  0  0  0  0  0
   -3.5583  -14.1422   -6.6100 C   0  0  0  0  0  0  0  0  0  0  0  0
   -1.3204  -14.4028   -5.8199 C   0  0  0  0  0  0  0  0  0  0  0  0
   -0.6544   -6.6383   -2.5903 C   0  0  0  0  0  0  0  0  0  0  0  0
   -0.8728   -7.1705   -1.3333 C   0  0  0  0  0  0  0  0  0  0  0  0
   -0.6940   -6.2549   -0.2941 C   0  0  0  0  0  0  0  0  0  0  0  0
   -0.7586   -6.6590    1.4095 S   0  0  0  0  0  0  0  0  0  0  0  0
   -0.5470   -8.4743    1.4053 C   0  0  0  0  0  0  0  0  0  0  0  0
    0.8290   -8.9031    0.9363 C   0  0  0  0  0  0  0  0  0  0  0  0
   -0.3628   -4.9777   -0.7514 C   0  0  0  0  0  0  0  0  0  0  0  0
   -0.2151   -4.9485   -2.4693 S   0  0  0  0  0  0  0  0  0  0  0  0
   -0.1416   -3.7601   -0.0249 C   0  0  0  0  0  0  0  0  0  0  0  0
    0.7970   -2.8080   -0.4884 C   0  0  0  0  0  0  0  0  0  0  0  0
    1.6424   -2.8646   -1.5247 N   0  0  0  0  0  0  0  0  0  0  0  0
    2.2988   -1.7395   -1.4672 N   0  0  0  0  0  0  0  0  0  0  0  0
    3.3345   -1.4235   -2.4082 C   0  0  0  0  0  0  0  0  0  0  0  0
    4.5818   -2.2551   -2.1290 C   0  0  0  0  0  0  0  0  0  0  0  0
    1.9830   -0.9252   -0.5009 N   0  0  0  0  0  0  0  0  0  0  0  0
    1.0079   -1.5608    0.1624 C   0  0  0  0  0  0  0  0  0  0  0  0
    0.2530   -1.1668    1.2901 C   0  0  0  0  0  0  0  0  0  0  0  0
   -0.6211   -2.1368    1.7544 C   0  0  0  0  0  0  0  0  0  0  0  0
   -0.8255   -3.3714    1.1186 C   0  0  0  0  0  0  0  0  0  0  0  0
   -1.8200   -4.1310    1.6033 F   0  0  0  0  0  0  0  0  0  0  0  0
   -1.4048   -1.8630    2.8132 F   0  0  0  0  0  0  0  0  0  0  0  0
    0.3410    0.1621    1.8355 C   0  0  0  0  0  0  0  0  0  0  0  0
    0.4197    1.3517    1.1197 C   0  0  0  0  0  0  0  0  0  0  0  0
    0.2748    1.4906   -0.2443 N   0  0  0  0  0  0  0  0  0  0  0  0
    0.8366    2.6139   -0.8738 C   0  0  0  0  0  0  0  0  0  0  0  0
    2.1237    3.0341   -0.5491 C   0  0  0  0  0  0  0  0  0  0  0  0
    2.6364    4.1941   -1.0941 C   0  0  0  0  0  0  0  0  0  0  0  0
    1.8696    4.9436   -1.9747 C   0  0  0  0  0  0  0  0  0  0  0  0
    2.4444    6.4789   -2.6377 S   0  0  0  0  0  0  0  0  0  0  0  0
    3.2764    7.1852   -1.1820 C   0  0  0  0  0  0  0  0  0  0  0  0
    0.6130    4.4880   -2.3584 C   0  0  0  0  0  0  0  0  0  0  0  0
    0.0976    3.3339   -1.8112 C   0  0  0  0  0  0  0  0  0  0  0  0
   -0.4565    0.5783   -1.0150 C   0  0  0  0  0  0  0  0  0  0  0  0
   -1.6138   -0.0320   -0.5280 C   0  0  0  0  0  0  0  0  0  0  0  0
   -2.2478   -1.0068   -1.2650 C   0  0  0  0  0  0  0  0  0  0  0  0
   -1.7573   -1.3873   -2.5138 C   0  0  0  0  0  0  0  0  0  0  0  0
   -2.6002   -2.7007   -3.3312 S   0  0  0  0  0  0  0  0  0  0  0  0
   -1.7460   -2.8369   -4.9233 C   0  0  0  0  0  0  0  0  0  0  0  0
   -0.6497   -0.7298   -3.0338 C   0  0  0  0  0  0  0  0  0  0  0  0
   -0.0118    0.2439   -2.2920 C   0  0  0  0  0  0  0  0  0  0  0  0
    0.5622    2.4561    2.0003 C   0  0  0  0  0  0  0  0  0  0  0  0
    0.7203    4.1590    1.7574 S   0  0  0  0  0  0  0  0  0  0  0  0
    0.7458    4.4223    3.5034 C   0  0  0  0  0  0  0  0  0  0  0  0
    0.5715    3.2117    4.2214 C   0  0  0  0  0  0  0  0  0  0  0  0
    0.4315    3.0973    5.5798 N   0  0  0  0  0  0  0  0  0  0  0  0
   -0.2286    4.0716    6.3495 C   0  0  0  0  0  0  0  0  0  0  0  0
    0.2254    4.3759    7.6294 C   0  0  0  0  0  0  0  0  0  0  0  0
   -0.3707    5.3837    8.3625 C   0  0  0  0  0  0  0  0  0  0  0  0
   -1.4140    6.1174    7.8157 C   0  0  0  0  0  0  0  0  0  0  0  0
   -2.1586    7.4984    8.6216 S   0  0  0  0  0  0  0  0  0  0  0  0
   -0.8896    8.0075    9.8162 C   0  0  0  0  0  0  0  0  0  0  0  0
   -1.9166    5.7667    6.5623 C   0  0  0  0  0  0  0  0  0  0  0  0
   -1.3406    4.7469    5.8412 C   0  0  0  0  0  0  0  0  0  0  0  0
    0.8845    1.9274    6.2149 C   0  0  0  0  0  0  0  0  0  0  0  0
    2.1184    1.3812    5.8748 C   0  0  0  0  0  0  0  0  0  0  0  0
    2.5736    0.2321    6.4905 C   0  0  0  0  0  0  0  0  0  0  0  0
    1.7997   -0.3870    7.4631 C   0  0  0  0  0  0  0  0  0  0  0  0
    2.2729   -1.8501    8.3224 S   0  0  0  0  0  0  0  0  0  0  0  0
    3.8094   -2.3626    7.5016 C   0  0  0  0  0  0  0  0  0  0  0  0
    0.5684    0.1667    7.8148 C   0  0  0  0  0  0  0  0  0  0  0  0
    0.1134    1.3095    7.1991 C   0  0  0  0  0  0  0  0  0  0  0  0
    0.5218    2.1113    3.3445 C   0  0  0  0  0  0  0  0  0  0  0  0
    0.3210    0.4057    3.5719 S   0  0  0  0  0  0  0  0  0  0  0  0
    0.9693    5.6594    4.1071 C   0  0  0  0  0  0  0  0  0  0  0  0
    1.0578    6.9206    3.5618 C   0  0  0  0  0  0  0  0  0  0  0  0
    0.9577    7.2797    2.1471 C   0  0  0  0  0  0  0  0  0  0  0  0
    0.9857    6.5324    1.1807 O   0  0  0  0  0  0  0  0  0  0  0  0
    0.8486    8.7473    2.0965 C   0  0  0  0  0  0  0  0  0  0  0  0
    0.6833    9.5399    0.9639 C   0  0  0  0  0  0  0  0  0  0  0  0
    0.5802   10.8838    1.2346 C   0  0  0  0  0  0  0  0  0  0  0  0
    0.6431   11.4010    2.5348 C   0  0  0  0  0  0  0  0  0  0  0  0
    0.8191   10.6293    3.6599 C   0  0  0  0  0  0  0  0  0  0  0  0
    0.9211    9.2597    3.4074 C   0  0  0  0  0  0  0  0  0  0  0  0
    1.1293    8.1426    4.3279 C   0  0  0  0  0  0  0  0  0  0  0  0
    1.3803    8.2621    5.6737 C   0  0  0  0  0  0  0  0  0  0  0  0
    1.7885    7.2167    6.5216 C   0  0  0  0  0  0  0  0  0  0  0  0
    2.1777    6.4429    7.2788 N   0  0  0  0  0  0  0  0  0  0  0  0
    1.3185    9.4659    6.4024 C   0  0  0  0  0  0  0  0  0  0  0  0
    1.2647   10.3900    7.0831 N   0  0  0  0  0  0  0  0  0  0  0  0
    0.4426   12.8203    2.0656 C   0  0  0  0  0  0  0  0  0  0  0  0
   -0.9615   13.4474    2.2518 C   0  0  0  0  0  0  0  0  0  0  0  0
   -1.9455   12.3039    2.2565 C   0  0  0  0  0  0  0  0  0  0  0  0
   -2.0036   11.8149    1.0250 C   0  0  0  0  0  0  0  0  0  0  0  0
   -1.0595   12.6187    0.1654 C   0  0  0  0  0  0  0  0  0  0  0  0
   -1.1910   13.9961    0.8344 C   0  0  0  0  0  0  0  0  0  0  0  0
    0.3742   12.2439    0.6162 C   0  0  0  0  0  0  0  0  0  0  0  0
   -0.5916   -6.4484   -4.6615 H   0  0  0  0  0  0  0  0  0  0  0  0
   -1.2168  -12.5268   -3.2048 H   0  0  0  0  0  0  0  0  0  0  0  0
   -1.1502  -10.7382   -7.9425 H   0  0  0  0  0  0  0  0  0  0  0  0
   -0.4527  -14.0898   -7.9184 H   0  0  0  0  0  0  0  0  0  0  0  0
   -2.9598  -13.7309   -8.7422 H   0  0  0  0  0  0  0  0  0  0  0  0
   -2.4062  -16.2968   -8.8655 H   0  0  0  0  0  0  0  0  0  0  0  0
   -2.4639  -17.2748   -6.3959 H   0  0  0  0  0  0  0  0  0  0  0  0
   -3.0540  -15.3120   -4.7525 H   0  0  0  0  0  0  0  0  0  0  0  0
   -4.5552  -14.5405   -6.7908 H   0  0  0  0  0  0  0  0  0  0  0  0
   -3.6370  -13.1321   -6.2122 H   0  0  0  0  0  0  0  0  0  0  0  0
   -0.5090  -15.0532   -5.4982 H   0  0  0  0  0  0  0  0  0  0  0  0
   -1.1610   -8.1952   -1.1995 H   0  0  0  0  0  0  0  0  0  0  0  0
   -1.3403   -8.9189    0.8074 H   0  0  0  0  0  0  0  0  0  0  0  0
   -0.7036   -8.7425    2.4504 H   0  0  0  0  0  0  0  0  0  0  0  0
    0.9234   -9.9833    1.0238 H   0  0  0  0  0  0  0  0  0  0  0  0
    0.9883   -8.6305   -0.1044 H   0  0  0  0  0  0  0  0  0  0  0  0
    1.6005   -8.4335    1.5425 H   0  0  0  0  0  0  0  0  0  0  0  0
    3.5416   -0.3572   -2.3051 H   0  0  0  0  0  0  0  0  0  0  0  0
    2.9570   -1.6376   -3.4108 H   0  0  0  0  0  0  0  0  0  0  0  0
    4.9666   -2.0393   -1.1353 H   0  0  0  0  0  0  0  0  0  0  0  0
    5.3510   -2.0237   -2.8599 H   0  0  0  0  0  0  0  0  0  0  0  0
    4.3421   -3.3134   -2.1918 H   0  0  0  0  0  0  0  0  0  0  0  0
    2.7149    2.4468    0.1379 H   0  0  0  0  0  0  0  0  0  0  0  0
    3.6305    4.5135   -0.8238 H   0  0  0  0  0  0  0  0  0  0  0  0
    2.6728    6.9625   -0.3072 H   0  0  0  0  0  0  0  0  0  0  0  0
    4.2804    6.7827   -1.0824 H   0  0  0  0  0  0  0  0  0  0  0  0
    3.3276    8.2569   -1.3473 H   0  0  0  0  0  0  0  0  0  0  0  0
    0.0348    5.0651   -3.0631 H   0  0  0  0  0  0  0  0  0  0  0  0
   -0.8930    2.9982   -2.0801 H   0  0  0  0  0  0  0  0  0  0  0  0
   -2.0116    0.2593    0.4323 H   0  0  0  0  0  0  0  0  0  0  0  0
   -3.1331   -1.4899   -0.8808 H   0  0  0  0  0  0  0  0  0  0  0  0
   -1.8524   -1.9098   -5.4784 H   0  0  0  0  0  0  0  0  0  0  0  0
   -0.7021   -3.0899   -4.7626 H   0  0  0  0  0  0  0  0  0  0  0  0
   -2.2318   -3.6459   -5.4598 H   0  0  0  0  0  0  0  0  0  0  0  0
   -0.2637   -0.9773   -4.0090 H   0  0  0  0  0  0  0  0  0  0  0  0
    0.8609    0.7382   -2.6932 H   0  0  0  0  0  0  0  0  0  0  0  0
    1.0659    3.8403    8.0419 H   0  0  0  0  0  0  0  0  0  0  0  0
    0.0112    5.6069    9.3445 H   0  0  0  0  0  0  0  0  0  0  0  0
   -1.1795    8.9992   10.1489 H   0  0  0  0  0  0  0  0  0  0  0  0
    0.0758    8.0511    9.3208 H   0  0  0  0  0  0  0  0  0  0  0  0
   -0.8700    7.3263   10.6620 H   0  0  0  0  0  0  0  0  0  0  0  0
   -2.7590    6.3104    6.1633 H   0  0  0  0  0  0  0  0  0  0  0  0
   -1.7276    4.4860    4.8676 H   0  0  0  0  0  0  0  0  0  0  0  0
    2.7296    1.8677    5.1288 H   0  0  0  0  0  0  0  0  0  0  0  0
    3.5359   -0.1620    6.2075 H   0  0  0  0  0  0  0  0  0  0  0  0
    3.6280   -2.5118    6.4413 H   0  0  0  0  0  0  0  0  0  0  0  0
    4.5895   -1.6262    7.6720 H   0  0  0  0  0  0  0  0  0  0  0  0
    4.0870   -3.3042    7.9648 H   0  0  0  0  0  0  0  0  0  0  0  0
   -0.0277   -0.3199    8.5711 H   0  0  0  0  0  0  0  0  0  0  0  0
   -0.8450    1.7273    7.4674 H   0  0  0  0  0  0  0  0  0  0  0  0
    1.0517    5.6144    5.1852 H   0  0  0  0  0  0  0  0  0  0  0  0
    0.6368    9.1012   -0.0208 H   0  0  0  0  0  0  0  0  0  0  0  0
    0.8666   11.0421    4.6540 H   0  0  0  0  0  0  0  0  0  0  0  0
    1.2432   13.5192    2.2998 H   0  0  0  0  0  0  0  0  0  0  0  0
   -1.0363   14.1482    3.0789 H   0  0  0  0  0  0  0  0  0  0  0  0
   -2.4389   11.9423    3.1397 H   0  0  0  0  0  0  0  0  0  0  0  0
   -2.5552   10.9626    0.6736 H   0  0  0  0  0  0  0  0  0  0  0  0
   -1.2237   12.5653   -0.9077 H   0  0  0  0  0  0  0  0  0  0  0  0
   -2.1802   14.4334    0.7073 H   0  0  0  0  0  0  0  0  0  0  0  0
   -0.4304   14.7077    0.5160 H   0  0  0  0  0  0  0  0  0  0  0  0
    1.1310   12.5659   -0.0966 H   0  0  0  0  0  0  0  0  0  0  0  0
  1  2  2  0  0  0  0
  2  3  1  0  0  0  0
  3  4  2  0  0  0  0
  3  5  1  0  0  0  0
  5  6  2  0  0  0  0
  6  7  1  0  0  0  0
  7  8  2  0  0  0  0
  8  9  1  0  0  0  0
  9 10  2  0  0  0  0
 10 11  1  0  0  0  0
 11 12  2  0  0  0  0
 12 13  1  0  0  0  0
 13 14  3  0  0  0  0
 12 15  1  0  0  0  0
 15 16  3  0  0  0  0
  8 17  1  0  0  0  0
 17 18  1  0  0  0  0
 18 19  1  0  0  0  0
 19 20  2  0  0  0  0
 20 21  1  0  0  0  0
 21 22  1  0  0  0  0
 21 23  1  0  0  0  0
  1 24  1  0  0  0  0
 24 25  2  0  0  0  0
 25 26  1  0  0  0  0
 26 27  1  0  0  0  0
 27 28  1  0  0  0  0
 28 29  1  0  0  0  0
 26 30  2  0  0  0  0
 30 31  1  0  0  0  0
 30 32  1  0  0  0  0
 32 33  1  0  0  0  0
 33 34  2  0  0  0  0
 34 35  1  0  0  0  0
 35 36  1  0  0  0  0
 36 37  1  0  0  0  0
 35 38  1  0  0  0  0
 38 39  2  0  0  0  0
 39 40  1  0  0  0  0
 40 41  2  0  0  0  0
 41 42  1  0  0  0  0
 42 43  1  0  0  0  0
 41 44  1  0  0  0  0
 40 45  1  0  0  0  0
 45 46  2  0  0  0  0
 46 47  1  0  0  0  0
 47 48  1  0  0  0  0
 48 49  2  0  0  0  0
 49 50  1  0  0  0  0
 50 51  2  0  0  0  0
 51 52  1  0  0  0  0
 52 53  1  0  0  0  0
 51 54  1  0  0  0  0
 54 55  2  0  0  0  0
 47 56  1  0  0  0  0
 56 57  2  0  0  0  0
 57 58  1  0  0  0  0
 58 59  2  0  0  0  0
 59 60  1  0  0  0  0
 60 61  1  0  0  0  0
 59 62  1  0  0  0  0
 62 63  2  0  0  0  0
 46 64  1  0  0  0  0
 64 65  1  0  0  0  0
 65 66  1  0  0  0  0
 66 67  2  0  0  0  0
 67 68  1  0  0  0  0
 68 69  1  0  0  0  0
 69 70  2  0  0  0  0
 70 71  1  0  0  0  0
 71 72  2  0  0  0  0
 72 73  1  0  0  0  0
 73 74  1  0  0  0  0
 72 75  1  0  0  0  0
 75 76  2  0  0  0  0
 68 77  1  0  0  0  0
 77 78  2  0  0  0  0
 78 79  1  0  0  0  0
 79 80  2  0  0  0  0
 80 81  1  0  0  0  0
 81 82  1  0  0  0  0
 80 83  1  0  0  0  0
 83 84  2  0  0  0  0
 67 85  1  0  0  0  0
 85 86  1  0  0  0  0
 66 87  1  0  0  0  0
 87 88  2  0  0  0  0
 88 89  1  0  0  0  0
 89 90  2  0  0  0  0
 89 91  1  0  0  0  0
 91 92  2  0  0  0  0
 92 93  1  0  0  0  0
 93 94  2  0  0  0  0
 94 95  1  0  0  0  0
 95 96  2  0  0  0  0
 96 97  1  0  0  0  0
 97 98  2  0  0  0  0
 98 99  1  0  0  0  0
 99100  3  0  0  0  0
 98101  1  0  0  0  0
101102  3  0  0  0  0
 94103  1  0  0  0  0
103104  1  0  0  0  0
104105  1  0  0  0  0
105106  2  0  0  0  0
106107  1  0  0  0  0
107108  1  0  0  0  0
107109  1  0  0  0  0
 11  2  1  0  0  0  0
 23 17  1  0  0  0  0
 31 24  1  0  0  0  0
 42 32  2  0  0  0  0
 86 45  1  0  0  0  0
 97 88  1  0  0  0  0
109103  1  0  0  0  0
 10  5  1  0  0  0  0
 22 18  1  0  0  0  0
 39 33  1  0  0  0  0
 55 48  1  0  0  0  0
 63 56  1  0  0  0  0
 85 64  2  0  0  0  0
 96 91  1  0  0  0  0
108104  1  0  0  0  0
 23  7  1  0  0  0  0
 76 69  1  0  0  0  0
 84 77  1  0  0  0  0
109 93  1  0  0  0  0
  1110  1  0  0  0  0
  6111  1  0  0  0  0
  9112  1  0  0  0  0
 17113  1  0  0  0  0
 18114  1  0  0  0  0
 19115  1  0  0  0  0
 20116  1  0  0  0  0
 21117  1  0  0  0  0
 22118  1  0  0  0  0
 22119  1  0  0  0  0
 23120  1  0  0  0  0
 25121  1  0  0  0  0
 28122  1  0  0  0  0
 28123  1  0  0  0  0
 29124  1  0  0  0  0
 29125  1  0  0  0  0
 29126  1  0  0  0  0
 36127  1  0  0  0  0
 36128  1  0  0  0  0
 37129  1  0  0  0  0
 37130  1  0  0  0  0
 37131  1  0  0  0  0
 49132  1  0  0  0  0
 50133  1  0  0  0  0
 53134  1  0  0  0  0
 53135  1  0  0  0  0
 53136  1  0  0  0  0
 54137  1  0  0  0  0
 55138  1  0  0  0  0
 57139  1  0  0  0  0
 58140  1  0  0  0  0
 61141  1  0  0  0  0
 61142  1  0  0  0  0
 61143  1  0  0  0  0
 62144  1  0  0  0  0
 63145  1  0  0  0  0
 70146  1  0  0  0  0
 71147  1  0  0  0  0
 74148  1  0  0  0  0
 74149  1  0  0  0  0
 74150  1  0  0  0  0
 75151  1  0  0  0  0
 76152  1  0  0  0  0
 78153  1  0  0  0  0
 79154  1  0  0  0  0
 82155  1  0  0  0  0
 82156  1  0  0  0  0
 82157  1  0  0  0  0
 83158  1  0  0  0  0
 84159  1  0  0  0  0
 87160  1  0  0  0  0
 92161  1  0  0  0  0
 95162  1  0  0  0  0
103163  1  0  0  0  0
104164  1  0  0  0  0
105165  1  0  0  0  0
106166  1  0  0  0  0
107167  1  0  0  0  0
108168  1  0  0  0  0
108169  1  0  0  0  0
109170  1  0  0  0  0
M  END
