184

C          7.24360       -1.82490        1.31010
C          7.81390       -0.66380        0.84960
C          7.11860        0.36830        0.08480
O          5.97690        0.33030       -0.35360
C          8.06870        1.48130       -0.07400
C          7.83380        2.70990       -0.68770
C          8.92380        3.54580       -0.70230
C         10.15700        3.18980       -0.14190
C         10.39720        1.98800        0.48220
C          9.30160        1.12020        0.50620
C          9.17190       -0.22030        1.08000
C         10.17640       -0.91600        1.70340
C         11.48810       -0.43230        1.88720
N         12.57270       -0.10550        2.07780
C         10.06990       -2.21490        2.24350
N         10.08720       -3.26630        2.70660
C         10.80140        4.49740       -0.53020
C         11.73530        4.46600       -1.75870
C         11.82460        5.91450       -2.18190
C         10.65580        6.25340       -2.71070
C          9.75670        5.03950       -2.65350
C         10.79820        3.93030       -2.84910
C          9.42470        4.89540       -1.15300
C          5.94430       -2.30640        1.13270
S          4.64210       -1.62220        0.19270
C          3.56480       -2.93040        0.61370
C          4.18930       -3.85110        1.43870
C          5.51090       -3.49500        1.73730
O          6.31370       -4.22380        2.54710
C          5.61200       -5.23710        3.24290
C          4.62870       -5.93960        2.30890
O          3.64430       -5.03310        1.85030
C          2.23710       -2.85300        0.09490
C          0.99720       -2.95990        0.70560
N          0.73890       -3.29280        2.03650
C         -0.06590       -2.39500        2.75290
C          0.09760       -1.02350        2.56460
C         -0.72160       -0.11440        3.20480
C         -1.71150       -0.56230        4.06800
S         -2.82650        0.50500        4.92820
C         -2.12970        2.16450        4.68680
C         -1.86830       -1.93080        4.27550
C         -1.06330       -2.83750        3.62280
C          0.97630       -4.58510        2.50460
C          1.29990       -4.80040        3.84480
C          1.54880       -6.07430        4.30060
C          1.48550       -7.16170        3.43050
S          1.87370       -8.74280        4.12480
C          1.53800       -9.90930        2.77530
C          1.15870       -6.95370        2.09850
C          0.90290       -5.67550        1.64320
C         -0.02850       -2.49670       -0.15340
S         -1.73330       -2.31910        0.03920
C         -1.84790       -1.53810       -1.53120
C         -0.63680       -1.50250       -2.19720
N         -0.43730       -1.02460       -3.48130
C          0.83670       -0.52540       -3.80880
C          1.49450        0.33780       -2.93760
C          2.77690        0.77570       -3.20870
C          3.41570        0.36320       -4.36900
S          5.05570        0.83160       -4.81250
C          5.67850        1.67740       -3.33380
C          2.74470       -0.46980       -5.26410
C          1.47280       -0.91480       -4.98730
C         -1.41780       -1.14570       -4.47060
C         -1.48330       -0.20350       -5.49870
C         -2.44840       -0.30180       -6.47460
C         -3.38780       -1.33010       -6.44110
S         -4.60180       -1.32660       -7.72460
C         -5.68670       -2.71950       -7.30300
C         -3.32090       -2.27640       -5.42880
C         -2.34040       -2.18800       -4.46040
C          0.39860       -2.04730       -1.39090
S          2.11110       -2.22540       -1.54610
C         -3.10980       -0.88940       -1.82350
C         -3.14530        0.40100       -2.36360
C         -4.30120        1.14820       -2.31100
Si        -4.56130        2.99230       -2.66690
C         -4.85050        3.39090       -4.51390
C         -3.90210        2.64170       -5.44490
C         -3.26840        4.11820       -1.82950
C         -1.93660        4.17070       -2.57110
C         -6.19510        2.89390       -1.71350
C         -6.52130        1.55450       -1.44580
C         -5.46710        0.59460       -1.74920
C         -5.47330       -0.73770       -1.35200
C         -4.30070       -1.46220       -1.37270
C         -7.71650        1.26030       -0.79770
C         -8.47560        2.28120       -0.26300
C         -8.05470        3.61040       -0.36580
C         -6.96590        3.90600       -1.18340
C         -8.68960        4.54300        0.56510
C         -8.08610        4.97270        1.69050
C         -8.90630        5.26010        2.91010
O        -10.00330        5.75810        2.95590
C         -8.11550        4.67870        4.01650
C         -8.52700        4.47830        5.33420
C         -7.59420        3.85160        6.12620
C         -6.33700        3.45020        5.65120
C         -5.91250        3.64320        4.35950
C         -6.84670        4.28030        3.53880
C         -6.72930        4.70400        2.15030
C         -5.56030        4.99780        1.50750
C         -4.29080        4.60260        1.97450
N         -3.23740        4.26020        2.27840
C         -5.46930        5.88060        0.41140
N         -5.31000        6.69420       -0.38220
C         -5.92720        2.87100        6.98030
C         -5.97710        1.33340        7.10280
C         -6.00110        1.09270        8.59470
C         -7.19200        1.46580        9.04560
C         -7.99480        1.96550        7.86540
C         -7.44630        1.04570        6.76670
C         -7.32910        3.31270        7.51090
H          7.85060       -2.48150        1.92200
H          6.86620        2.95010       -1.09840
H         11.34840        1.73640        0.91990
H         11.19570        5.09530        0.28920
H         12.67430        3.94230       -1.60280
H         12.68160        6.53840       -2.00830
H         10.34120        7.21680       -3.06690
H          8.89340        5.03900       -3.31390
H         11.25460        3.96400       -3.83690
H         10.42120        2.92750       -2.65660
H          8.89970        5.75850       -0.74760
H          5.05810       -4.79510        4.08140
H          6.36680       -5.92680        3.62060
H          4.09150       -6.73210        2.82930
H          5.17760       -6.35640        1.45330
H          0.87070       -0.66540        1.90020
H         -0.57960        0.93790        3.01770
H         -2.68930        2.81630        5.35120
H         -2.26100        2.49110        3.65890
H         -1.08220        2.16260        4.97240
H         -2.64300       -2.27530        4.94340
H         -1.21330       -3.89580        3.77280
H          1.36240       -3.95930        4.51910
H          1.80850       -6.24530        5.33460
H          0.50490       -9.81430        2.45460
H          2.22550       -9.73890        1.95170
H          1.70510      -10.89620        3.19540
H          1.09920       -7.77570        1.40330
H          0.65110       -5.51810        0.60500
H          1.00000        0.66260       -2.03340
H          3.26500        1.42580       -2.50200
H          6.72970        1.86790       -3.53140
H          5.15220        2.61910       -3.19990
H          5.57160        1.03270       -2.46500
H          3.24570       -0.77820       -6.16880
H          0.96700       -1.57840       -5.67250
H         -0.77160        0.60790       -5.52580
H         -2.49470        0.42610       -7.26960
H         -5.13430       -3.65310       -7.35610
H         -6.11560       -2.56830       -6.31670
H         -6.47230       -2.71480       -8.05220
H         -4.01910       -3.09650       -5.38350
H         -2.28970       -2.94510       -3.69300
H         -2.23690        0.84430       -2.74190
H         -4.73790        4.46430       -4.67120
H         -5.87740        3.14270       -4.78630
H         -4.01900        1.56780       -5.32430
H         -2.86640        2.89240       -5.23120
H         -4.10630        2.89330       -6.48400
H         -3.09320        3.78130       -0.80550
H         -3.66930        5.13010       -1.75770
H         -1.23300        4.81460       -2.04650
H         -2.07220        4.56550       -3.57480
H         -1.49550        3.17980       -2.64920
H         -6.37160       -1.19510       -0.96480
H         -4.28480       -2.47320       -0.99070
H         -8.03530        0.23810       -0.65930
H         -9.36240        2.05030        0.31010
H         -6.72060        4.93340       -1.39060
H         -9.76190        4.68790        0.49420
H         -9.50090        4.80230        5.66620
H         -4.95400        3.31550        3.99350
H         -5.03860        3.30550        7.43390
H         -5.21660        0.80840        6.53170
H         -5.15780        0.73770        9.15700
H         -7.54320        1.48620       10.06050
H         -9.07330        2.00970        7.99130
H         -7.73540        1.33470        5.75800
H         -7.70870        0.00290        6.93530
H         -7.37660        4.03740        8.32140
