
  xtb     02042223043D
 energy: -299.816927621957 gnorm: 0.000548252390 xtb: 6.4.1 (unknown)
183201  0     0  0            999 V2000
    0.0375   -0.3738    8.8044 C   0  0  0  0  0  0  0  0  0  0  0  0
    0.9499   -1.3696    9.0441 C   0  0  0  0  0  0  0  0  0  0  0  0
    1.8284   -1.9782    8.0438 C   0  0  0  0  0  0  0  0  0  0  0  0
    1.8801   -1.7239    6.8496 O   0  0  0  0  0  0  0  0  0  0  0  0
    2.6610   -2.9582    8.7551 C   0  0  0  0  0  0  0  0  0  0  0  0
    3.6534   -3.7694    8.2099 C   0  0  0  0  0  0  0  0  0  0  0  0
    4.2780   -4.5786    9.1285 C   0  0  0  0  0  0  0  0  0  0  0  0
    3.9418   -4.5786   10.4886 C   0  0  0  0  0  0  0  0  0  0  0  0
    2.9625   -3.7840   11.0377 C   0  0  0  0  0  0  0  0  0  0  0  0
    2.3105   -2.9551   10.1212 C   0  0  0  0  0  0  0  0  0  0  0  0
    1.2330   -1.9866   10.3248 C   0  0  0  0  0  0  0  0  0  0  0  0
    0.6107   -1.7332   11.5210 C   0  0  0  0  0  0  0  0  0  0  0  0
   -0.4381   -0.8133   11.7261 C   0  0  0  0  0  0  0  0  0  0  0  0
   -1.2880   -0.0841   11.9854 N   0  0  0  0  0  0  0  0  0  0  0  0
    0.9283   -2.3696   12.7390 C   0  0  0  0  0  0  0  0  0  0  0  0
    1.1254   -2.8419   13.7670 N   0  0  0  0  0  0  0  0  0  0  0  0
    4.9650   -5.6346   10.8235 C   0  0  0  0  0  0  0  0  0  0  0  0
    4.4603   -7.0804   11.0548 C   0  0  0  0  0  0  0  0  0  0  0  0
    3.1807   -7.2185   10.2677 C   0  0  0  0  0  0  0  0  0  0  0  0
    3.4962   -7.2196    8.9794 C   0  0  0  0  0  0  0  0  0  0  0  0
    4.9948   -7.0824    8.8719 C   0  0  0  0  0  0  0  0  0  0  0  0
    5.4276   -7.8431   10.1354 C   0  0  0  0  0  0  0  0  0  0  0  0
    5.3378   -5.6361    9.3072 C   0  0  0  0  0  0  0  0  0  0  0  0
   -0.2920    0.2733    7.6045 C   0  0  0  0  0  0  0  0  0  0  0  0
   -1.2276    1.3057    7.5500 C   0  0  0  0  0  0  0  0  0  0  0  0
   -1.4395    1.8163    6.2765 C   0  0  0  0  0  0  0  0  0  0  0  0
   -2.4066    3.2154    5.8379 S   0  0  0  0  0  0  0  0  0  0  0  0
   -2.9886    3.8438    7.4514 C   0  0  0  0  0  0  0  0  0  0  0  0
   -4.1856    3.0786    7.9822 C   0  0  0  0  0  0  0  0  0  0  0  0
   -0.6733    1.1517    5.3179 C   0  0  0  0  0  0  0  0  0  0  0  0
    0.3467   -0.0590    6.0185 S   0  0  0  0  0  0  0  0  0  0  0  0
   -0.6337    1.3433    3.9100 C   0  0  0  0  0  0  0  0  0  0  0  0
   -1.6780    1.5185    3.0102 C   0  0  0  0  0  0  0  0  0  0  0  0
   -3.0227    1.4817    3.3242 N   0  0  0  0  0  0  0  0  0  0  0  0
   -3.8942    2.2775    2.5661 C   0  0  0  0  0  0  0  0  0  0  0  0
   -5.1170    1.7833    2.1235 C   0  0  0  0  0  0  0  0  0  0  0  0
   -5.9517    2.5655    1.3494 C   0  0  0  0  0  0  0  0  0  0  0  0
   -5.5702    3.8534    0.9962 C   0  0  0  0  0  0  0  0  0  0  0  0
   -6.5485    4.9398    0.0090 S   0  0  0  0  0  0  0  0  0  0  0  0
   -7.8545    3.8669   -0.6542 C   0  0  0  0  0  0  0  0  0  0  0  0
   -4.3509    4.3550    1.4483 C   0  0  0  0  0  0  0  0  0  0  0  0
   -3.5232    3.5791    2.2268 C   0  0  0  0  0  0  0  0  0  0  0  0
   -3.5049    0.6151    4.3115 C   0  0  0  0  0  0  0  0  0  0  0  0
   -2.8756   -0.6051    4.5654 C   0  0  0  0  0  0  0  0  0  0  0  0
   -3.2981   -1.4043    5.6029 C   0  0  0  0  0  0  0  0  0  0  0  0
   -4.3755   -1.0218    6.3994 C   0  0  0  0  0  0  0  0  0  0  0  0
   -4.7848   -2.1022    7.7350 S   0  0  0  0  0  0  0  0  0  0  0  0
   -6.1577   -1.2622    8.5747 C   0  0  0  0  0  0  0  0  0  0  0  0
   -5.0482    0.1568    6.1083 C   0  0  0  0  0  0  0  0  0  0  0  0
   -4.6115    0.9676    5.0784 C   0  0  0  0  0  0  0  0  0  0  0  0
   -1.1875    1.5997    1.6835 C   0  0  0  0  0  0  0  0  0  0  0  0
   -1.9228    1.8108    0.1331 S   0  0  0  0  0  0  0  0  0  0  0  0
   -0.3690    1.5918   -0.6611 C   0  0  0  0  0  0  0  0  0  0  0  0
    0.6737    1.4323    0.2470 C   0  0  0  0  0  0  0  0  0  0  0  0
    2.0259    1.3082   -0.0377 N   0  0  0  0  0  0  0  0  0  0  0  0
    2.6477    2.0645   -1.0355 C   0  0  0  0  0  0  0  0  0  0  0  0
    3.7319    1.5366   -1.7419 C   0  0  0  0  0  0  0  0  0  0  0  0
    4.2872    2.2359   -2.7885 C   0  0  0  0  0  0  0  0  0  0  0  0
    3.7792    3.4801   -3.1561 C   0  0  0  0  0  0  0  0  0  0  0  0
    4.5424    4.2681   -4.5380 S   0  0  0  0  0  0  0  0  0  0  0  0
    3.8590    5.9513   -4.5050 C   0  0  0  0  0  0  0  0  0  0  0  0
    2.7192    4.0207   -2.4432 C   0  0  0  0  0  0  0  0  0  0  0  0
    2.1637    3.3197   -1.3909 C   0  0  0  0  0  0  0  0  0  0  0  0
    2.7667    0.4380    0.7782 C   0  0  0  0  0  0  0  0  0  0  0  0
    2.2360   -0.8076    1.1129 C   0  0  0  0  0  0  0  0  0  0  0  0
    2.9065   -1.6388    1.9870 C   0  0  0  0  0  0  0  0  0  0  0  0
    4.1163   -1.2356    2.5292 C   0  0  0  0  0  0  0  0  0  0  0  0
    4.9521   -2.2810    3.7062 S   0  0  0  0  0  0  0  0  0  0  0  0
    4.7023   -1.2653    5.1978 C   0  0  0  0  0  0  0  0  0  0  0  0
    4.6764   -0.0209    2.1594 C   0  0  0  0  0  0  0  0  0  0  0  0
    4.0058    0.8159    1.2916 C   0  0  0  0  0  0  0  0  0  0  0  0
    0.1830    1.4253    1.5741 C   0  0  0  0  0  0  0  0  0  0  0  0
    0.9259    1.1845    3.1149 S   0  0  0  0  0  0  0  0  0  0  0  0
   -0.3007    1.5655   -2.0811 C   0  0  0  0  0  0  0  0  0  0  0  0
    0.6929    1.0023   -2.8505 C   0  0  0  0  0  0  0  0  0  0  0  0
    0.5384    1.1781   -4.2299 C   0  0  0  0  0  0  0  0  0  0  0  0
    1.6224    0.8363   -5.1461 C   0  0  0  0  0  0  0  0  0  0  0  0
    2.2991   -0.3893   -4.9943 C   0  0  0  0  0  0  0  0  0  0  0  0
    1.8641   -1.1943   -3.9992 O   0  0  0  0  0  0  0  0  0  0  0  0
    2.4127   -2.4884   -3.8499 C   0  0  0  0  0  0  0  0  0  0  0  0
    1.7354   -3.1276   -2.6470 C   0  0  0  0  0  0  0  0  0  0  0  0
    3.3490   -0.7099   -5.8475 C   0  0  0  0  0  0  0  0  0  0  0  0
    3.7507    0.1941   -6.8097 C   0  0  0  0  0  0  0  0  0  0  0  0
    3.1255    1.4187   -6.9475 C   0  0  0  0  0  0  0  0  0  0  0  0
    2.0533    1.7468   -6.1271 C   0  0  0  0  0  0  0  0  0  0  0  0
    1.3890    2.9349   -6.1764 O   0  0  0  0  0  0  0  0  0  0  0  0
    1.8636    3.9682   -7.0180 C   0  0  0  0  0  0  0  0  0  0  0  0
    1.4286    3.8199   -8.4741 C   0  0  0  0  0  0  0  0  0  0  0  0
   -0.6628    1.8201   -4.5460 C   0  0  0  0  0  0  0  0  0  0  0  0
   -1.5075    2.3006   -3.0832 S   0  0  0  0  0  0  0  0  0  0  0  0
   -1.2941    2.1426   -5.7585 C   0  0  0  0  0  0  0  0  0  0  0  0
   -1.1227    1.5738   -6.9937 C   0  0  0  0  0  0  0  0  0  0  0  0
   -0.5101    0.2605   -7.2733 C   0  0  0  0  0  0  0  0  0  0  0  0
   -0.0911   -0.5560   -6.4773 O   0  0  0  0  0  0  0  0  0  0  0  0
   -0.6353    0.0583   -8.7312 C   0  0  0  0  0  0  0  0  0  0  0  0
   -0.1640   -1.0261   -9.4666 C   0  0  0  0  0  0  0  0  0  0  0  0
   -0.4474   -0.9573  -10.8096 C   0  0  0  0  0  0  0  0  0  0  0  0
   -1.1615    0.1055  -11.3776 C   0  0  0  0  0  0  0  0  0  0  0  0
   -1.6383    1.1778  -10.6622 C   0  0  0  0  0  0  0  0  0  0  0  0
   -1.3495    1.1329   -9.2944 C   0  0  0  0  0  0  0  0  0  0  0  0
   -1.6580    2.0902   -8.2335 C   0  0  0  0  0  0  0  0  0  0  0  0
   -2.2652    3.3088   -8.4189 C   0  0  0  0  0  0  0  0  0  0  0  0
   -2.7726    3.7709   -9.6496 C   0  0  0  0  0  0  0  0  0  0  0  0
   -3.2130    4.2147  -10.6135 N   0  0  0  0  0  0  0  0  0  0  0  0
   -2.4273    4.3020   -7.4309 C   0  0  0  0  0  0  0  0  0  0  0  0
   -2.5640    5.1885   -6.7123 N   0  0  0  0  0  0  0  0  0  0  0  0
   -1.0825   -0.4783  -12.7670 C   0  0  0  0  0  0  0  0  0  0  0  0
   -0.0521    0.1571  -13.7240 C   0  0  0  0  0  0  0  0  0  0  0  0
    0.1415   -0.8914  -14.7954 C   0  0  0  0  0  0  0  0  0  0  0  0
    0.8204   -1.8968  -14.2580 C   0  0  0  0  0  0  0  0  0  0  0  0
    1.0969   -1.5447  -12.8142 C   0  0  0  0  0  0  0  0  0  0  0  0
    1.2534   -0.0237  -12.9388 C   0  0  0  0  0  0  0  0  0  0  0  0
   -0.2835   -1.6622  -12.1337 C   0  0  0  0  0  0  0  0  0  0  0  0
   -0.5293   -0.0116    9.6531 H   0  0  0  0  0  0  0  0  0  0  0  0
    3.8811   -3.7386    7.1558 H   0  0  0  0  0  0  0  0  0  0  0  0
    2.7189   -3.7975   12.0868 H   0  0  0  0  0  0  0  0  0  0  0  0
    5.7332   -5.3441   11.5375 H   0  0  0  0  0  0  0  0  0  0  0  0
    4.4173   -7.3816   12.0980 H   0  0  0  0  0  0  0  0  0  0  0  0
    2.2036   -7.2425   10.7134 H   0  0  0  0  0  0  0  0  0  0  0  0
    2.8351   -7.2441    8.1330 H   0  0  0  0  0  0  0  0  0  0  0  0
    5.4383   -7.3860    7.9273 H   0  0  0  0  0  0  0  0  0  0  0  0
    5.2064   -8.9081   10.0825 H   0  0  0  0  0  0  0  0  0  0  0  0
    6.4761   -7.6975   10.3920 H   0  0  0  0  0  0  0  0  0  0  0  0
    6.3504   -5.3491    9.0301 H   0  0  0  0  0  0  0  0  0  0  0  0
   -1.7115    1.6551    8.4437 H   0  0  0  0  0  0  0  0  0  0  0  0
   -2.1440    3.8245    8.1386 H   0  0  0  0  0  0  0  0  0  0  0  0
   -3.2524    4.8820    7.2496 H   0  0  0  0  0  0  0  0  0  0  0  0
   -5.0306    3.1895    7.3072 H   0  0  0  0  0  0  0  0  0  0  0  0
   -4.4657    3.4662    8.9599 H   0  0  0  0  0  0  0  0  0  0  0  0
   -3.9616    2.0183    8.0758 H   0  0  0  0  0  0  0  0  0  0  0  0
   -5.4113    0.7769    2.3822 H   0  0  0  0  0  0  0  0  0  0  0  0
   -6.8929    2.1545    1.0217 H   0  0  0  0  0  0  0  0  0  0  0  0
   -8.3935    4.4747   -1.3742 H   0  0  0  0  0  0  0  0  0  0  0  0
   -8.5276    3.5556    0.1394 H   0  0  0  0  0  0  0  0  0  0  0  0
   -7.4065    3.0127   -1.1528 H   0  0  0  0  0  0  0  0  0  0  0  0
   -4.0665    5.3609    1.1813 H   0  0  0  0  0  0  0  0  0  0  0  0
   -2.5854    3.9732    2.5884 H   0  0  0  0  0  0  0  0  0  0  0  0
   -2.0488   -0.9249    3.9498 H   0  0  0  0  0  0  0  0  0  0  0  0
   -2.7960   -2.3368    5.8102 H   0  0  0  0  0  0  0  0  0  0  0  0
   -7.0123   -1.1848    7.9088 H   0  0  0  0  0  0  0  0  0  0  0  0
   -6.4081   -1.8924    9.4224 H   0  0  0  0  0  0  0  0  0  0  0  0
   -5.8383   -0.2851    8.9254 H   0  0  0  0  0  0  0  0  0  0  0  0
   -5.9050    0.4660    6.6851 H   0  0  0  0  0  0  0  0  0  0  0  0
   -5.1197    1.8984    4.8764 H   0  0  0  0  0  0  0  0  0  0  0  0
    4.1205    0.5646   -1.4760 H   0  0  0  0  0  0  0  0  0  0  0  0
    5.1114    1.8192   -3.3466 H   0  0  0  0  0  0  0  0  0  0  0  0
    4.0590    6.4073   -3.5400 H   0  0  0  0  0  0  0  0  0  0  0  0
    4.3803    6.4961   -5.2861 H   0  0  0  0  0  0  0  0  0  0  0  0
    2.7947    5.9295   -4.7193 H   0  0  0  0  0  0  0  0  0  0  0  0
    2.3072    4.9834   -2.6978 H   0  0  0  0  0  0  0  0  0  0  0  0
    1.3377    3.7505   -0.8451 H   0  0  0  0  0  0  0  0  0  0  0  0
    1.2856   -1.1085    0.6956 H   0  0  0  0  0  0  0  0  0  0  0  0
    2.4923   -2.5965    2.2606 H   0  0  0  0  0  0  0  0  0  0  0  0
    4.9963   -0.2412    4.9906 H   0  0  0  0  0  0  0  0  0  0  0  0
    3.6584   -1.3137    5.4966 H   0  0  0  0  0  0  0  0  0  0  0  0
    5.3374   -1.6871    5.9705 H   0  0  0  0  0  0  0  0  0  0  0  0
    5.6327    0.2747    2.5644 H   0  0  0  0  0  0  0  0  0  0  0  0
    4.4268    1.7721    1.0185 H   0  0  0  0  0  0  0  0  0  0  0  0
    1.5141    0.4560   -2.4352 H   0  0  0  0  0  0  0  0  0  0  0  0
    3.4975   -2.4272   -3.6817 H   0  0  0  0  0  0  0  0  0  0  0  0
    2.2266   -3.0822   -4.7542 H   0  0  0  0  0  0  0  0  0  0  0  0
    2.0952   -4.1438   -2.5142 H   0  0  0  0  0  0  0  0  0  0  0  0
    0.6599   -3.1437   -2.7993 H   0  0  0  0  0  0  0  0  0  0  0  0
    1.9514   -2.5549   -1.7484 H   0  0  0  0  0  0  0  0  0  0  0  0
    3.8575   -1.6565   -5.7659 H   0  0  0  0  0  0  0  0  0  0  0  0
    4.5710   -0.0563   -7.4657 H   0  0  0  0  0  0  0  0  0  0  0  0
    3.4853    2.1047   -7.6956 H   0  0  0  0  0  0  0  0  0  0  0  0
    1.4194    4.8782   -6.6033 H   0  0  0  0  0  0  0  0  0  0  0  0
    2.9547    4.0453   -6.9432 H   0  0  0  0  0  0  0  0  0  0  0  0
    1.9271    4.5715   -9.0804 H   0  0  0  0  0  0  0  0  0  0  0  0
    1.6748    2.8332   -8.8592 H   0  0  0  0  0  0  0  0  0  0  0  0
    0.3556    3.9626   -8.5612 H   0  0  0  0  0  0  0  0  0  0  0  0
   -2.0369    2.9281   -5.6750 H   0  0  0  0  0  0  0  0  0  0  0  0
    0.3745   -1.8274   -8.9850 H   0  0  0  0  0  0  0  0  0  0  0  0
   -2.1946    1.9821  -11.1135 H   0  0  0  0  0  0  0  0  0  0  0  0
   -2.0353   -0.6916  -13.2478 H   0  0  0  0  0  0  0  0  0  0  0  0
   -0.3006    1.1603  -14.0595 H   0  0  0  0  0  0  0  0  0  0  0  0
   -0.2706   -0.8215  -15.7850 H   0  0  0  0  0  0  0  0  0  0  0  0
    1.0883   -2.8344  -14.7090 H   0  0  0  0  0  0  0  0  0  0  0  0
    1.8961   -2.0921  -12.3214 H   0  0  0  0  0  0  0  0  0  0  0  0
    1.2727    0.4994  -11.9844 H   0  0  0  0  0  0  0  0  0  0  0  0
    2.1283    0.2538  -13.5247 H   0  0  0  0  0  0  0  0  0  0  0  0
   -0.7034   -2.6647  -12.1939 H   0  0  0  0  0  0  0  0  0  0  0  0
  1  2  2  0  0  0  0
  2  3  1  0  0  0  0
  3  4  2  0  0  0  0
  3  5  1  0  0  0  0
  5  6  2  0  0  0  0
  6  7  1  0  0  0  0
  7  8  2  0  0  0  0
  8  9  1  0  0  0  0
  9 10  2  0  0  0  0
 10 11  1  0  0  0  0
 11 12  2  0  0  0  0
 12 13  1  0  0  0  0
 13 14  3  0  0  0  0
 12 15  1  0  0  0  0
 15 16  3  0  0  0  0
  8 17  1  0  0  0  0
 17 18  1  0  0  0  0
 18 19  1  0  0  0  0
 19 20  2  0  0  0  0
 20 21  1  0  0  0  0
 21 22  1  0  0  0  0
 21 23  1  0  0  0  0
  1 24  1  0  0  0  0
 24 25  2  0  0  0  0
 25 26  1  0  0  0  0
 26 27  1  0  0  0  0
 27 28  1  0  0  0  0
 28 29  1  0  0  0  0
 26 30  2  0  0  0  0
 30 31  1  0  0  0  0
 30 32  1  0  0  0  0
 32 33  2  0  0  0  0
 33 34  1  0  0  0  0
 34 35  1  0  0  0  0
 35 36  2  0  0  0  0
 36 37  1  0  0  0  0
 37 38  2  0  0  0  0
 38 39  1  0  0  0  0
 39 40  1  0  0  0  0
 38 41  1  0  0  0  0
 41 42  2  0  0  0  0
 34 43  1  0  0  0  0
 43 44  2  0  0  0  0
 44 45  1  0  0  0  0
 45 46  2  0  0  0  0
 46 47  1  0  0  0  0
 47 48  1  0  0  0  0
 46 49  1  0  0  0  0
 49 50  2  0  0  0  0
 33 51  1  0  0  0  0
 51 52  1  0  0  0  0
 52 53  1  0  0  0  0
 53 54  2  0  0  0  0
 54 55  1  0  0  0  0
 55 56  1  0  0  0  0
 56 57  2  0  0  0  0
 57 58  1  0  0  0  0
 58 59  2  0  0  0  0
 59 60  1  0  0  0  0
 60 61  1  0  0  0  0
 59 62  1  0  0  0  0
 62 63  2  0  0  0  0
 55 64  1  0  0  0  0
 64 65  2  0  0  0  0
 65 66  1  0  0  0  0
 66 67  2  0  0  0  0
 67 68  1  0  0  0  0
 68 69  1  0  0  0  0
 67 70  1  0  0  0  0
 70 71  2  0  0  0  0
 54 72  1  0  0  0  0
 72 73  1  0  0  0  0
 53 74  1  0  0  0  0
 74 75  2  0  0  0  0
 75 76  1  0  0  0  0
 76 77  1  0  0  0  0
 77 78  2  0  0  0  0
 78 79  1  0  0  0  0
 79 80  1  0  0  0  0
 80 81  1  0  0  0  0
 78 82  1  0  0  0  0
 82 83  2  0  0  0  0
 83 84  1  0  0  0  0
 84 85  2  0  0  0  0
 85 86  1  0  0  0  0
 86 87  1  0  0  0  0
 87 88  1  0  0  0  0
 76 89  2  0  0  0  0
 89 90  1  0  0  0  0
 89 91  1  0  0  0  0
 91 92  2  0  0  0  0
 92 93  1  0  0  0  0
 93 94  2  0  0  0  0
 93 95  1  0  0  0  0
 95 96  2  0  0  0  0
 96 97  1  0  0  0  0
 97 98  2  0  0  0  0
 98 99  1  0  0  0  0
 99100  2  0  0  0  0
100101  1  0  0  0  0
101102  2  0  0  0  0
102103  1  0  0  0  0
103104  3  0  0  0  0
102105  1  0  0  0  0
105106  3  0  0  0  0
 98107  1  0  0  0  0
107108  1  0  0  0  0
108109  1  0  0  0  0
109110  2  0  0  0  0
110111  1  0  0  0  0
111112  1  0  0  0  0
111113  1  0  0  0  0
 11  2  1  0  0  0  0
 23 17  1  0  0  0  0
 31 24  1  0  0  0  0
 73 32  1  0  0  0  0
 90 74  1  0  0  0  0
101 92  1  0  0  0  0
113107  1  0  0  0  0
 10  5  1  0  0  0  0
 22 18  1  0  0  0  0
 42 35  1  0  0  0  0
 50 43  1  0  0  0  0
 72 51  2  0  0  0  0
 85 77  1  0  0  0  0
100 95  1  0  0  0  0
112108  1  0  0  0  0
 23  7  1  0  0  0  0
 63 56  1  0  0  0  0
 71 64  1  0  0  0  0
113 97  1  0  0  0  0
  1114  1  0  0  0  0
  6115  1  0  0  0  0
  9116  1  0  0  0  0
 17117  1  0  0  0  0
 18118  1  0  0  0  0
 19119  1  0  0  0  0
 20120  1  0  0  0  0
 21121  1  0  0  0  0
 22122  1  0  0  0  0
 22123  1  0  0  0  0
 23124  1  0  0  0  0
 25125  1  0  0  0  0
 28126  1  0  0  0  0
 28127  1  0  0  0  0
 29128  1  0  0  0  0
 29129  1  0  0  0  0
 29130  1  0  0  0  0
 36131  1  0  0  0  0
 37132  1  0  0  0  0
 40133  1  0  0  0  0
 40134  1  0  0  0  0
 40135  1  0  0  0  0
 41136  1  0  0  0  0
 42137  1  0  0  0  0
 44138  1  0  0  0  0
 45139  1  0  0  0  0
 48140  1  0  0  0  0
 48141  1  0  0  0  0
 48142  1  0  0  0  0
 49143  1  0  0  0  0
 50144  1  0  0  0  0
 57145  1  0  0  0  0
 58146  1  0  0  0  0
 61147  1  0  0  0  0
 61148  1  0  0  0  0
 61149  1  0  0  0  0
 62150  1  0  0  0  0
 63151  1  0  0  0  0
 65152  1  0  0  0  0
 66153  1  0  0  0  0
 69154  1  0  0  0  0
 69155  1  0  0  0  0
 69156  1  0  0  0  0
 70157  1  0  0  0  0
 71158  1  0  0  0  0
 75159  1  0  0  0  0
 80160  1  0  0  0  0
 80161  1  0  0  0  0
 81162  1  0  0  0  0
 81163  1  0  0  0  0
 81164  1  0  0  0  0
 82165  1  0  0  0  0
 83166  1  0  0  0  0
 84167  1  0  0  0  0
 87168  1  0  0  0  0
 87169  1  0  0  0  0
 88170  1  0  0  0  0
 88171  1  0  0  0  0
 88172  1  0  0  0  0
 91173  1  0  0  0  0
 96174  1  0  0  0  0
 99175  1  0  0  0  0
107176  1  0  0  0  0
108177  1  0  0  0  0
109178  1  0  0  0  0
110179  1  0  0  0  0
111180  1  0  0  0  0
112181  1  0  0  0  0
112182  1  0  0  0  0
113183  1  0  0  0  0
M  END
