
  xtb     02092214033D
 energy: -242.391485804297 gnorm: 0.000543074956 xtb: 6.4.1 (unknown)
147159  0     0  0            999 V2000
    2.2657   -2.9933    5.2801 C   0  0  0  0  0  0  0  0  0  0  0  0
    1.9503   -2.0056    6.1736 C   0  0  0  0  0  0  0  0  0  0  0  0
    1.2605   -0.7507    5.8481 C   0  0  0  0  0  0  0  0  0  0  0  0
    0.8201   -0.4080    4.7633 O   0  0  0  0  0  0  0  0  0  0  0  0
    1.1894    0.0246    7.0929 C   0  0  0  0  0  0  0  0  0  0  0  0
    0.6451    1.2969    7.2536 C   0  0  0  0  0  0  0  0  0  0  0  0
    0.6999    1.7641    8.5443 C   0  0  0  0  0  0  0  0  0  0  0  0
    1.2619    1.0251    9.5944 C   0  0  0  0  0  0  0  0  0  0  0  0
    1.8173   -0.2239    9.4434 C   0  0  0  0  0  0  0  0  0  0  0  0
    1.7676   -0.7241    8.1389 C   0  0  0  0  0  0  0  0  0  0  0  0
    2.2460   -1.9949    7.5962 C   0  0  0  0  0  0  0  0  0  0  0  0
    2.8497   -2.9888    8.3213 C   0  0  0  0  0  0  0  0  0  0  0  0
    3.3043   -4.2231    7.8106 C   0  0  0  0  0  0  0  0  0  0  0  0
    3.6994   -5.2508    7.4827 N   0  0  0  0  0  0  0  0  0  0  0  0
    3.1016   -2.9266    9.7084 C   0  0  0  0  0  0  0  0  0  0  0  0
    3.3393   -2.9522   10.8314 N   0  0  0  0  0  0  0  0  0  0  0  0
    0.9616    2.0957   10.6132 C   0  0  0  0  0  0  0  0  0  0  0  0
   -0.2467    1.8731   11.5564 C   0  0  0  0  0  0  0  0  0  0  0  0
   -1.2076    0.9730   10.8200 C   0  0  0  0  0  0  0  0  0  0  0  0
   -1.7373    1.6737    9.8264 C   0  0  0  0  0  0  0  0  0  0  0  0
   -1.1437    3.0598    9.8715 C   0  0  0  0  0  0  0  0  0  0  0  0
   -0.9595    3.2248   11.3885 C   0  0  0  0  0  0  0  0  0  0  0  0
    0.3380    2.9194    9.4424 C   0  0  0  0  0  0  0  0  0  0  0  0
    1.9924   -3.0737    3.9019 C   0  0  0  0  0  0  0  0  0  0  0  0
    2.3517   -4.1660    3.1210 C   0  0  0  0  0  0  0  0  0  0  0  0
    1.9614   -4.0781    1.7872 C   0  0  0  0  0  0  0  0  0  0  0  0
    2.2058   -5.4249    0.6698 S   0  0  0  0  0  0  0  0  0  0  0  0
    0.4433   -5.7962    0.3037 C   0  0  0  0  0  0  0  0  0  0  0  0
    0.3331   -7.1854   -0.2887 C   0  0  0  0  0  0  0  0  0  0  0  0
    1.3078   -2.8856    1.5060 C   0  0  0  0  0  0  0  0  0  0  0  0
    1.1462   -1.8986    2.9312 S   0  0  0  0  0  0  0  0  0  0  0  0
    0.7940   -2.2980    0.3097 C   0  0  0  0  0  0  0  0  0  0  0  0
    1.2407   -2.2954   -1.0008 C   0  0  0  0  0  0  0  0  0  0  0  0
    2.2962   -3.0719   -1.5154 N   0  0  0  0  0  0  0  0  0  0  0  0
    3.5498   -2.4417   -1.5681 C   0  0  0  0  0  0  0  0  0  0  0  0
    4.3307   -2.4740   -2.7250 C   0  0  0  0  0  0  0  0  0  0  0  0
    5.5595   -1.8556   -2.7527 C   0  0  0  0  0  0  0  0  0  0  0  0
    6.0363   -1.1727   -1.6353 C   0  0  0  0  0  0  0  0  0  0  0  0
    7.6277   -0.4203   -1.7923 S   0  0  0  0  0  0  0  0  0  0  0  0
    8.0048    0.1551   -0.1122 C   0  0  0  0  0  0  0  0  0  0  0  0
    5.2496   -1.1061   -0.4952 C   0  0  0  0  0  0  0  0  0  0  0  0
    4.0191   -1.7352   -0.4647 C   0  0  0  0  0  0  0  0  0  0  0  0
    2.0027   -4.1888   -2.2988 C   0  0  0  0  0  0  0  0  0  0  0  0
    0.7246   -4.4056   -2.8166 C   0  0  0  0  0  0  0  0  0  0  0  0
    0.4504   -5.5385   -3.5524 C   0  0  0  0  0  0  0  0  0  0  0  0
    1.4391   -6.4883   -3.7888 C   0  0  0  0  0  0  0  0  0  0  0  0
    0.9622   -7.9055   -4.7340 S   0  0  0  0  0  0  0  0  0  0  0  0
    2.4958   -8.8636   -4.8874 C   0  0  0  0  0  0  0  0  0  0  0  0
    2.7086   -6.2883   -3.2622 C   0  0  0  0  0  0  0  0  0  0  0  0
    2.9819   -5.1568   -2.5216 C   0  0  0  0  0  0  0  0  0  0  0  0
    0.5625   -1.3192   -1.7685 C   0  0  0  0  0  0  0  0  0  0  0  0
    0.6423   -0.8115   -3.4213 S   0  0  0  0  0  0  0  0  0  0  0  0
   -0.5815    0.4121   -3.1234 C   0  0  0  0  0  0  0  0  0  0  0  0
   -1.0676    0.3786   -1.8225 C   0  0  0  0  0  0  0  0  0  0  0  0
   -2.1005    1.1463   -1.3092 N   0  0  0  0  0  0  0  0  0  0  0  0
   -3.2063    1.4782   -2.1010 C   0  0  0  0  0  0  0  0  0  0  0  0
   -3.8175    2.7225   -1.9708 C   0  0  0  0  0  0  0  0  0  0  0  0
   -4.8136    3.1140   -2.8451 C   0  0  0  0  0  0  0  0  0  0  0  0
   -5.2104    2.2680   -3.8719 C   0  0  0  0  0  0  0  0  0  0  0  0
   -6.4038    2.6944   -5.0980 S   0  0  0  0  0  0  0  0  0  0  0  0
   -6.5090    4.5024   -4.9718 C   0  0  0  0  0  0  0  0  0  0  0  0
   -4.6532    0.9932   -3.9583 C   0  0  0  0  0  0  0  0  0  0  0  0
   -3.6710    0.5987   -3.0803 C   0  0  0  0  0  0  0  0  0  0  0  0
   -2.0267    1.5171    0.0424 C   0  0  0  0  0  0  0  0  0  0  0  0
   -0.8106    1.9401    0.5806 C   0  0  0  0  0  0  0  0  0  0  0  0
   -0.7040    2.2264    1.9247 C   0  0  0  0  0  0  0  0  0  0  0  0
   -1.8129    2.1037    2.7523 C   0  0  0  0  0  0  0  0  0  0  0  0
   -1.6146    2.4656    4.4735 S   0  0  0  0  0  0  0  0  0  0  0  0
   -2.6065    1.1453    5.2362 C   0  0  0  0  0  0  0  0  0  0  0  0
   -3.0375    1.7291    2.2139 C   0  0  0  0  0  0  0  0  0  0  0  0
   -3.1437    1.4334    0.8701 C   0  0  0  0  0  0  0  0  0  0  0  0
   -0.3939   -0.6043   -1.0634 C   0  0  0  0  0  0  0  0  0  0  0  0
   -0.4935   -1.1278    0.5745 S   0  0  0  0  0  0  0  0  0  0  0  0
   -1.0300    1.2696   -4.1748 C   0  0  0  0  0  0  0  0  0  0  0  0
   -1.4102    2.5875   -4.0258 C   0  0  0  0  0  0  0  0  0  0  0  0
   -1.9564    3.1194   -5.1907 C   0  0  0  0  0  0  0  0  0  0  0  0
   -2.6369    4.7235   -5.3576 S   0  0  0  0  0  0  0  0  0  0  0  0
   -2.1091    5.5819   -3.8337 C   0  0  0  0  0  0  0  0  0  0  0  0
   -0.6291    5.9108   -3.8407 C   0  0  0  0  0  0  0  0  0  0  0  0
   -1.9797    2.2129   -6.2620 C   0  0  0  0  0  0  0  0  0  0  0  0
   -1.2960    0.6809   -5.7810 S   0  0  0  0  0  0  0  0  0  0  0  0
   -2.5012    2.5400   -7.5232 C   0  0  0  0  0  0  0  0  0  0  0  0
   -2.6110    1.8099   -8.6765 C   0  0  0  0  0  0  0  0  0  0  0  0
   -3.1879    2.4338   -9.8022 C   0  0  0  0  0  0  0  0  0  0  0  0
   -3.6574    2.9602  -10.7071 N   0  0  0  0  0  0  0  0  0  0  0  0
   -2.1763    0.4240   -8.8565 C   0  0  0  0  0  0  0  0  0  0  0  0
   -1.6542   -0.2653   -8.0015 O   0  0  0  0  0  0  0  0  0  0  0  0
   -2.4155   -0.0128  -10.0926 O   0  0  0  0  0  0  0  0  0  0  0  0
   -2.0213   -1.3525  -10.3872 C   0  0  0  0  0  0  0  0  0  0  0  0
   -2.2286   -1.5903  -11.8704 C   0  0  0  0  0  0  0  0  0  0  0  0
    2.8048   -3.8543    5.6560 H   0  0  0  0  0  0  0  0  0  0  0  0
    0.2309    1.8359    6.4155 H   0  0  0  0  0  0  0  0  0  0  0  0
    2.2541   -0.7719   10.2613 H   0  0  0  0  0  0  0  0  0  0  0  0
    1.8209    2.5150   11.1326 H   0  0  0  0  0  0  0  0  0  0  0  0
    0.0186    1.5679   12.5649 H   0  0  0  0  0  0  0  0  0  0  0  0
   -1.3564   -0.0645   11.0561 H   0  0  0  0  0  0  0  0  0  0  0  0
   -2.4209    1.3383    9.0680 H   0  0  0  0  0  0  0  0  0  0  0  0
   -1.6937    3.8350    9.3447 H   0  0  0  0  0  0  0  0  0  0  0  0
   -0.3402    4.0785   11.6601 H   0  0  0  0  0  0  0  0  0  0  0  0
   -1.9057    3.2712   11.9254 H   0  0  0  0  0  0  0  0  0  0  0  0
    0.7901    3.8772    9.1936 H   0  0  0  0  0  0  0  0  0  0  0  0
    2.8713   -5.0207    3.5170 H   0  0  0  0  0  0  0  0  0  0  0  0
    0.0776   -5.0408   -0.3912 H   0  0  0  0  0  0  0  0  0  0  0  0
   -0.0961   -5.7239    1.2483 H   0  0  0  0  0  0  0  0  0  0  0  0
    0.9054   -7.2479   -1.2105 H   0  0  0  0  0  0  0  0  0  0  0  0
    0.7129   -7.9277    0.4094 H   0  0  0  0  0  0  0  0  0  0  0  0
   -0.7079   -7.4099   -0.5104 H   0  0  0  0  0  0  0  0  0  0  0  0
    3.9645   -2.9819   -3.6041 H   0  0  0  0  0  0  0  0  0  0  0  0
    6.1635   -1.8847   -3.6467 H   0  0  0  0  0  0  0  0  0  0  0  0
    7.3256    0.9534    0.1732 H   0  0  0  0  0  0  0  0  0  0  0  0
    7.9503   -0.6778    0.5826 H   0  0  0  0  0  0  0  0  0  0  0  0
    9.0206    0.5355   -0.1550 H   0  0  0  0  0  0  0  0  0  0  0  0
    5.5791   -0.5713    0.3811 H   0  0  0  0  0  0  0  0  0  0  0  0
    3.4229   -1.6788    0.4332 H   0  0  0  0  0  0  0  0  0  0  0  0
   -0.0626   -3.6857   -2.6514 H   0  0  0  0  0  0  0  0  0  0  0  0
   -0.5385   -5.6977   -3.9544 H   0  0  0  0  0  0  0  0  0  0  0  0
    2.2420   -9.7246   -5.4980 H   0  0  0  0  0  0  0  0  0  0  0  0
    2.8303   -9.1931   -3.9077 H   0  0  0  0  0  0  0  0  0  0  0  0
    3.2559   -8.2687   -5.3857 H   0  0  0  0  0  0  0  0  0  0  0  0
    3.4938   -7.0128   -3.4060 H   0  0  0  0  0  0  0  0  0  0  0  0
    3.9634   -5.0267   -2.0933 H   0  0  0  0  0  0  0  0  0  0  0  0
   -3.4950    3.3935   -1.1864 H   0  0  0  0  0  0  0  0  0  0  0  0
   -5.2584    4.0893   -2.7280 H   0  0  0  0  0  0  0  0  0  0  0  0
   -5.5103    4.9253   -5.0292 H   0  0  0  0  0  0  0  0  0  0  0  0
   -7.0953    4.8206   -5.8280 H   0  0  0  0  0  0  0  0  0  0  0  0
   -7.0144    4.7905   -4.0544 H   0  0  0  0  0  0  0  0  0  0  0  0
   -4.9929    0.3233   -4.7329 H   0  0  0  0  0  0  0  0  0  0  0  0
   -3.2390   -0.3868   -3.1640 H   0  0  0  0  0  0  0  0  0  0  0  0
    0.0548    2.0249   -0.0608 H   0  0  0  0  0  0  0  0  0  0  0  0
    0.2398    2.5338    2.3463 H   0  0  0  0  0  0  0  0  0  0  0  0
   -2.3540    0.2029    4.7594 H   0  0  0  0  0  0  0  0  0  0  0  0
   -3.6676    1.3611    5.1474 H   0  0  0  0  0  0  0  0  0  0  0  0
   -2.3231    1.1197    6.2840 H   0  0  0  0  0  0  0  0  0  0  0  0
   -3.9116    1.6536    2.8421 H   0  0  0  0  0  0  0  0  0  0  0  0
   -4.0912    1.1225    0.4555 H   0  0  0  0  0  0  0  0  0  0  0  0
   -1.2812    3.1221   -3.1038 H   0  0  0  0  0  0  0  0  0  0  0  0
   -2.4011    4.9684   -2.9828 H   0  0  0  0  0  0  0  0  0  0  0  0
   -2.7078    6.4933   -3.8321 H   0  0  0  0  0  0  0  0  0  0  0  0
   -0.0266    5.0074   -3.9061 H   0  0  0  0  0  0  0  0  0  0  0  0
   -0.3656    6.4393   -2.9266 H   0  0  0  0  0  0  0  0  0  0  0  0
   -0.3889    6.5448   -4.6909 H   0  0  0  0  0  0  0  0  0  0  0  0
   -2.8858    3.5552   -7.5783 H   0  0  0  0  0  0  0  0  0  0  0  0
   -0.9715   -1.4842  -10.1001 H   0  0  0  0  0  0  0  0  0  0  0  0
   -2.6265   -2.0388   -9.7834 H   0  0  0  0  0  0  0  0  0  0  0  0
   -1.9428   -2.6078  -12.1209 H   0  0  0  0  0  0  0  0  0  0  0  0
   -3.2725   -1.4365  -12.1296 H   0  0  0  0  0  0  0  0  0  0  0  0
   -1.6243   -0.8961  -12.4480 H   0  0  0  0  0  0  0  0  0  0  0  0
  1  2  2  0  0  0  0
  2  3  1  0  0  0  0
  3  4  2  0  0  0  0
  3  5  1  0  0  0  0
  5  6  2  0  0  0  0
  6  7  1  0  0  0  0
  7  8  2  0  0  0  0
  8  9  1  0  0  0  0
  9 10  2  0  0  0  0
 10 11  1  0  0  0  0
 11 12  2  0  0  0  0
 12 13  1  0  0  0  0
 13 14  3  0  0  0  0
 12 15  1  0  0  0  0
 15 16  3  0  0  0  0
  8 17  1  0  0  0  0
 17 18  1  0  0  0  0
 18 19  1  0  0  0  0
 19 20  2  0  0  0  0
 20 21  1  0  0  0  0
 21 22  1  0  0  0  0
 21 23  1  0  0  0  0
  1 24  1  0  0  0  0
 24 25  2  0  0  0  0
 25 26  1  0  0  0  0
 26 27  1  0  0  0  0
 27 28  1  0  0  0  0
 28 29  1  0  0  0  0
 26 30  2  0  0  0  0
 30 31  1  0  0  0  0
 30 32  1  0  0  0  0
 32 33  2  0  0  0  0
 33 34  1  0  0  0  0
 34 35  1  0  0  0  0
 35 36  2  0  0  0  0
 36 37  1  0  0  0  0
 37 38  2  0  0  0  0
 38 39  1  0  0  0  0
 39 40  1  0  0  0  0
 38 41  1  0  0  0  0
 41 42  2  0  0  0  0
 34 43  1  0  0  0  0
 43 44  2  0  0  0  0
 44 45  1  0  0  0  0
 45 46  2  0  0  0  0
 46 47  1  0  0  0  0
 47 48  1  0  0  0  0
 46 49  1  0  0  0  0
 49 50  2  0  0  0  0
 33 51  1  0  0  0  0
 51 52  1  0  0  0  0
 52 53  1  0  0  0  0
 53 54  2  0  0  0  0
 54 55  1  0  0  0  0
 55 56  1  0  0  0  0
 56 57  2  0  0  0  0
 57 58  1  0  0  0  0
 58 59  2  0  0  0  0
 59 60  1  0  0  0  0
 60 61  1  0  0  0  0
 59 62  1  0  0  0  0
 62 63  2  0  0  0  0
 55 64  1  0  0  0  0
 64 65  2  0  0  0  0
 65 66  1  0  0  0  0
 66 67  2  0  0  0  0
 67 68  1  0  0  0  0
 68 69  1  0  0  0  0
 67 70  1  0  0  0  0
 70 71  2  0  0  0  0
 54 72  1  0  0  0  0
 72 73  1  0  0  0  0
 53 74  1  0  0  0  0
 74 75  2  0  0  0  0
 75 76  1  0  0  0  0
 76 77  1  0  0  0  0
 77 78  1  0  0  0  0
 78 79  1  0  0  0  0
 76 80  2  0  0  0  0
 80 81  1  0  0  0  0
 80 82  1  0  0  0  0
 82 83  2  0  0  0  0
 83 84  1  0  0  0  0
 84 85  3  0  0  0  0
 83 86  1  0  0  0  0
 86 87  2  0  0  0  0
 86 88  1  0  0  0  0
 88 89  1  0  0  0  0
 89 90  1  0  0  0  0
 11  2  1  0  0  0  0
 23 17  1  0  0  0  0
 31 24  1  0  0  0  0
 73 32  1  0  0  0  0
 81 74  1  0  0  0  0
 10  5  1  0  0  0  0
 22 18  1  0  0  0  0
 42 35  1  0  0  0  0
 50 43  1  0  0  0  0
 72 51  2  0  0  0  0
 23  7  1  0  0  0  0
 63 56  1  0  0  0  0
 71 64  1  0  0  0  0
  1 91  1  0  0  0  0
  6 92  1  0  0  0  0
  9 93  1  0  0  0  0
 17 94  1  0  0  0  0
 18 95  1  0  0  0  0
 19 96  1  0  0  0  0
 20 97  1  0  0  0  0
 21 98  1  0  0  0  0
 22 99  1  0  0  0  0
 22100  1  0  0  0  0
 23101  1  0  0  0  0
 25102  1  0  0  0  0
 28103  1  0  0  0  0
 28104  1  0  0  0  0
 29105  1  0  0  0  0
 29106  1  0  0  0  0
 29107  1  0  0  0  0
 36108  1  0  0  0  0
 37109  1  0  0  0  0
 40110  1  0  0  0  0
 40111  1  0  0  0  0
 40112  1  0  0  0  0
 41113  1  0  0  0  0
 42114  1  0  0  0  0
 44115  1  0  0  0  0
 45116  1  0  0  0  0
 48117  1  0  0  0  0
 48118  1  0  0  0  0
 48119  1  0  0  0  0
 49120  1  0  0  0  0
 50121  1  0  0  0  0
 57122  1  0  0  0  0
 58123  1  0  0  0  0
 61124  1  0  0  0  0
 61125  1  0  0  0  0
 61126  1  0  0  0  0
 62127  1  0  0  0  0
 63128  1  0  0  0  0
 65129  1  0  0  0  0
 66130  1  0  0  0  0
 69131  1  0  0  0  0
 69132  1  0  0  0  0
 69133  1  0  0  0  0
 70134  1  0  0  0  0
 71135  1  0  0  0  0
 75136  1  0  0  0  0
 78137  1  0  0  0  0
 78138  1  0  0  0  0
 79139  1  0  0  0  0
 79140  1  0  0  0  0
 79141  1  0  0  0  0
 82142  1  0  0  0  0
 89143  1  0  0  0  0
 89144  1  0  0  0  0
 90145  1  0  0  0  0
 90146  1  0  0  0  0
 90147  1  0  0  0  0
M  END
