
  xtb     02062218423D
 energy: -295.559572516166 gnorm: 0.000438297947 xtb: 6.4.1 (unknown)
173190  0     0  0            999 V2000
    5.1910    0.6501   -6.2722 C   0  0  0  0  0  0  0  0  0  0  0  0
    6.3449    0.9684   -5.6330 C   0  0  0  0  0  0  0  0  0  0  0  0
    7.5747    0.1428   -5.8003 C   0  0  0  0  0  0  0  0  0  0  0  0
    7.7614   -0.7102   -6.6376 O   0  0  0  0  0  0  0  0  0  0  0  0
    8.4670    0.5534   -4.6995 C   0  0  0  0  0  0  0  0  0  0  0  0
    9.6681   -0.0399   -4.3128 C   0  0  0  0  0  0  0  0  0  0  0  0
   10.2589    0.5514   -3.2212 C   0  0  0  0  0  0  0  0  0  0  0  0
    9.7075    1.6618   -2.5662 C   0  0  0  0  0  0  0  0  0  0  0  0
    8.5303    2.2634   -2.9390 C   0  0  0  0  0  0  0  0  0  0  0  0
    7.9074    1.6664   -4.0366 C   0  0  0  0  0  0  0  0  0  0  0  0
    6.6542    2.0223   -4.6896 C   0  0  0  0  0  0  0  0  0  0  0  0
    6.0556    3.2525   -4.6222 C   0  0  0  0  0  0  0  0  0  0  0  0
    6.5602    4.3492   -3.8985 C   0  0  0  0  0  0  0  0  0  0  0  0
    6.9163    5.3149   -3.3886 N   0  0  0  0  0  0  0  0  0  0  0  0
    4.9422    3.6599   -5.3856 C   0  0  0  0  0  0  0  0  0  0  0  0
    4.0674    4.0875   -5.9942 N   0  0  0  0  0  0  0  0  0  0  0  0
   10.8158    1.7153   -1.5472 C   0  0  0  0  0  0  0  0  0  0  0  0
   10.4773    1.1664   -0.1452 C   0  0  0  0  0  0  0  0  0  0  0  0
   11.8295    0.8950    0.4730 C   0  0  0  0  0  0  0  0  0  0  0  0
   12.3498   -0.1600   -0.1411 C   0  0  0  0  0  0  0  0  0  0  0  0
   11.3574   -0.6205   -1.1846 C   0  0  0  0  0  0  0  0  0  0  0  0
   10.0449   -0.2691   -0.4719 C   0  0  0  0  0  0  0  0  0  0  0  0
   11.4293    0.4741   -2.2714 C   0  0  0  0  0  0  0  0  0  0  0  0
    3.8864    1.0571   -5.8835 C   0  0  0  0  0  0  0  0  0  0  0  0
    2.8064    1.3743   -6.6713 C   0  0  0  0  0  0  0  0  0  0  0  0
    1.6833    1.7679   -5.9399 C   0  0  0  0  0  0  0  0  0  0  0  0
    0.2441    2.4498   -6.6922 S   0  0  0  0  0  0  0  0  0  0  0  0
   -0.3444    1.0394   -7.7009 C   0  0  0  0  0  0  0  0  0  0  0  0
   -0.8884   -0.0801   -6.8381 C   0  0  0  0  0  0  0  0  0  0  0  0
    1.8554    1.6785   -4.5606 C   0  0  0  0  0  0  0  0  0  0  0  0
    3.4826    1.1976   -4.1867 S   0  0  0  0  0  0  0  0  0  0  0  0
    0.8702    1.7996   -3.5539 C   0  0  0  0  0  0  0  0  0  0  0  0
    0.9800    1.5579   -2.1855 C   0  0  0  0  0  0  0  0  0  0  0  0
    2.1092    1.1416   -1.4861 N   0  0  0  0  0  0  0  0  0  0  0  0
    1.8329    0.1288   -0.5391 C   0  0  0  0  0  0  0  0  0  0  0  0
    1.1744   -1.0237   -0.9660 C   0  0  0  0  0  0  0  0  0  0  0  0
    0.7418   -1.9577   -0.0505 C   0  0  0  0  0  0  0  0  0  0  0  0
    0.9624   -1.7567    1.3085 C   0  0  0  0  0  0  0  0  0  0  0  0
    0.2828   -2.9337    2.4383 S   0  0  0  0  0  0  0  0  0  0  0  0
   -0.1229   -1.8937    3.8759 C   0  0  0  0  0  0  0  0  0  0  0  0
    1.6832   -0.6471    1.7317 C   0  0  0  0  0  0  0  0  0  0  0  0
    2.1120    0.2917    0.8149 C   0  0  0  0  0  0  0  0  0  0  0  0
    3.2793    1.8898   -1.3530 C   0  0  0  0  0  0  0  0  0  0  0  0
    3.3248    3.2594   -1.5989 C   0  0  0  0  0  0  0  0  0  0  0  0
    4.4657    3.9873   -1.3122 C   0  0  0  0  0  0  0  0  0  0  0  0
    5.5810    3.3562   -0.7777 C   0  0  0  0  0  0  0  0  0  0  0  0
    7.0356    4.1862   -0.2219 S   0  0  0  0  0  0  0  0  0  0  0  0
    6.6194    5.9453   -0.3364 C   0  0  0  0  0  0  0  0  0  0  0  0
    5.5716    1.9690   -0.6257 C   0  0  0  0  0  0  0  0  0  0  0  0
    4.4400    1.2452   -0.9124 C   0  0  0  0  0  0  0  0  0  0  0  0
   -0.2887    1.6254   -1.5609 C   0  0  0  0  0  0  0  0  0  0  0  0
   -0.8249    1.4185    0.0668 S   0  0  0  0  0  0  0  0  0  0  0  0
   -2.5002    1.6513   -0.4228 C   0  0  0  0  0  0  0  0  0  0  0  0
   -2.6252    1.8352   -1.7964 C   0  0  0  0  0  0  0  0  0  0  0  0
   -3.7997    1.8523   -2.5245 N   0  0  0  0  0  0  0  0  0  0  0  0
   -3.7619    2.3791   -3.8312 C   0  0  0  0  0  0  0  0  0  0  0  0
   -4.2175    1.6180   -4.9077 C   0  0  0  0  0  0  0  0  0  0  0  0
   -4.0771    2.0887   -6.1928 C   0  0  0  0  0  0  0  0  0  0  0  0
   -3.4829    3.3278   -6.4318 C   0  0  0  0  0  0  0  0  0  0  0  0
   -3.2722    3.7917   -8.1184 S   0  0  0  0  0  0  0  0  0  0  0  0
   -2.0775    5.1546   -8.0363 C   0  0  0  0  0  0  0  0  0  0  0  0
   -3.0940    4.1179   -5.3592 C   0  0  0  0  0  0  0  0  0  0  0  0
   -3.2332    3.6442   -4.0681 C   0  0  0  0  0  0  0  0  0  0  0  0
   -4.9447    1.1492   -2.1238 C   0  0  0  0  0  0  0  0  0  0  0  0
   -6.2028    1.6705   -2.4308 C   0  0  0  0  0  0  0  0  0  0  0  0
   -7.3425    1.0608   -1.9565 C   0  0  0  0  0  0  0  0  0  0  0  0
   -7.2551   -0.0776   -1.1569 C   0  0  0  0  0  0  0  0  0  0  0  0
   -8.7654   -0.7156   -0.5078 S   0  0  0  0  0  0  0  0  0  0  0  0
   -8.2158   -1.7366    0.8875 C   0  0  0  0  0  0  0  0  0  0  0  0
   -6.0101   -0.6468   -0.9218 C   0  0  0  0  0  0  0  0  0  0  0  0
   -4.8686   -0.0442   -1.4104 C   0  0  0  0  0  0  0  0  0  0  0  0
   -1.3470    1.8733   -2.4148 C   0  0  0  0  0  0  0  0  0  0  0  0
   -0.7924    2.1164   -4.0355 S   0  0  0  0  0  0  0  0  0  0  0  0
   -3.5126    1.5144    0.5911 C   0  0  0  0  0  0  0  0  0  0  0  0
   -3.2785    0.6370    1.6630 C   0  0  0  0  0  0  0  0  0  0  0  0
   -4.2602    0.3268    2.5736 C   0  0  0  0  0  0  0  0  0  0  0  0
   -5.5234    0.8952    2.4204 C   0  0  0  0  0  0  0  0  0  0  0  0
   -6.7206    0.8219    3.2015 C   0  0  0  0  0  0  0  0  0  0  0  0
   -7.6531    1.8427    2.6187 C   0  0  0  0  0  0  0  0  0  0  0  0
   -8.8061    2.0698    2.8839 O   0  0  0  0  0  0  0  0  0  0  0  0
   -6.9728    2.4260    1.5636 N   0  0  0  0  0  0  0  0  0  0  0  0
   -7.5416    3.4563    0.7396 C   0  0  0  0  0  0  0  0  0  0  0  0
   -5.7128    1.8928    1.4310 C   0  0  0  0  0  0  0  0  0  0  0  0
   -4.7294    2.2106    0.5226 C   0  0  0  0  0  0  0  0  0  0  0  0
   -7.0166   -0.0193    4.2415 C   0  0  0  0  0  0  0  0  0  0  0  0
   -7.9292    0.3078    5.3798 C   0  0  0  0  0  0  0  0  0  0  0  0
   -8.5993    1.2895    5.5815 O   0  0  0  0  0  0  0  0  0  0  0  0
   -7.7631   -0.7117    6.3057 N   0  0  0  0  0  0  0  0  0  0  0  0
   -8.4627   -0.7528    7.5602 C   0  0  0  0  0  0  0  0  0  0  0  0
   -6.8971   -1.6714    5.8400 C   0  0  0  0  0  0  0  0  0  0  0  0
   -6.4955   -2.8465    6.4318 C   0  0  0  0  0  0  0  0  0  0  0  0
   -5.5939   -3.6724    5.7360 C   0  0  0  0  0  0  0  0  0  0  0  0
   -5.2548   -3.3623    4.4084 C   0  0  0  0  0  0  0  0  0  0  0  0
   -5.6695   -2.1905    3.8178 C   0  0  0  0  0  0  0  0  0  0  0  0
   -6.4233   -1.2856    4.5608 C   0  0  0  0  0  0  0  0  0  0  0  0
   -5.1001   -4.8520    6.3862 C   0  0  0  0  0  0  0  0  0  0  0  0
   -3.8915   -5.4495    6.1907 C   0  0  0  0  0  0  0  0  0  0  0  0
   -2.7182   -4.8404    5.5088 C   0  0  0  0  0  0  0  0  0  0  0  0
   -2.6133   -3.7217    5.0514 O   0  0  0  0  0  0  0  0  0  0  0  0
   -1.6352   -5.8355    5.6126 C   0  0  0  0  0  0  0  0  0  0  0  0
   -0.3577   -5.7755    5.0861 C   0  0  0  0  0  0  0  0  0  0  0  0
    0.5029   -6.8352    5.3203 C   0  0  0  0  0  0  0  0  0  0  0  0
    0.0700   -7.9161    6.0781 C   0  0  0  0  0  0  0  0  0  0  0  0
    1.2733   -9.3509    6.3974 Br  0  0  0  0  0  0  0  0  0  0  0  0
   -1.2116   -7.9932    6.6102 C   0  0  0  0  0  0  0  0  0  0  0  0
   -2.0750   -6.9373    6.3666 C   0  0  0  0  0  0  0  0  0  0  0  0
   -3.4692   -6.7228    6.7527 C   0  0  0  0  0  0  0  0  0  0  0  0
   -4.2340   -7.6027    7.4702 C   0  0  0  0  0  0  0  0  0  0  0  0
   -5.5938   -7.4289    7.8076 C   0  0  0  0  0  0  0  0  0  0  0  0
   -6.6979   -7.3741    8.1181 N   0  0  0  0  0  0  0  0  0  0  0  0
   -3.7612   -8.8307    7.9829 C   0  0  0  0  0  0  0  0  0  0  0  0
   -3.4401   -9.8363    8.4327 N   0  0  0  0  0  0  0  0  0  0  0  0
    5.2686   -0.0370   -7.1086 H   0  0  0  0  0  0  0  0  0  0  0  0
   10.0662   -0.8877   -4.8480 H   0  0  0  0  0  0  0  0  0  0  0  0
    8.1089    3.1068   -2.4183 H   0  0  0  0  0  0  0  0  0  0  0  0
   11.3891    2.6392   -1.5163 H   0  0  0  0  0  0  0  0  0  0  0  0
    9.7882    1.7828    0.4257 H   0  0  0  0  0  0  0  0  0  0  0  0
   12.2780    1.5116    1.2296 H   0  0  0  0  0  0  0  0  0  0  0  0
   13.3194   -0.6006   -0.0004 H   0  0  0  0  0  0  0  0  0  0  0  0
   11.4714   -1.6366   -1.5530 H   0  0  0  0  0  0  0  0  0  0  0  0
    9.8921   -0.8672    0.4250 H   0  0  0  0  0  0  0  0  0  0  0  0
    9.1632   -0.3338   -1.1072 H   0  0  0  0  0  0  0  0  0  0  0  0
   12.4168    0.5650   -2.7196 H   0  0  0  0  0  0  0  0  0  0  0  0
    2.8517    1.3950   -7.7451 H   0  0  0  0  0  0  0  0  0  0  0  0
   -1.1234    1.4688   -8.3294 H   0  0  0  0  0  0  0  0  0  0  0  0
    0.4845    0.7068   -8.3240 H   0  0  0  0  0  0  0  0  0  0  0  0
   -0.1125   -0.4707   -6.1816 H   0  0  0  0  0  0  0  0  0  0  0  0
   -1.7129    0.2816   -6.2274 H   0  0  0  0  0  0  0  0  0  0  0  0
   -1.2480   -0.8901   -7.4693 H   0  0  0  0  0  0  0  0  0  0  0  0
    0.9765   -1.1612   -2.0190 H   0  0  0  0  0  0  0  0  0  0  0  0
    0.2104   -2.8390   -0.3750 H   0  0  0  0  0  0  0  0  0  0  0  0
   -0.9300   -2.4017    4.3971 H   0  0  0  0  0  0  0  0  0  0  0  0
   -0.4617   -0.9244    3.5245 H   0  0  0  0  0  0  0  0  0  0  0  0
    0.7410   -1.7910    4.5270 H   0  0  0  0  0  0  0  0  0  0  0  0
    1.8930   -0.4960    2.7790 H   0  0  0  0  0  0  0  0  0  0  0  0
    2.6393    1.1716    1.1512 H   0  0  0  0  0  0  0  0  0  0  0  0
    2.4522    3.7656   -1.9855 H   0  0  0  0  0  0  0  0  0  0  0  0
    4.4646    5.0499   -1.4945 H   0  0  0  0  0  0  0  0  0  0  0  0
    5.7113    6.1426    0.2256 H   0  0  0  0  0  0  0  0  0  0  0  0
    7.4568    6.4718    0.1108 H   0  0  0  0  0  0  0  0  0  0  0  0
    6.5216    6.2240   -1.3819 H   0  0  0  0  0  0  0  0  0  0  0  0
    6.4589    1.4751   -0.2595 H   0  0  0  0  0  0  0  0  0  0  0  0
    4.4310    0.1746   -0.7754 H   0  0  0  0  0  0  0  0  0  0  0  0
   -4.6521    0.6459   -4.7264 H   0  0  0  0  0  0  0  0  0  0  0  0
   -4.4015    1.4922   -7.0317 H   0  0  0  0  0  0  0  0  0  0  0  0
   -1.2213    4.8448   -7.4445 H   0  0  0  0  0  0  0  0  0  0  0  0
   -2.5482    6.0443   -7.6280 H   0  0  0  0  0  0  0  0  0  0  0  0
   -1.7735    5.3403   -9.0617 H   0  0  0  0  0  0  0  0  0  0  0  0
   -2.6687    5.0956   -5.5140 H   0  0  0  0  0  0  0  0  0  0  0  0
   -2.9127    4.2525   -3.2349 H   0  0  0  0  0  0  0  0  0  0  0  0
   -6.2745    2.5709   -3.0234 H   0  0  0  0  0  0  0  0  0  0  0  0
   -8.3163    1.4694   -2.1793 H   0  0  0  0  0  0  0  0  0  0  0  0
   -9.1115   -1.9595    1.4588 H   0  0  0  0  0  0  0  0  0  0  0  0
   -7.5217   -1.1678    1.4995 H   0  0  0  0  0  0  0  0  0  0  0  0
   -7.7674   -2.6605    0.5332 H   0  0  0  0  0  0  0  0  0  0  0  0
   -5.9172   -1.5626   -0.3607 H   0  0  0  0  0  0  0  0  0  0  0  0
   -3.9081   -0.5006   -1.2255 H   0  0  0  0  0  0  0  0  0  0  0  0
   -2.3112    0.1638    1.7417 H   0  0  0  0  0  0  0  0  0  0  0  0
   -4.0480   -0.3457    3.3887 H   0  0  0  0  0  0  0  0  0  0  0  0
   -6.9830    4.3889    0.8454 H   0  0  0  0  0  0  0  0  0  0  0  0
   -7.5408    3.1479   -0.3073 H   0  0  0  0  0  0  0  0  0  0  0  0
   -8.5670    3.6075    1.0752 H   0  0  0  0  0  0  0  0  0  0  0  0
   -4.8817    2.9744   -0.2220 H   0  0  0  0  0  0  0  0  0  0  0  0
   -9.0764    0.1457    7.6172 H   0  0  0  0  0  0  0  0  0  0  0  0
   -7.7574   -0.7636    8.3937 H   0  0  0  0  0  0  0  0  0  0  0  0
   -9.1035   -1.6353    7.6177 H   0  0  0  0  0  0  0  0  0  0  0  0
   -6.8260   -3.1208    7.4215 H   0  0  0  0  0  0  0  0  0  0  0  0
   -4.6787   -4.0682    3.8335 H   0  0  0  0  0  0  0  0  0  0  0  0
   -5.4151   -1.9849    2.7903 H   0  0  0  0  0  0  0  0  0  0  0  0
   -5.7650   -5.2800    7.1261 H   0  0  0  0  0  0  0  0  0  0  0  0
   -0.0489   -4.9289    4.4928 H   0  0  0  0  0  0  0  0  0  0  0  0
    1.5042   -6.8277    4.9189 H   0  0  0  0  0  0  0  0  0  0  0  0
   -1.5029   -8.8538    7.1896 H   0  0  0  0  0  0  0  0  0  0  0  0
  1  2  2  0  0  0  0
  2  3  1  0  0  0  0
  3  4  2  0  0  0  0
  3  5  1  0  0  0  0
  5  6  2  0  0  0  0
  6  7  1  0  0  0  0
  7  8  2  0  0  0  0
  8  9  1  0  0  0  0
  9 10  2  0  0  0  0
 10 11  1  0  0  0  0
 11 12  2  0  0  0  0
 12 13  1  0  0  0  0
 13 14  3  0  0  0  0
 12 15  1  0  0  0  0
 15 16  3  0  0  0  0
  8 17  1  0  0  0  0
 17 18  1  0  0  0  0
 18 19  1  0  0  0  0
 19 20  2  0  0  0  0
 20 21  1  0  0  0  0
 21 22  1  0  0  0  0
 21 23  1  0  0  0  0
  1 24  1  0  0  0  0
 24 25  2  0  0  0  0
 25 26  1  0  0  0  0
 26 27  1  0  0  0  0
 27 28  1  0  0  0  0
 28 29  1  0  0  0  0
 26 30  2  0  0  0  0
 30 31  1  0  0  0  0
 30 32  1  0  0  0  0
 32 33  2  0  0  0  0
 33 34  1  0  0  0  0
 34 35  1  0  0  0  0
 35 36  2  0  0  0  0
 36 37  1  0  0  0  0
 37 38  2  0  0  0  0
 38 39  1  0  0  0  0
 39 40  1  0  0  0  0
 38 41  1  0  0  0  0
 41 42  2  0  0  0  0
 34 43  1  0  0  0  0
 43 44  2  0  0  0  0
 44 45  1  0  0  0  0
 45 46  2  0  0  0  0
 46 47  1  0  0  0  0
 47 48  1  0  0  0  0
 46 49  1  0  0  0  0
 49 50  2  0  0  0  0
 33 51  1  0  0  0  0
 51 52  1  0  0  0  0
 52 53  1  0  0  0  0
 53 54  2  0  0  0  0
 54 55  1  0  0  0  0
 55 56  1  0  0  0  0
 56 57  2  0  0  0  0
 57 58  1  0  0  0  0
 58 59  2  0  0  0  0
 59 60  1  0  0  0  0
 60 61  1  0  0  0  0
 59 62  1  0  0  0  0
 62 63  2  0  0  0  0
 55 64  1  0  0  0  0
 64 65  2  0  0  0  0
 65 66  1  0  0  0  0
 66 67  2  0  0  0  0
 67 68  1  0  0  0  0
 68 69  1  0  0  0  0
 67 70  1  0  0  0  0
 70 71  2  0  0  0  0
 54 72  1  0  0  0  0
 72 73  1  0  0  0  0
 53 74  1  0  0  0  0
 74 75  2  0  0  0  0
 75 76  1  0  0  0  0
 76 77  2  0  0  0  0
 77 78  1  0  0  0  0
 78 79  1  0  0  0  0
 79 80  2  0  0  0  0
 79 81  1  0  0  0  0
 81 82  1  0  0  0  0
 81 83  1  0  0  0  0
 83 84  2  0  0  0  0
 78 85  2  0  0  0  0
 85 86  1  0  0  0  0
 86 87  2  0  0  0  0
 86 88  1  0  0  0  0
 88 89  1  0  0  0  0
 88 90  1  0  0  0  0
 90 91  2  0  0  0  0
 91 92  1  0  0  0  0
 92 93  2  0  0  0  0
 93 94  1  0  0  0  0
 94 95  2  0  0  0  0
 92 96  1  0  0  0  0
 96 97  2  0  0  0  0
 97 98  1  0  0  0  0
 98 99  2  0  0  0  0
 98100  1  0  0  0  0
100101  2  0  0  0  0
101102  1  0  0  0  0
102103  2  0  0  0  0
103104  1  0  0  0  0
103105  1  0  0  0  0
105106  2  0  0  0  0
106107  1  0  0  0  0
107108  2  0  0  0  0
108109  1  0  0  0  0
109110  3  0  0  0  0
108111  1  0  0  0  0
111112  3  0  0  0  0
 11  2  1  0  0  0  0
 23 17  1  0  0  0  0
 31 24  1  0  0  0  0
 73 32  1  0  0  0  0
 84 74  1  0  0  0  0
 95 85  1  0  0  0  0
107 97  1  0  0  0  0
 10  5  1  0  0  0  0
 22 18  1  0  0  0  0
 42 35  1  0  0  0  0
 50 43  1  0  0  0  0
 72 51  2  0  0  0  0
 83 77  1  0  0  0  0
 95 90  1  0  0  0  0
106100  1  0  0  0  0
 23  7  1  0  0  0  0
 63 56  1  0  0  0  0
 71 64  1  0  0  0  0
  1113  1  0  0  0  0
  6114  1  0  0  0  0
  9115  1  0  0  0  0
 17116  1  0  0  0  0
 18117  1  0  0  0  0
 19118  1  0  0  0  0
 20119  1  0  0  0  0
 21120  1  0  0  0  0
 22121  1  0  0  0  0
 22122  1  0  0  0  0
 23123  1  0  0  0  0
 25124  1  0  0  0  0
 28125  1  0  0  0  0
 28126  1  0  0  0  0
 29127  1  0  0  0  0
 29128  1  0  0  0  0
 29129  1  0  0  0  0
 36130  1  0  0  0  0
 37131  1  0  0  0  0
 40132  1  0  0  0  0
 40133  1  0  0  0  0
 40134  1  0  0  0  0
 41135  1  0  0  0  0
 42136  1  0  0  0  0
 44137  1  0  0  0  0
 45138  1  0  0  0  0
 48139  1  0  0  0  0
 48140  1  0  0  0  0
 48141  1  0  0  0  0
 49142  1  0  0  0  0
 50143  1  0  0  0  0
 57144  1  0  0  0  0
 58145  1  0  0  0  0
 61146  1  0  0  0  0
 61147  1  0  0  0  0
 61148  1  0  0  0  0
 62149  1  0  0  0  0
 63150  1  0  0  0  0
 65151  1  0  0  0  0
 66152  1  0  0  0  0
 69153  1  0  0  0  0
 69154  1  0  0  0  0
 69155  1  0  0  0  0
 70156  1  0  0  0  0
 71157  1  0  0  0  0
 75158  1  0  0  0  0
 76159  1  0  0  0  0
 82160  1  0  0  0  0
 82161  1  0  0  0  0
 82162  1  0  0  0  0
 84163  1  0  0  0  0
 89164  1  0  0  0  0
 89165  1  0  0  0  0
 89166  1  0  0  0  0
 91167  1  0  0  0  0
 93168  1  0  0  0  0
 94169  1  0  0  0  0
 96170  1  0  0  0  0
101171  1  0  0  0  0
102172  1  0  0  0  0
105173  1  0  0  0  0
M  END
