
  xtb     02082223383D
 energy: -327.683571492834 gnorm: 0.000712190482 xtb: 6.4.1 (unknown)
194215  0     0  0            999 V2000
   -3.5406   -8.5670    0.6818 C   0  0  0  0  0  0  0  0  0  0  0  0
   -4.1382   -8.8626   -0.5161 C   0  0  0  0  0  0  0  0  0  0  0  0
   -4.0229   -8.0661   -1.7394 C   0  0  0  0  0  0  0  0  0  0  0  0
   -3.2296   -7.1662   -1.9649 O   0  0  0  0  0  0  0  0  0  0  0  0
   -5.0550   -8.5748   -2.6579 C   0  0  0  0  0  0  0  0  0  0  0  0
   -5.4101   -8.0520   -3.8973 C   0  0  0  0  0  0  0  0  0  0  0  0
   -6.4556   -8.7055   -4.5039 C   0  0  0  0  0  0  0  0  0  0  0  0
   -7.0740   -9.8281   -3.9387 C   0  0  0  0  0  0  0  0  0  0  0  0
   -6.7247  -10.3633   -2.7213 C   0  0  0  0  0  0  0  0  0  0  0  0
   -5.6888   -9.6886   -2.0708 C   0  0  0  0  0  0  0  0  0  0  0  0
   -5.0906   -9.9250   -0.7574 C   0  0  0  0  0  0  0  0  0  0  0  0
   -5.3727  -10.9842    0.0680 C   0  0  0  0  0  0  0  0  0  0  0  0
   -4.7661  -11.2271    1.3173 C   0  0  0  0  0  0  0  0  0  0  0  0
   -4.3185  -11.5000    2.3400 N   0  0  0  0  0  0  0  0  0  0  0  0
   -6.2959  -12.0066   -0.2319 C   0  0  0  0  0  0  0  0  0  0  0  0
   -7.0278  -12.8744   -0.4066 N   0  0  0  0  0  0  0  0  0  0  0  0
   -8.0362   -9.9783   -5.0918 C   0  0  0  0  0  0  0  0  0  0  0  0
   -9.5026   -9.5366   -4.8660 C   0  0  0  0  0  0  0  0  0  0  0  0
   -9.4634   -8.5027   -3.7688 C   0  0  0  0  0  0  0  0  0  0  0  0
   -8.8911   -7.4124   -4.2611 C   0  0  0  0  0  0  0  0  0  0  0  0
   -8.5408   -7.6865   -5.7038 C   0  0  0  0  0  0  0  0  0  0  0  0
   -9.6952   -8.6257   -6.0886 C   0  0  0  0  0  0  0  0  0  0  0  0
   -7.3708   -8.7041   -5.7013 C   0  0  0  0  0  0  0  0  0  0  0  0
   -2.7046   -7.4967    1.0263 C   0  0  0  0  0  0  0  0  0  0  0  0
   -2.3750   -7.2214    2.3516 C   0  0  0  0  0  0  0  0  0  0  0  0
   -1.6124   -6.0796    2.5250 C   0  0  0  0  0  0  0  0  0  0  0  0
   -1.1385   -5.4500    4.0953 S   0  0  0  0  0  0  0  0  0  0  0  0
   -1.3726   -6.8965    5.2048 C   0  0  0  0  0  0  0  0  0  0  0  0
   -0.6581   -6.6179    6.5126 C   0  0  0  0  0  0  0  0  0  0  0  0
   -1.3170   -5.4381    1.3081 C   0  0  0  0  0  0  0  0  0  0  0  0
   -2.0153   -6.2983   -0.0348 S   0  0  0  0  0  0  0  0  0  0  0  0
   -0.5554   -4.2602    1.1266 C   0  0  0  0  0  0  0  0  0  0  0  0
   -0.3590   -3.4727   -0.0145 C   0  0  0  0  0  0  0  0  0  0  0  0
   -0.8992   -3.6215   -1.2822 N   0  0  0  0  0  0  0  0  0  0  0  0
   -0.0244   -3.2970   -2.3418 C   0  0  0  0  0  0  0  0  0  0  0  0
   -0.3831   -2.3743   -3.3243 C   0  0  0  0  0  0  0  0  0  0  0  0
    0.5040   -2.0530   -4.3257 C   0  0  0  0  0  0  0  0  0  0  0  0
    1.7692   -2.6389   -4.3676 C   0  0  0  0  0  0  0  0  0  0  0  0
    2.8138   -2.1447   -5.6986 S   0  0  0  0  0  0  0  0  0  0  0  0
    4.3685   -3.0302   -5.3919 C   0  0  0  0  0  0  0  0  0  0  0  0
    2.1298   -3.5561   -3.3896 C   0  0  0  0  0  0  0  0  0  0  0  0
    1.2370   -3.8806   -2.3868 C   0  0  0  0  0  0  0  0  0  0  0  0
   -2.2449   -3.8457   -1.5517 C   0  0  0  0  0  0  0  0  0  0  0  0
   -3.2376   -3.6081   -0.5986 C   0  0  0  0  0  0  0  0  0  0  0  0
   -4.5621   -3.8477   -0.8973 C   0  0  0  0  0  0  0  0  0  0  0  0
   -4.9285   -4.3103   -2.1560 C   0  0  0  0  0  0  0  0  0  0  0  0
   -6.6437   -4.6093   -2.4624 S   0  0  0  0  0  0  0  0  0  0  0  0
   -6.7682   -4.3585   -4.2625 C   0  0  0  0  0  0  0  0  0  0  0  0
   -3.9466   -4.5421   -3.1100 C   0  0  0  0  0  0  0  0  0  0  0  0
   -2.6224   -4.3214   -2.8082 C   0  0  0  0  0  0  0  0  0  0  0  0
    0.5301   -2.4032    0.2556 C   0  0  0  0  0  0  0  0  0  0  0  0
    1.1119   -1.0617   -0.6686 S   0  0  0  0  0  0  0  0  0  0  0  0
    1.9499   -0.4110    0.7383 C   0  0  0  0  0  0  0  0  0  0  0  0
    1.8173   -1.2290    1.8518 C   0  0  0  0  0  0  0  0  0  0  0  0
    2.2885   -0.9848    3.1350 N   0  0  0  0  0  0  0  0  0  0  0  0
    1.4345   -1.3706    4.1866 C   0  0  0  0  0  0  0  0  0  0  0  0
    1.8929   -2.1473    5.2498 C   0  0  0  0  0  0  0  0  0  0  0  0
    1.0121   -2.5991    6.2070 C   0  0  0  0  0  0  0  0  0  0  0  0
   -0.3418   -2.2905    6.1207 C   0  0  0  0  0  0  0  0  0  0  0  0
   -1.4097   -2.9599    7.3581 S   0  0  0  0  0  0  0  0  0  0  0  0
   -3.0018   -3.0625    6.4863 C   0  0  0  0  0  0  0  0  0  0  0  0
   -0.7957   -1.4760    5.0929 C   0  0  0  0  0  0  0  0  0  0  0  0
    0.0878   -1.0192    4.1361 C   0  0  0  0  0  0  0  0  0  0  0  0
    3.6428   -0.7717    3.4110 C   0  0  0  0  0  0  0  0  0  0  0  0
    4.0006   -0.0316    4.5404 C   0  0  0  0  0  0  0  0  0  0  0  0
    5.3239    0.1090    4.8873 C   0  0  0  0  0  0  0  0  0  0  0  0
    6.3228   -0.4836    4.1155 C   0  0  0  0  0  0  0  0  0  0  0  0
    7.9741   -0.3327    4.7160 S   0  0  0  0  0  0  0  0  0  0  0  0
    8.8978   -1.5443    3.7329 C   0  0  0  0  0  0  0  0  0  0  0  0
    5.9763   -1.1631    2.9556 C   0  0  0  0  0  0  0  0  0  0  0  0
    4.6460   -1.3097    2.6093 C   0  0  0  0  0  0  0  0  0  0  0  0
    0.9949   -2.3465    1.5553 C   0  0  0  0  0  0  0  0  0  0  0  0
    0.3594   -3.6386    2.5057 S   0  0  0  0  0  0  0  0  0  0  0  0
    2.4877    0.9054    0.6026 C   0  0  0  0  0  0  0  0  0  0  0  0
    3.5354    1.5352    1.2070 C   0  0  0  0  0  0  0  0  0  0  0  0
    3.6577    2.9008    0.8525 C   0  0  0  0  0  0  0  0  0  0  0  0
    4.6443    3.8073    1.2805 C   0  0  0  0  0  0  0  0  0  0  0  0
    5.8441    3.3927    1.9810 C   0  0  0  0  0  0  0  0  0  0  0  0
    6.4979    4.0203    2.9993 C   0  0  0  0  0  0  0  0  0  0  0  0
    7.7696    3.4782    3.3024 C   0  0  0  0  0  0  0  0  0  0  0  0
    8.6431    3.9800    4.4060 C   0  0  0  0  0  0  0  0  0  0  0  0
    8.1772    3.4198    5.7508 C   0  0  0  0  0  0  0  0  0  0  0  0
    8.0666    2.4345    2.4770 C   0  0  0  0  0  0  0  0  0  0  0  0
    9.5409    1.5751    2.4086 Cl  0  0  0  0  0  0  0  0  0  0  0  0
    6.7892    2.0608    1.3636 S   0  0  0  0  0  0  0  0  0  0  0  0
    4.4757    5.1341    0.8982 C   0  0  0  0  0  0  0  0  0  0  0  0
    3.4314    5.5685    0.0387 C   0  0  0  0  0  0  0  0  0  0  0  0
    2.5140    4.6321   -0.4932 C   0  0  0  0  0  0  0  0  0  0  0  0
    1.5363    4.9883   -1.4965 C   0  0  0  0  0  0  0  0  0  0  0  0
    0.2829    4.4686   -1.6724 C   0  0  0  0  0  0  0  0  0  0  0  0
   -0.3972    4.9530   -2.8103 C   0  0  0  0  0  0  0  0  0  0  0  0
   -1.7539    4.4814   -3.2247 C   0  0  0  0  0  0  0  0  0  0  0  0
   -1.6623    3.0955   -3.8658 C   0  0  0  0  0  0  0  0  0  0  0  0
    0.3743    5.8435   -3.5018 C   0  0  0  0  0  0  0  0  0  0  0  0
    1.9178    6.1178   -2.7696 S   0  0  0  0  0  0  0  0  0  0  0  0
   -0.0518    6.6658   -4.9388 Cl  0  0  0  0  0  0  0  0  0  0  0  0
    2.6343    3.3268   -0.0307 C   0  0  0  0  0  0  0  0  0  0  0  0
    1.6119    1.9897   -0.4712 S   0  0  0  0  0  0  0  0  0  0  0  0
    3.4617    6.9596   -0.1742 C   0  0  0  0  0  0  0  0  0  0  0  0
    4.5051    7.5961    0.4510 C   0  0  0  0  0  0  0  0  0  0  0  0
    5.5045    6.4542    1.3529 S   0  0  0  0  0  0  0  0  0  0  0  0
    4.8981    8.9528    0.5169 C   0  0  0  0  0  0  0  0  0  0  0  0
    4.3716   10.0807   -0.0442 C   0  0  0  0  0  0  0  0  0  0  0  0
    3.2201   10.2185   -0.9703 C   0  0  0  0  0  0  0  0  0  0  0  0
    2.4115    9.3799   -1.3125 O   0  0  0  0  0  0  0  0  0  0  0  0
    3.2238   11.6231   -1.4143 C   0  0  0  0  0  0  0  0  0  0  0  0
    2.3519   12.2013   -2.3346 C   0  0  0  0  0  0  0  0  0  0  0  0
    2.5870   13.5345   -2.5659 C   0  0  0  0  0  0  0  0  0  0  0  0
    3.6230   14.2389   -1.9365 C   0  0  0  0  0  0  0  0  0  0  0  0
    4.4894   13.6802   -1.0282 C   0  0  0  0  0  0  0  0  0  0  0  0
    4.2577   12.3259   -0.7664 C   0  0  0  0  0  0  0  0  0  0  0  0
    4.9420   11.4096    0.1408 C   0  0  0  0  0  0  0  0  0  0  0  0
    5.9036   11.7770    1.0455 C   0  0  0  0  0  0  0  0  0  0  0  0
    6.5297   10.9411    1.9958 C   0  0  0  0  0  0  0  0  0  0  0  0
    7.0852   10.3587    2.8158 N   0  0  0  0  0  0  0  0  0  0  0  0
    6.3948   13.0919    1.1964 C   0  0  0  0  0  0  0  0  0  0  0  0
    6.8425   14.1325    1.3826 N   0  0  0  0  0  0  0  0  0  0  0  0
    3.2766   15.5299   -2.6351 C   0  0  0  0  0  0  0  0  0  0  0  0
    2.5212   16.6083   -1.8197 C   0  0  0  0  0  0  0  0  0  0  0  0
    1.7555   15.8750   -0.7464 C   0  0  0  0  0  0  0  0  0  0  0  0
    0.7718   15.2081   -1.3352 C   0  0  0  0  0  0  0  0  0  0  0  0
    0.8543   15.4789   -2.8173 C   0  0  0  0  0  0  0  0  0  0  0  0
    1.3797   16.9232   -2.7996 C   0  0  0  0  0  0  0  0  0  0  0  0
    2.1191   14.7466   -3.3310 C   0  0  0  0  0  0  0  0  0  0  0  0
   -3.7876   -9.2024    1.5240 H   0  0  0  0  0  0  0  0  0  0  0  0
   -4.8825   -7.2051   -4.3065 H   0  0  0  0  0  0  0  0  0  0  0  0
   -7.2171  -11.2217   -2.2959 H   0  0  0  0  0  0  0  0  0  0  0  0
   -7.9593  -10.9067   -5.6540 H   0  0  0  0  0  0  0  0  0  0  0  0
  -10.2065  -10.3537   -4.7341 H   0  0  0  0  0  0  0  0  0  0  0  0
   -9.7896   -8.6831   -2.7615 H   0  0  0  0  0  0  0  0  0  0  0  0
   -8.6436   -6.5079   -3.7380 H   0  0  0  0  0  0  0  0  0  0  0  0
   -8.3775   -6.8144   -6.3329 H   0  0  0  0  0  0  0  0  0  0  0  0
  -10.6624   -8.1251   -6.0922 H   0  0  0  0  0  0  0  0  0  0  0  0
   -9.5414   -9.1357   -7.0387 H   0  0  0  0  0  0  0  0  0  0  0  0
   -6.8964   -8.7887   -6.6776 H   0  0  0  0  0  0  0  0  0  0  0  0
   -2.7325   -7.8415    3.1531 H   0  0  0  0  0  0  0  0  0  0  0  0
   -2.4418   -7.0368    5.3638 H   0  0  0  0  0  0  0  0  0  0  0  0
   -0.9492   -7.7644    4.7006 H   0  0  0  0  0  0  0  0  0  0  0  0
   -1.0519   -5.7206    6.9840 H   0  0  0  0  0  0  0  0  0  0  0  0
    0.4057   -6.4739    6.3397 H   0  0  0  0  0  0  0  0  0  0  0  0
   -0.7937   -7.4576    7.1905 H   0  0  0  0  0  0  0  0  0  0  0  0
   -1.3550   -1.9059   -3.2874 H   0  0  0  0  0  0  0  0  0  0  0  0
    0.2351   -1.3336   -5.0836 H   0  0  0  0  0  0  0  0  0  0  0  0
    4.2050   -4.1025   -5.4466 H   0  0  0  0  0  0  0  0  0  0  0  0
    4.7767   -2.7386   -4.4287 H   0  0  0  0  0  0  0  0  0  0  0  0
    5.0411   -2.7207   -6.1859 H   0  0  0  0  0  0  0  0  0  0  0  0
    3.0983   -4.0291   -3.3970 H   0  0  0  0  0  0  0  0  0  0  0  0
    1.5166   -4.5964   -1.6275 H   0  0  0  0  0  0  0  0  0  0  0  0
   -2.9678   -3.2286    0.3757 H   0  0  0  0  0  0  0  0  0  0  0  0
   -5.3268   -3.6729   -0.1556 H   0  0  0  0  0  0  0  0  0  0  0  0
   -6.4451   -5.2491   -4.7940 H   0  0  0  0  0  0  0  0  0  0  0  0
   -7.8173   -4.1697   -4.4686 H   0  0  0  0  0  0  0  0  0  0  0  0
   -6.1749   -3.4944   -4.5441 H   0  0  0  0  0  0  0  0  0  0  0  0
   -4.2030   -4.9127   -4.0892 H   0  0  0  0  0  0  0  0  0  0  0  0
   -1.8673   -4.5435   -3.5454 H   0  0  0  0  0  0  0  0  0  0  0  0
    2.9357   -2.4212    5.3036 H   0  0  0  0  0  0  0  0  0  0  0  0
    1.3595   -3.2202    7.0179 H   0  0  0  0  0  0  0  0  0  0  0  0
   -2.8331   -3.4772    5.4970 H   0  0  0  0  0  0  0  0  0  0  0  0
   -3.4705   -2.0842    6.4320 H   0  0  0  0  0  0  0  0  0  0  0  0
   -3.6224   -3.7310    7.0748 H   0  0  0  0  0  0  0  0  0  0  0  0
   -1.8345   -1.1947    5.0268 H   0  0  0  0  0  0  0  0  0  0  0  0
   -0.2686   -0.3968    3.3280 H   0  0  0  0  0  0  0  0  0  0  0  0
    3.2272    0.4117    5.1489 H   0  0  0  0  0  0  0  0  0  0  0  0
    5.6027    0.6661    5.7682 H   0  0  0  0  0  0  0  0  0  0  0  0
    8.4208   -2.5168    3.8123 H   0  0  0  0  0  0  0  0  0  0  0  0
    9.8906   -1.5795    4.1708 H   0  0  0  0  0  0  0  0  0  0  0  0
    8.9665   -1.2181    2.6992 H   0  0  0  0  0  0  0  0  0  0  0  0
    6.7301   -1.5979    2.3195 H   0  0  0  0  0  0  0  0  0  0  0  0
    4.3808   -1.8593    1.7180 H   0  0  0  0  0  0  0  0  0  0  0  0
    4.2112    1.0506    1.8842 H   0  0  0  0  0  0  0  0  0  0  0  0
    6.0846    4.8553    3.5356 H   0  0  0  0  0  0  0  0  0  0  0  0
    8.5988    5.0705    4.4270 H   0  0  0  0  0  0  0  0  0  0  0  0
    9.6754    3.6784    4.2238 H   0  0  0  0  0  0  0  0  0  0  0  0
    7.1510    3.7192    5.9512 H   0  0  0  0  0  0  0  0  0  0  0  0
    8.2250    2.3332    5.7425 H   0  0  0  0  0  0  0  0  0  0  0  0
    8.8111    3.7912    6.5518 H   0  0  0  0  0  0  0  0  0  0  0  0
   -0.1733    3.7818   -0.9832 H   0  0  0  0  0  0  0  0  0  0  0  0
   -2.3998    4.4338   -2.3456 H   0  0  0  0  0  0  0  0  0  0  0  0
   -2.1868    5.1871   -3.9346 H   0  0  0  0  0  0  0  0  0  0  0  0
   -1.2185    2.3845   -3.1726 H   0  0  0  0  0  0  0  0  0  0  0  0
   -1.0436    3.1347   -4.7591 H   0  0  0  0  0  0  0  0  0  0  0  0
   -2.6523    2.7427   -4.1441 H   0  0  0  0  0  0  0  0  0  0  0  0
    2.7320    7.4977   -0.7493 H   0  0  0  0  0  0  0  0  0  0  0  0
    5.7897    9.0942    1.1166 H   0  0  0  0  0  0  0  0  0  0  0  0
    1.5742   11.6170   -2.8010 H   0  0  0  0  0  0  0  0  0  0  0  0
    5.2832   14.2370   -0.5596 H   0  0  0  0  0  0  0  0  0  0  0  0
    4.0554   15.9549   -3.2650 H   0  0  0  0  0  0  0  0  0  0  0  0
    3.1394   17.4376   -1.4867 H   0  0  0  0  0  0  0  0  0  0  0  0
    2.0346   15.8707    0.2910 H   0  0  0  0  0  0  0  0  0  0  0  0
    0.0645   14.5345   -0.8879 H   0  0  0  0  0  0  0  0  0  0  0  0
   -0.0466   15.2806   -3.3922 H   0  0  0  0  0  0  0  0  0  0  0  0
    0.6575   17.6289   -2.3919 H   0  0  0  0  0  0  0  0  0  0  0  0
    1.7257   17.2712   -3.7719 H   0  0  0  0  0  0  0  0  0  0  0  0
    2.1381   14.6643   -4.4161 H   0  0  0  0  0  0  0  0  0  0  0  0
  1  2  2  0  0  0  0
  2  3  1  0  0  0  0
  3  4  2  0  0  0  0
  3  5  1  0  0  0  0
  5  6  2  0  0  0  0
  6  7  1  0  0  0  0
  7  8  2  0  0  0  0
  8  9  1  0  0  0  0
  9 10  2  0  0  0  0
 10 11  1  0  0  0  0
 11 12  2  0  0  0  0
 12 13  1  0  0  0  0
 13 14  3  0  0  0  0
 12 15  1  0  0  0  0
 15 16  3  0  0  0  0
  8 17  1  0  0  0  0
 17 18  1  0  0  0  0
 18 19  1  0  0  0  0
 19 20  2  0  0  0  0
 20 21  1  0  0  0  0
 21 22  1  0  0  0  0
 21 23  1  0  0  0  0
  1 24  1  0  0  0  0
 24 25  2  0  0  0  0
 25 26  1  0  0  0  0
 26 27  1  0  0  0  0
 27 28  1  0  0  0  0
 28 29  1  0  0  0  0
 26 30  2  0  0  0  0
 30 31  1  0  0  0  0
 30 32  1  0  0  0  0
 32 33  2  0  0  0  0
 33 34  1  0  0  0  0
 34 35  1  0  0  0  0
 35 36  2  0  0  0  0
 36 37  1  0  0  0  0
 37 38  2  0  0  0  0
 38 39  1  0  0  0  0
 39 40  1  0  0  0  0
 38 41  1  0  0  0  0
 41 42  2  0  0  0  0
 34 43  1  0  0  0  0
 43 44  2  0  0  0  0
 44 45  1  0  0  0  0
 45 46  2  0  0  0  0
 46 47  1  0  0  0  0
 47 48  1  0  0  0  0
 46 49  1  0  0  0  0
 49 50  2  0  0  0  0
 33 51  1  0  0  0  0
 51 52  1  0  0  0  0
 52 53  1  0  0  0  0
 53 54  2  0  0  0  0
 54 55  1  0  0  0  0
 55 56  1  0  0  0  0
 56 57  2  0  0  0  0
 57 58  1  0  0  0  0
 58 59  2  0  0  0  0
 59 60  1  0  0  0  0
 60 61  1  0  0  0  0
 59 62  1  0  0  0  0
 62 63  2  0  0  0  0
 55 64  1  0  0  0  0
 64 65  2  0  0  0  0
 65 66  1  0  0  0  0
 66 67  2  0  0  0  0
 67 68  1  0  0  0  0
 68 69  1  0  0  0  0
 67 70  1  0  0  0  0
 70 71  2  0  0  0  0
 54 72  1  0  0  0  0
 72 73  1  0  0  0  0
 53 74  1  0  0  0  0
 74 75  2  0  0  0  0
 75 76  1  0  0  0  0
 76 77  2  0  0  0  0
 77 78  1  0  0  0  0
 78 79  2  0  0  0  0
 79 80  1  0  0  0  0
 80 81  1  0  0  0  0
 81 82  1  0  0  0  0
 80 83  2  0  0  0  0
 83 84  1  0  0  0  0
 83 85  1  0  0  0  0
 77 86  1  0  0  0  0
 86 87  2  0  0  0  0
 87 88  1  0  0  0  0
 88 89  1  0  0  0  0
 89 90  2  0  0  0  0
 90 91  1  0  0  0  0
 91 92  1  0  0  0  0
 92 93  1  0  0  0  0
 91 94  2  0  0  0  0
 94 95  1  0  0  0  0
 94 96  1  0  0  0  0
 88 97  2  0  0  0  0
 97 98  1  0  0  0  0
 87 99  1  0  0  0  0
 99100  2  0  0  0  0
100101  1  0  0  0  0
100102  1  0  0  0  0
102103  2  0  0  0  0
103104  1  0  0  0  0
104105  2  0  0  0  0
104106  1  0  0  0  0
106107  2  0  0  0  0
107108  1  0  0  0  0
108109  2  0  0  0  0
109110  1  0  0  0  0
110111  2  0  0  0  0
111112  1  0  0  0  0
112113  2  0  0  0  0
113114  1  0  0  0  0
114115  3  0  0  0  0
113116  1  0  0  0  0
116117  3  0  0  0  0
109118  1  0  0  0  0
118119  1  0  0  0  0
119120  1  0  0  0  0
120121  2  0  0  0  0
121122  1  0  0  0  0
122123  1  0  0  0  0
122124  1  0  0  0  0
 11  2  1  0  0  0  0
 23 17  1  0  0  0  0
 31 24  1  0  0  0  0
 73 32  1  0  0  0  0
 98 74  1  0  0  0  0
112103  1  0  0  0  0
124118  1  0  0  0  0
 10  5  1  0  0  0  0
 22 18  1  0  0  0  0
 42 35  1  0  0  0  0
 50 43  1  0  0  0  0
 72 51  2  0  0  0  0
 97 76  1  0  0  0  0
111106  1  0  0  0  0
123119  1  0  0  0  0
 23  7  1  0  0  0  0
 63 56  1  0  0  0  0
 71 64  1  0  0  0  0
 85 78  1  0  0  0  0
101 86  1  0  0  0  0
124108  1  0  0  0  0
 95 89  1  0  0  0  0
  1125  1  0  0  0  0
  6126  1  0  0  0  0
  9127  1  0  0  0  0
 17128  1  0  0  0  0
 18129  1  0  0  0  0
 19130  1  0  0  0  0
 20131  1  0  0  0  0
 21132  1  0  0  0  0
 22133  1  0  0  0  0
 22134  1  0  0  0  0
 23135  1  0  0  0  0
 25136  1  0  0  0  0
 28137  1  0  0  0  0
 28138  1  0  0  0  0
 29139  1  0  0  0  0
 29140  1  0  0  0  0
 29141  1  0  0  0  0
 36142  1  0  0  0  0
 37143  1  0  0  0  0
 40144  1  0  0  0  0
 40145  1  0  0  0  0
 40146  1  0  0  0  0
 41147  1  0  0  0  0
 42148  1  0  0  0  0
 44149  1  0  0  0  0
 45150  1  0  0  0  0
 48151  1  0  0  0  0
 48152  1  0  0  0  0
 48153  1  0  0  0  0
 49154  1  0  0  0  0
 50155  1  0  0  0  0
 57156  1  0  0  0  0
 58157  1  0  0  0  0
 61158  1  0  0  0  0
 61159  1  0  0  0  0
 61160  1  0  0  0  0
 62161  1  0  0  0  0
 63162  1  0  0  0  0
 65163  1  0  0  0  0
 66164  1  0  0  0  0
 69165  1  0  0  0  0
 69166  1  0  0  0  0
 69167  1  0  0  0  0
 70168  1  0  0  0  0
 71169  1  0  0  0  0
 75170  1  0  0  0  0
 79171  1  0  0  0  0
 81172  1  0  0  0  0
 81173  1  0  0  0  0
 82174  1  0  0  0  0
 82175  1  0  0  0  0
 82176  1  0  0  0  0
 90177  1  0  0  0  0
 92178  1  0  0  0  0
 92179  1  0  0  0  0
 93180  1  0  0  0  0
 93181  1  0  0  0  0
 93182  1  0  0  0  0
 99183  1  0  0  0  0
102184  1  0  0  0  0
107185  1  0  0  0  0
110186  1  0  0  0  0
118187  1  0  0  0  0
119188  1  0  0  0  0
120189  1  0  0  0  0
121190  1  0  0  0  0
122191  1  0  0  0  0
123192  1  0  0  0  0
123193  1  0  0  0  0
124194  1  0  0  0  0
M  END
