234

C          1.14270       -6.87360       -0.59810
C          1.18540       -6.33700       -1.85180
C          1.02030       -4.89170       -2.16180
O          1.13590       -3.94270       -1.41700
C          0.59440       -4.84090       -3.57340
C          0.18830       -3.70880       -4.27700
C         -0.16620       -3.95900       -5.58100
C         -0.12000       -5.24190       -6.14440
C          0.26820       -6.36840       -5.45880
C          0.63040       -6.13570       -4.12910
C          1.05810       -7.07160       -3.09530
C          1.36290       -8.39550       -3.27230
C          1.26640       -9.07860       -4.50120
N          1.20460       -9.69220       -5.46990
C          1.86020       -9.23410       -2.25220
N          2.28840       -9.96630       -1.47820
C         -0.61560       -4.75940       -7.48390
C          0.42350       -4.58260       -8.61920
C          1.74680       -4.29200       -7.95420
C          1.68000       -3.07560       -7.42950
C          0.30800       -2.52580       -7.72760
C          0.04460       -3.17150       -9.09580
C         -0.68240       -3.33200       -6.85410
C          1.28450       -6.12800        0.59980
C          2.07130       -5.03320        0.84080
C          1.85410       -4.44700        2.10350
C          2.46460       -3.29110        2.62130
C          3.38320       -2.42900        1.86620
C          4.52270       -1.90280        2.46880
C          5.27750       -0.94280        1.82170
C          4.90860       -0.47010        0.56960
C          5.71380        0.58360       -0.13340
C          6.59840       -0.03630       -1.21630
C          3.78350       -1.01560       -0.03820
C          3.02910       -1.98430        0.59320
C          1.98220       -2.84530        3.83650
C          0.87540       -3.41850        4.51100
C          0.33590       -4.63660        4.04990
C         -0.72570       -5.31750        4.79960
C         -1.84540       -5.85280        4.17040
C         -2.80540       -6.52740        4.89910
C         -2.68370       -6.68000        6.27350
C         -3.69290       -7.46960        7.05720
C         -3.20720       -8.90730        7.25200
C         -1.57580       -6.12670        6.90500
C         -0.61050       -5.45540        6.18260
C          0.84900       -5.12030        2.85240
S          0.30080       -6.54170        2.00050
C          0.31380       -2.51130        5.44640
C          0.95780       -1.30080        5.49050
S          2.44700       -1.32420        4.54400
C          0.40940       -0.02000        5.76960
C          1.02450        1.17710        5.39100
N          2.39140        1.35020        5.31730
C          3.22050        0.91130        6.35720
C          2.75280        0.85730        7.66650
C          3.56760        0.41800        8.69240
C          4.87180        0.02660        8.42590
S          6.01100       -0.54140        9.65000
C          5.01230       -0.64950       11.16210
C          5.34590        0.08180        7.11620
C          4.53330        0.51370        6.09390
C          2.94050        2.00340        4.19790
C          3.93990        2.95590        4.35750
C          4.48600        3.59210        3.26010
C          4.03060        3.29020        1.98420
S          4.65350        4.04140        0.51730
C          5.99820        5.11450        1.10620
C          3.02260        2.34320        1.81880
C          2.48680        1.70310        2.91320
C          0.06920        2.10590        4.92860
S          0.19810        3.51410        3.93230
C         -1.48330        3.33750        3.43800
C         -2.16380        2.40890        4.23220
N         -3.50840        2.10470        4.15010
C         -4.49920        3.08280        4.08840
C         -5.77000        2.75930        3.60350
C         -6.74390        3.72450        3.49930
C         -6.48180        5.04060        3.87350
S         -7.80480        6.19030        3.66180
C         -7.09940        7.77360        4.20170
C         -5.22980        5.36470        4.37670
C         -4.25180        4.39520        4.48610
C         -3.84880        0.73660        4.22790
C         -4.76580        0.27290        5.16350
C         -5.02920       -1.07860        5.27170
C         -4.36760       -1.98490        4.45260
S         -4.60810       -3.72980        4.53130
C         -5.34870       -3.97530        6.17080
C         -3.46770       -1.51960        3.49600
C         -3.21430       -0.17130        3.38100
C         -1.24920        1.68040        5.03160
S         -1.34360        0.15160        5.85850
C         -1.79660        3.70190        2.09690
C         -2.97280        3.63410        1.40050
C         -2.79810        3.60680       -0.00490
C         -3.78200        3.39420       -0.98400
C         -5.20550        3.26660       -0.62980
C         -6.13890        4.16840       -1.12820
C         -7.47210        4.05160       -0.78760
C         -7.90970        3.02150        0.03550
C         -9.36780        2.87560        0.36230
C        -10.10020        2.14990       -0.76800
C         -6.97720        2.10760        0.50750
C         -5.63770        2.23280        0.19350
C         -3.34180        3.24510       -2.28790
C         -1.96730        3.26560       -2.64320
C         -0.98220        3.50680       -1.66790
C          0.44770        3.41910       -1.99970
C          1.31450        4.48420       -1.78400
C          2.64840        4.37510       -2.12690
C          3.15550        3.19970       -2.66760
C          4.59360        3.10720       -3.08700
C          4.77230        3.65450       -4.50440
C          2.29220        2.12730       -2.85360
C          0.95420        2.23470       -2.52870
C         -1.43110        3.69860       -0.37800
S         -0.40730        3.87920        1.01820
C         -1.76520        2.95550       -3.99990
C         -2.92240        2.67810       -4.68480
S         -4.34120        2.87580       -3.66560
C         -3.06330        2.30830       -6.04450
C         -2.11540        1.75680       -6.85150
C         -2.27010        1.81060       -8.33000
O         -3.27790        2.07800       -8.94470
C         -0.92810        1.52000       -8.87580
C         -0.53160        1.55170      -10.21080
C          0.79540        1.25380      -10.40990
C          1.67360        0.95600       -9.35900
C          1.29770        0.91680       -8.03810
C         -0.05270        1.20130       -7.81680
C         -0.81980        1.17360       -6.57410
C         -0.46540        0.46500       -5.45490
C          0.79310       -0.13300       -5.25530
N          1.81010       -0.61020       -5.01360
C         -1.35470        0.18100       -4.39770
N         -2.04380       -0.14310       -3.53870
C          2.84960        0.77600      -10.28440
C          3.88660        1.92320      -10.36620
C          3.15270        3.19160      -10.00720
C          2.32230        3.47410      -11.00200
C          2.47970        2.40210      -12.05190
C          3.97520        2.08460      -11.89210
C          1.87240        1.10760      -11.45620
H          0.88550       -7.92030       -0.48400
H          0.16510       -2.74060       -3.80230
H          0.27850       -7.35200       -5.89890
H         -1.54290       -5.20480       -7.83910
H          0.42210       -5.37940       -9.35840
H          2.54900       -5.00320       -7.88540
H          2.40560       -2.56300       -6.82610
H          0.19920       -1.44720       -7.66450
H          0.70810       -2.79290       -9.87250
H         -0.99050       -3.08530       -9.42390
H         -1.65860       -2.85440       -6.78080
H          2.81130       -4.67940        0.14830
H          4.82300       -2.25620        3.44530
H          6.15870       -0.54370        2.30490
H          6.34120        1.11060        0.58830
H          5.04070        1.31190       -0.59080
H          7.29070       -0.75140       -0.77680
H          7.17250        0.73470       -1.72560
H          5.98950       -0.55950       -1.94990
H          3.47990       -0.66120       -1.01290
H          2.14340       -2.37250        0.11400
H         -1.98270       -5.72010        3.10870
H         -3.66690       -6.93430        4.38970
H         -4.64750       -7.48650        6.52620
H         -3.85040       -7.00840        8.03550
H         -2.26450       -8.91870        7.79430
H         -3.05180       -9.38500        6.28740
H         -3.93870       -9.48460        7.81300
H         -1.46690       -6.22930        7.97590
H          0.25630       -5.05140        6.68610
H         -0.61460       -2.69460        5.95880
H          1.74200        1.16620        7.88900
H          3.17130        0.39540        9.69470
H          4.16800       -1.31310       10.99970
H          5.67080       -1.06770       11.91700
H          4.68530        0.34020       11.46780
H          6.35880       -0.23010        6.91270
H          4.89990        0.53270        5.07930
H          4.29170        3.20060        5.34880
H          5.25830        4.32700        3.41930
H          5.60050        5.89720        1.74540
H          6.43190        5.55560        0.21410
H          6.74700        4.52280        1.62410
H          2.66890        2.11410        0.82530
H          1.71940        0.95640        2.77660
H         -5.97920        1.74830        3.29180
H         -7.71820        3.47480        3.11000
H         -7.88720        8.50730        4.06150
H         -6.24370        8.02810        3.58310
H         -6.82790        7.72190        5.25210
H         -4.99700        6.36920        4.69100
H         -3.28340        4.66400        4.87980
H         -5.26600        0.97500        5.81410
H         -5.74420       -1.41420        6.00540
H         -5.30700       -5.04410        6.35260
H         -4.75710       -3.45180        6.91540
H         -6.38180       -3.63980        6.17780
H         -2.96740       -2.22820        2.85430
H         -2.50870        0.19080        2.64730
H         -3.94200        3.57020        1.85590
H         -5.81080        4.97210       -1.77180
H         -8.18520        4.77020       -1.16530
H         -9.48670        2.30870        1.28820
H         -9.81330        3.86230        0.50680
H        -11.15680        2.04560       -0.53220
H         -9.67690        1.15890       -0.91630
H        -10.00430        2.70400       -1.69880
H         -7.30500        1.28670        1.13000
H         -4.92180        1.51440        0.56680
H          0.93380        5.40390       -1.36400
H          3.30960        5.21410       -1.96860
H          4.91980        2.06620       -3.06350
H          5.21370        3.67910       -2.39430
H          4.45680        4.69460       -4.55330
H          5.81480        3.59290       -4.80830
H          4.17170        3.08110       -5.20780
H          2.66650        1.19880       -3.26210
H          0.29450        1.38790       -2.65620
H         -0.79410        2.97450       -4.46290
H         -4.01100        2.53790       -6.51960
H         -1.23610        1.78900      -10.99250
H          1.98140        0.69450       -7.23500
H          3.31660       -0.20700      -10.27130
H          4.81150        1.73470       -9.82770
H          3.26790        3.70610       -9.07100
H          1.60480        4.27140      -11.06280
H          2.12440        2.65050      -13.04840
H          4.28340        1.17580      -12.40710
H          4.61580        2.91260      -12.19180
H          1.70410        0.34250      -12.21150
