153

C         -4.41810        2.08680       -4.15580
C         -4.99720        3.03100       -3.34520
C         -4.55770        3.38690       -1.99420
O         -3.55630        3.00260       -1.40840
C         -5.57420        4.30170       -1.45210
C         -5.59800        4.87270       -0.18130
C         -6.69130        5.67130        0.05200
C         -7.68600        5.89140       -0.90980
C         -7.66700        5.34530       -2.17190
C         -6.56480        4.52490       -2.42960
C         -6.20600        3.77670       -3.63440
C         -6.88780        3.81710       -4.82430
C         -8.05920        4.56950       -5.04960
N         -9.01440        5.15210       -5.30830
C         -6.51720        3.14160       -6.00540
N         -6.27890        2.63800       -7.01050
C         -8.49000        6.77770        0.00870
C         -9.73730        6.14340        0.66020
C        -10.02900        7.04670        1.83680
C         -9.08580        6.84100        2.74710
C         -8.14060        5.79510        2.20110
C         -9.12870        4.94200        1.39520
C         -7.37900        6.53430        1.08020
C         -3.28360        1.29160       -3.93980
C         -2.91750        0.25820       -4.80070
C         -1.78890       -0.44610       -4.40320
S         -1.21210       -1.94870       -5.10500
C         -1.92660       -1.92850       -6.78870
C         -3.28180       -2.60610       -6.86110
C         -1.22600        0.08370       -3.23850
S         -2.17150        1.39140       -2.60170
C         -0.08950       -0.32300       -2.49520
C          1.12350       -0.89170       -2.87890
N          1.58160       -1.08030       -4.16690
C          2.45920       -2.15790       -4.38010
C          3.65590       -1.98830       -5.07560
C          4.52720       -3.04470       -5.21490
C          4.22650       -4.28950       -4.66280
S          5.44390       -5.55140       -4.86690
C          4.66580       -7.03520       -4.16740
C          3.02630       -4.46770       -3.98930
C          2.15000       -3.40870       -3.85400
C          1.29710       -0.18150       -5.19970
C          1.28960       -0.62470       -6.52470
C          0.94870        0.23190       -7.54510
C          0.60110        1.55540       -7.27520
S          0.12540        2.53920       -8.66130
C         -0.33310        4.13530       -7.93140
C          0.64650        2.01210       -5.96620
C          1.00020        1.15350       -4.94240
C          1.91570       -1.17600       -1.73920
S          3.47370       -1.88760       -1.51470
C          3.37080       -1.63270        0.23450
C          2.20710       -0.95350        0.59570
N          1.87640       -0.48470        1.84630
C          2.78490        0.17580        2.68290
C          3.98250        0.70490        2.20750
C          4.83360        1.39100        3.04870
C          4.49580        1.57860        4.38320
S          5.50800        2.44610        5.53090
C          7.13940        2.43460        4.73150
C          3.28730        1.07210        4.85860
C          2.45200        0.36340        4.02620
C          0.49010       -0.29370        2.07000
C         -0.03400        0.98060        2.26190
C         -1.39940        1.16920        2.32710
C         -2.25800        0.08340        2.20600
S         -4.01360        0.23720        2.19600
C         -4.27450        1.96780        1.71030
C         -1.73180       -1.20090        2.08440
C         -0.36870       -1.38880        2.01170
C          1.37680       -0.75260       -0.53630
S         -0.16380       -0.00830       -0.76550
C          4.37520       -2.23900        1.02030
C          5.51940       -2.82270        0.50350
C          6.24900       -3.54430        1.44090
S          7.72870       -4.41800        1.15110
C          7.80250       -4.51810       -0.67480
C          6.73030       -5.41660       -1.25900
C          5.69260       -3.50600        2.72900
S          4.23920       -2.52050        2.73050
C          6.11660       -4.30430        3.79420
C          5.72140       -4.33570        5.10660
C          5.86360       -5.60340        5.87220
O          6.47340       -6.59560        5.53290
C          5.05960       -5.39580        7.08290
C          4.55810       -4.05180        7.09670
C          3.80020       -3.78280        8.18980
S          3.68340       -5.17170        9.21380
C          4.68740       -6.13920        8.15770
C          5.03090       -7.54420        8.47280
C          5.07200       -3.35250        5.93360
C          5.14980       -1.98310        5.82170
C          5.94870       -1.32820        4.87380
N          6.65080       -0.76930        4.15460
C          4.54130       -1.15180        6.77800
N          4.03580       -0.48640        7.56610
H         -4.91080        1.88050       -5.09830
H         -4.80830        4.68210        0.52830
H         -8.43770        5.53060       -2.90100
H         -8.66320        7.79300       -0.34240
H        -10.55880        5.94930       -0.02380
H        -10.83300        7.75840        1.86160
H         -8.94440        7.34640        3.68430
H         -7.50810        5.28360        2.92190
H         -9.85390        4.43970        2.03310
H         -8.65510        4.21360        0.73930
H         -6.80930        7.38780        1.44300
H         -3.50050        0.03360       -5.67550
H         -1.95480       -0.89000       -7.11420
H         -1.19700       -2.46400       -7.39610
H         -4.00220       -2.12600       -6.20320
H         -3.65890       -2.56170       -7.88080
H         -3.19640       -3.64930       -6.56610
H          3.90050       -1.02270       -5.49190
H          5.46010       -2.91690       -5.74210
H          4.49060       -6.90090       -3.10400
H          3.74370       -7.25250       -4.69820
H          5.37880       -7.83880       -4.32370
H          2.75990       -5.42140       -3.56390
H          1.21250       -3.54610       -3.33590
H          1.53090       -1.65410       -6.74140
H          0.93090       -0.11620       -8.56650
H          0.53210        4.59250       -7.46000
H         -0.66690        4.74950       -8.76190
H         -1.14570        3.99980       -7.22330
H          0.41180        3.03560       -5.72270
H          1.04600        1.53430       -3.93370
H          4.24830        0.59720        1.16680
H          5.75270        1.78530        2.64860
H          7.35420        1.42550        4.39110
H          7.16540        3.14890        3.91360
H          7.84650        2.73070        5.50000
H          3.02450        1.22430        5.89340
H          1.52930       -0.04600        4.40890
H          0.63350        1.82660        2.33060
H         -1.78360        2.16830        2.44990
H         -4.00780        2.63300        2.52700
H         -5.33740        2.05380        1.50340
H         -3.70100        2.18240        0.81220
H         -2.40490       -2.04190        2.02310
H          0.04250       -2.37900        1.88200
H          5.77880       -2.71130       -0.53340
H          8.79510       -4.92490       -0.86690
H          7.75690       -3.50600       -1.07350
H          6.84340       -5.45730       -2.34070
H          6.82210       -6.42300       -0.85680
H          5.73560       -5.04020       -1.02840
H          6.78630       -5.11210        3.50510
H          3.29380       -2.88100        8.46950
H          4.13020       -8.15290        8.54970
H          5.66610       -7.93940        7.68330
H          5.55830       -7.60740        9.42420
