180

C         -4.78980        9.59150        0.09160
C         -4.98750       10.46570        1.12210
C         -4.45130       10.42120        2.50420
O         -3.55860        9.73310        2.95620
C         -5.22740       11.41300        3.26920
C         -5.13400       11.65950        4.63720
C         -5.99930       12.62470        5.09090
C         -6.89070       13.29890        4.24450
C         -6.98410       13.07340        2.89210
C         -6.11160       12.09270        2.40970
C         -5.92160       11.58240        1.05560
C         -6.48170       12.11940       -0.07340
C         -7.36490       13.22050       -0.07710
N         -8.09000       14.10650       -0.16360
C         -6.24200       11.70590       -1.40190
N         -6.10130       11.45660       -2.51450
C         -7.47110       14.11280        5.37340
C         -8.85410       13.69090        5.92850
C         -8.99170       12.21260        5.66120
C         -8.14740       11.57580        6.46170
C         -7.42350       12.61240        7.28510
C         -8.53360       13.66530        7.43160
C         -6.47710       13.36330        6.31560
C         -3.97960        8.43820       -0.01230
C         -3.04370        7.88410        0.82430
C         -2.48750        6.68160        0.34510
C         -1.54040        5.86300        0.98330
C         -0.92660        6.24730        2.29300
C          0.19370        7.27000        2.09150
C         -1.21130        4.69350        0.33120
C         -1.77400        4.29830       -0.91140
C         -2.69050        5.13060       -1.56630
C         -3.26820        4.78010       -2.90450
C         -2.28910        5.13000       -4.02640
C         -3.02330        6.30390       -0.91690
S         -4.17520        7.48030       -1.48270
C         -1.35110        2.99790       -1.28660
C         -0.52250        2.40830       -0.38110
S         -0.12810        3.47350        0.95250
C         -0.12960        1.02950       -0.33750
C         -0.97570       -0.05720       -0.48550
N         -2.34090       -0.00280       -0.72380
C         -3.12030        1.01620       -0.16020
C         -4.15190        1.59910       -0.89000
C         -4.84000        2.69030       -0.39480
C         -4.49920        3.22410        0.83980
S         -5.21700        4.68070        1.52810
C         -6.43270        5.19900        0.28510
C         -3.51450        2.60050        1.60430
C         -2.84080        1.50450        1.11730
C         -2.92510       -1.02610       -1.48090
C         -4.16490       -1.55370       -1.13240
C         -4.70240       -2.61430       -1.83550
C         -4.00520       -3.16890       -2.90030
S         -4.55160       -4.57180       -3.82530
C         -6.22870       -4.88290       -3.20680
C         -2.78190       -2.62020       -3.27750
C         -2.25080       -1.55740       -2.58240
C         -0.26660       -1.26890       -0.29690
S         -0.71670       -2.93110       -0.37300
C          0.92960       -3.41580        0.02820
C          1.78630       -2.33170        0.17200
N          3.15250       -2.37900        0.36350
C          3.76110       -1.33730        1.08330
C          3.15720       -0.82740        2.23330
C          3.73140        0.22490        2.90950
C          4.92660        0.78470        2.46180
S          5.55500        2.13920        3.40000
C          6.99720        2.70010        2.45000
C          5.54710        0.25810        1.33620
C          4.96550       -0.79130        0.65210
C          3.93630       -3.42150       -0.15050
C          4.99830       -3.92420        0.59780
C          5.70190       -5.03220        0.16900
C          5.34360       -5.66940       -1.01160
S          6.10670       -7.15070       -1.59620
C          7.04120       -7.74160       -0.15430
C          4.32790       -5.12980       -1.79960
C          3.64270       -4.01010       -1.38260
C          1.07310       -1.11150        0.01010
S          1.50700        0.56190        0.08980
C          1.18490       -4.81830        0.01860
C          0.56430       -5.70890       -0.82650
C          1.10300       -7.00120       -0.79110
S          0.46970       -8.34350       -1.69210
C         -1.23850       -7.78870       -2.08620
C         -1.32770       -7.10160       -3.43650
C          2.16490       -7.11400        0.11300
S          2.34310       -5.62100        1.02450
C          3.09250       -8.12360        0.41090
C          3.58020       -9.09020       -0.43040
C          3.41670       -9.10030       -1.89160
O          2.85060       -8.26680       -2.57640
C          4.15070      -10.28240       -2.37880
C          4.23510      -10.73270       -3.69240
C          4.97880      -11.87880       -3.84470
C          5.59940      -12.52420       -2.76800
C          5.53220      -12.08380       -1.46750
C          4.77700      -10.92110       -1.29100
C          4.47980      -10.16760       -0.07400
C          4.99220      -10.44280        1.16930
C          4.75200       -9.69660        2.34080
N          4.63220       -9.13430        3.33580
C          5.88990      -11.49270        1.45070
N          6.63240      -12.31460        1.75560
C          6.17640      -13.60760       -3.64450
C          7.67800      -13.51730       -4.01160
C          8.04710      -12.05570       -3.95200
C          7.45840      -11.44660       -4.97250
C          6.68040      -12.48620       -5.74110
C          7.58500      -13.71160       -5.53360
C          5.48310      -12.88960       -4.84520
H         -5.38050        9.76840       -0.80020
H         -4.43340       11.11450        5.25040
H         -7.67690       13.59970        2.25730
H         -7.37250       15.19260        5.28220
H         -9.68080       14.31640        5.60270
H         -9.62770       11.79810        4.90090
H         -7.93670       10.52320        6.50370
H         -6.94790       12.25600        8.19510
H         -9.36970       13.31450        8.03460
H         -8.17790       14.62030        7.81570
H         -5.72850       13.95350        6.84040
H         -2.78330        8.33210        1.76450
H         -0.51700        5.35440        2.77060
H         -1.69070        6.66970        2.94720
H          0.63850        7.52910        3.04870
H         -0.19410        8.17620        1.63250
H          0.96900        6.85960        1.44820
H         -4.19460        5.34040       -3.05290
H         -3.50230        3.71450       -2.93900
H         -1.35390        4.58980       -3.89830
H         -2.71390        4.86990       -4.99280
H         -2.07480        6.19610       -4.01870
H         -1.66870        2.50130       -2.18520
H         -4.40070        1.20570       -1.86520
H         -5.62070        3.12840       -0.99490
H         -6.86830        6.11640        0.66870
H         -5.93750        5.39570       -0.66100
H         -7.20340        4.44100        0.17990
H         -3.27850        2.99680        2.57990
H         -2.07560        1.03230        1.71500
H         -4.70110       -1.14110       -0.29070
H         -5.65690       -3.00940       -1.52730
H         -6.61640       -5.69740       -3.81080
H         -6.19420       -5.18290       -2.16350
H         -6.84180       -3.99710       -3.34430
H         -2.25510       -3.04050       -4.12040
H         -1.30430       -1.13370       -2.88430
H          2.23660       -1.26400        2.59130
H          3.26240        0.62710        3.79410
H          6.69230        2.97080        1.44350
H          7.36690        3.57720        2.97230
H          7.76250        1.92920        2.43970
H          6.47870        0.66080        0.97300
H          5.44440       -1.18890       -0.23050
H          5.25060       -3.46200        1.54020
H          6.50850       -5.40280        0.78000
H          7.35950       -8.75030       -0.40260
H          6.39700       -7.75840        0.72050
H          7.91290       -7.11550        0.01360
H          4.06890       -5.61640       -2.72700
H          2.85190       -3.60470       -1.99590
H         -0.20300       -5.38830       -1.50680
H         -1.81950       -8.71060       -2.08820
H         -1.58460       -7.15460       -1.27230
H         -2.34530       -6.75800       -3.61420
H         -1.04710       -7.79270       -4.22740
H         -0.66080       -6.24450       -3.48870
H          3.51210       -8.05570        1.40730
H          3.73870      -10.20350       -4.49040
H          6.01520      -12.59630       -0.65260
H          5.86690      -14.62490       -3.41170
H          8.31980      -14.19740       -3.45770
H          8.63210      -11.61730       -3.16460
H          7.45140      -10.39800       -5.20620
H          6.41370      -12.22880       -6.76310
H          8.54880      -13.61380       -6.03150
H          7.11540      -14.65130       -5.82240
H          4.72030      -13.43880       -5.39450
