
  xtb     02092206073D
 energy: -271.338448429521 gnorm: 0.000769487797 xtb: 6.4.1 (unknown)
168182  0     0  0            999 V2000
    1.5948   -5.7584   -5.1327 C   0  0  0  0  0  0  0  0  0  0  0  0
    1.5562   -5.0555   -6.3121 C   0  0  0  0  0  0  0  0  0  0  0  0
    0.9377   -3.7414   -6.5059 C   0  0  0  0  0  0  0  0  0  0  0  0
    0.1539   -3.1651   -5.7656 O   0  0  0  0  0  0  0  0  0  0  0  0
    1.4115   -3.2396   -7.7988 C   0  0  0  0  0  0  0  0  0  0  0  0
    1.1768   -1.9754   -8.3325 C   0  0  0  0  0  0  0  0  0  0  0  0
    1.7909   -1.7627   -9.5417 C   0  0  0  0  0  0  0  0  0  0  0  0
    2.5757   -2.7380  -10.1723 C   0  0  0  0  0  0  0  0  0  0  0  0
    2.8042   -3.9943   -9.6584 C   0  0  0  0  0  0  0  0  0  0  0  0
    2.1907   -4.2325   -8.4246 C   0  0  0  0  0  0  0  0  0  0  0  0
    2.2226   -5.4091   -7.5530 C   0  0  0  0  0  0  0  0  0  0  0  0
    2.7617   -6.6253   -7.8826 C   0  0  0  0  0  0  0  0  0  0  0  0
    2.7428   -7.7711   -7.0603 C   0  0  0  0  0  0  0  0  0  0  0  0
    2.7564   -8.7454   -6.4521 N   0  0  0  0  0  0  0  0  0  0  0  0
    3.3778   -6.9108   -9.1187 C   0  0  0  0  0  0  0  0  0  0  0  0
    3.8896   -7.2086  -10.1024 N   0  0  0  0  0  0  0  0  0  0  0  0
    2.9143   -1.8276  -11.3278 C   0  0  0  0  0  0  0  0  0  0  0  0
    4.3203   -1.1909  -11.3100 C   0  0  0  0  0  0  0  0  0  0  0  0
    4.1966   -0.0117  -12.2482 C   0  0  0  0  0  0  0  0  0  0  0  0
    3.4536    0.9081  -11.6459 C   0  0  0  0  0  0  0  0  0  0  0  0
    3.0597    0.3654  -10.2913 C   0  0  0  0  0  0  0  0  0  0  0  0
    4.3129   -0.4563   -9.9632 C   0  0  0  0  0  0  0  0  0  0  0  0
    2.0376   -0.7430  -10.6228 C   0  0  0  0  0  0  0  0  0  0  0  0
    1.1602   -5.3545   -3.8603 C   0  0  0  0  0  0  0  0  0  0  0  0
    1.4231   -6.0526   -2.6815 C   0  0  0  0  0  0  0  0  0  0  0  0
    1.0645   -5.3670   -1.5310 C   0  0  0  0  0  0  0  0  0  0  0  0
    1.2665   -6.0069    0.1022 S   0  0  0  0  0  0  0  0  0  0  0  0
   -0.4827   -6.0500    0.6534 C   0  0  0  0  0  0  0  0  0  0  0  0
   -1.3603   -6.8517   -0.2843 C   0  0  0  0  0  0  0  0  0  0  0  0
    0.5184   -4.1109   -1.7977 C   0  0  0  0  0  0  0  0  0  0  0  0
    0.3512   -3.8514   -3.5023 S   0  0  0  0  0  0  0  0  0  0  0  0
    0.2977   -3.0351   -0.9111 C   0  0  0  0  0  0  0  0  0  0  0  0
   -0.2819   -1.8124   -1.2522 C   0  0  0  0  0  0  0  0  0  0  0  0
   -1.0461   -1.6282   -2.4057 N   0  0  0  0  0  0  0  0  0  0  0  0
   -0.5933   -0.7788   -3.4178 C   0  0  0  0  0  0  0  0  0  0  0  0
    0.7730   -0.5378   -3.5693 C   0  0  0  0  0  0  0  0  0  0  0  0
    1.2360    0.2090   -4.6277 C   0  0  0  0  0  0  0  0  0  0  0  0
    0.3470    0.7403   -5.5586 C   0  0  0  0  0  0  0  0  0  0  0  0
    1.0641    1.6014   -6.9282 S   0  0  0  0  0  0  0  0  0  0  0  0
   -0.3482    1.9430   -8.0191 C   0  0  0  0  0  0  0  0  0  0  0  0
   -1.0167    0.5639   -5.3741 C   0  0  0  0  0  0  0  0  0  0  0  0
   -1.4808   -0.1828   -4.3085 C   0  0  0  0  0  0  0  0  0  0  0  0
   -2.1414   -2.4877   -2.5656 C   0  0  0  0  0  0  0  0  0  0  0  0
   -2.8387   -2.9152   -1.4328 C   0  0  0  0  0  0  0  0  0  0  0  0
   -3.8797   -3.8074   -1.5463 C   0  0  0  0  0  0  0  0  0  0  0  0
   -4.2617   -4.2922   -2.7958 C   0  0  0  0  0  0  0  0  0  0  0  0
   -5.6025   -5.4406   -2.8130 S   0  0  0  0  0  0  0  0  0  0  0  0
   -5.8345   -5.8191   -4.5721 C   0  0  0  0  0  0  0  0  0  0  0  0
   -3.5823   -3.8603   -3.9267 C   0  0  0  0  0  0  0  0  0  0  0  0
   -2.5300   -2.9725   -3.8132 C   0  0  0  0  0  0  0  0  0  0  0  0
   -0.0844   -0.8558   -0.2401 C   0  0  0  0  0  0  0  0  0  0  0  0
   -0.5085    0.8076   -0.0348 S   0  0  0  0  0  0  0  0  0  0  0  0
    0.1900    0.8108    1.5861 C   0  0  0  0  0  0  0  0  0  0  0  0
    0.7623   -0.4105    1.9147 C   0  0  0  0  0  0  0  0  0  0  0  0
    1.4237   -0.7318    3.0901 N   0  0  0  0  0  0  0  0  0  0  0  0
    2.4162    0.0825    3.6361 C   0  0  0  0  0  0  0  0  0  0  0  0
    2.7291   -0.0272    4.9934 C   0  0  0  0  0  0  0  0  0  0  0  0
    3.6782    0.7943    5.5555 C   0  0  0  0  0  0  0  0  0  0  0  0
    4.3358    1.7520    4.7841 C   0  0  0  0  0  0  0  0  0  0  0  0
    5.5070    2.7700    5.6255 S   0  0  0  0  0  0  0  0  0  0  0  0
    6.2278    3.7906    4.3087 C   0  0  0  0  0  0  0  0  0  0  0  0
    4.0366    1.8575    3.4332 C   0  0  0  0  0  0  0  0  0  0  0  0
    3.0914    1.0256    2.8654 C   0  0  0  0  0  0  0  0  0  0  0  0
    1.2744   -2.0691    3.5125 C   0  0  0  0  0  0  0  0  0  0  0  0
    2.3756   -2.8930    3.7197 C   0  0  0  0  0  0  0  0  0  0  0  0
    2.1998   -4.2363    3.9853 C   0  0  0  0  0  0  0  0  0  0  0  0
    0.9203   -4.7734    4.0425 C   0  0  0  0  0  0  0  0  0  0  0  0
    0.6041   -6.4926    4.2924 S   0  0  0  0  0  0  0  0  0  0  0  0
    2.1313   -7.2742    3.6973 C   0  0  0  0  0  0  0  0  0  0  0  0
   -0.1848   -3.9388    3.8988 C   0  0  0  0  0  0  0  0  0  0  0  0
   -0.0096   -2.5982    3.6374 C   0  0  0  0  0  0  0  0  0  0  0  0
    0.5855   -1.3490    0.8704 C   0  0  0  0  0  0  0  0  0  0  0  0
    1.0127   -3.0149    0.6918 S   0  0  0  0  0  0  0  0  0  0  0  0
    0.0493    1.9896    2.3708 C   0  0  0  0  0  0  0  0  0  0  0  0
   -0.3182    3.2357    1.9218 C   0  0  0  0  0  0  0  0  0  0  0  0
   -0.4703    4.1558    2.9707 C   0  0  0  0  0  0  0  0  0  0  0  0
   -0.8647    5.8877    2.8864 S   0  0  0  0  0  0  0  0  0  0  0  0
   -2.6361    5.9586    2.4829 C   0  0  0  0  0  0  0  0  0  0  0  0
   -3.0984    4.9314    1.4740 C   0  0  0  0  0  0  0  0  0  0  0  0
   -0.1969    3.6317    4.2089 C   0  0  0  0  0  0  0  0  0  0  0  0
    0.2201    1.9701    4.1142 S   0  0  0  0  0  0  0  0  0  0  0  0
   -0.2344    4.5110    5.4073 C   0  0  0  0  0  0  0  0  0  0  0  0
   -1.2974    5.5504    5.1316 C   0  0  0  0  0  0  0  0  0  0  0  0
   -2.5736    4.9397    5.1608 C   0  0  0  0  0  0  0  0  0  0  0  0
   -2.7963    4.9134    6.5758 C   0  0  0  0  0  0  0  0  0  0  0  0
   -3.3103    5.9410    7.3405 C   0  0  0  0  0  0  0  0  0  0  0  0
   -3.9166    7.0334    6.6089 C   0  0  0  0  0  0  0  0  0  0  0  0
   -3.7828    7.1918    5.4038 O   0  0  0  0  0  0  0  0  0  0  0  0
   -4.7154    7.8982    7.3464 N   0  0  0  0  0  0  0  0  0  0  0  0
   -5.4047    8.9444    6.6034 C   0  0  0  0  0  0  0  0  0  0  0  0
   -4.5850   10.2272    6.5576 C   0  0  0  0  0  0  0  0  0  0  0  0
   -4.8242    7.8542    8.7058 C   0  0  0  0  0  0  0  0  0  0  0  0
   -5.7815    8.9399    9.5091 S   0  0  0  0  0  0  0  0  0  0  0  0
   -4.1145    6.9098    9.3855 N   0  0  0  0  0  0  0  0  0  0  0  0
   -3.3410    5.9144    8.7839 C   0  0  0  0  0  0  0  0  0  0  0  0
   -2.7442    5.1119    9.4840 O   0  0  0  0  0  0  0  0  0  0  0  0
   -4.1851    6.8795   10.8410 C   0  0  0  0  0  0  0  0  0  0  0  0
   -5.3754    6.0604   11.3226 C   0  0  0  0  0  0  0  0  0  0  0  0
   -2.1064    3.6649    7.0601 C   0  0  0  0  0  0  0  0  0  0  0  0
   -0.5927    3.8447    6.7712 C   0  0  0  0  0  0  0  0  0  0  0  0
    2.1073   -6.7128   -5.1346 H   0  0  0  0  0  0  0  0  0  0  0  0
    0.5776   -1.2561   -7.7979 H   0  0  0  0  0  0  0  0  0  0  0  0
    3.4143   -4.7289  -10.1569 H   0  0  0  0  0  0  0  0  0  0  0  0
    2.6178   -2.1790  -12.3141 H   0  0  0  0  0  0  0  0  0  0  0  0
    5.1355   -1.8836  -11.5000 H   0  0  0  0  0  0  0  0  0  0  0  0
    4.6036    0.0087  -13.2421 H   0  0  0  0  0  0  0  0  0  0  0  0
    3.1169    1.8503  -12.0372 H   0  0  0  0  0  0  0  0  0  0  0  0
    2.7272    1.0834   -9.5463 H   0  0  0  0  0  0  0  0  0  0  0  0
    4.2008   -1.1089   -9.0996 H   0  0  0  0  0  0  0  0  0  0  0  0
    5.1924    0.1718   -9.8322 H   0  0  0  0  0  0  0  0  0  0  0  0
    1.1554   -0.3695  -11.1398 H   0  0  0  0  0  0  0  0  0  0  0  0
    1.8896   -7.0216   -2.6681 H   0  0  0  0  0  0  0  0  0  0  0  0
   -0.8345   -5.0237    0.7531 H   0  0  0  0  0  0  0  0  0  0  0  0
   -0.4342   -6.5065    1.6412 H   0  0  0  0  0  0  0  0  0  0  0  0
   -0.9655   -7.8571   -0.4117 H   0  0  0  0  0  0  0  0  0  0  0  0
   -2.3651   -6.9201    0.1270 H   0  0  0  0  0  0  0  0  0  0  0  0
   -1.4236   -6.3747   -1.2613 H   0  0  0  0  0  0  0  0  0  0  0  0
    1.4734   -0.9749   -2.8729 H   0  0  0  0  0  0  0  0  0  0  0  0
    2.2954    0.3663   -4.7626 H   0  0  0  0  0  0  0  0  0  0  0  0
    0.0742    2.3851   -8.9162 H   0  0  0  0  0  0  0  0  0  0  0  0
   -0.8572    1.0167   -8.2691 H   0  0  0  0  0  0  0  0  0  0  0  0
   -1.0245    2.6493   -7.5466 H   0  0  0  0  0  0  0  0  0  0  0  0
   -1.7327    0.9969   -6.0545 H   0  0  0  0  0  0  0  0  0  0  0  0
   -2.5437   -0.3160   -4.1753 H   0  0  0  0  0  0  0  0  0  0  0  0
   -2.5604   -2.5415   -0.4582 H   0  0  0  0  0  0  0  0  0  0  0  0
   -4.4136   -4.1379   -0.6685 H   0  0  0  0  0  0  0  0  0  0  0  0
   -4.9404   -6.2870   -4.9738 H   0  0  0  0  0  0  0  0  0  0  0  0
   -6.0865   -4.9135   -5.1164 H   0  0  0  0  0  0  0  0  0  0  0  0
   -6.6651   -6.5169   -4.6133 H   0  0  0  0  0  0  0  0  0  0  0  0
   -3.8471   -4.2211   -4.9073 H   0  0  0  0  0  0  0  0  0  0  0  0
   -1.9851   -2.6786   -4.6956 H   0  0  0  0  0  0  0  0  0  0  0  0
    2.2127   -0.7555    5.5999 H   0  0  0  0  0  0  0  0  0  0  0  0
    3.9159    0.7137    6.6049 H   0  0  0  0  0  0  0  0  0  0  0  0
    6.6893    3.1553    3.5584 H   0  0  0  0  0  0  0  0  0  0  0  0
    6.9856    4.3981    4.7934 H   0  0  0  0  0  0  0  0  0  0  0  0
    5.4670    4.4313    3.8721 H   0  0  0  0  0  0  0  0  0  0  0  0
    4.5323    2.5799    2.8051 H   0  0  0  0  0  0  0  0  0  0  0  0
    2.8766    1.1134    1.8107 H   0  0  0  0  0  0  0  0  0  0  0  0
    3.3715   -2.4824    3.6445 H   0  0  0  0  0  0  0  0  0  0  0  0
    3.0673   -4.8607    4.1240 H   0  0  0  0  0  0  0  0  0  0  0  0
    2.3981   -6.8472    2.7347 H   0  0  0  0  0  0  0  0  0  0  0  0
    2.9293   -7.1516    4.4233 H   0  0  0  0  0  0  0  0  0  0  0  0
    1.8984   -8.3285    3.5855 H   0  0  0  0  0  0  0  0  0  0  0  0
   -1.1762   -4.3578    3.9768 H   0  0  0  0  0  0  0  0  0  0  0  0
   -0.8647   -1.9527    3.4984 H   0  0  0  0  0  0  0  0  0  0  0  0
   -0.4616    3.4648    0.8821 H   0  0  0  0  0  0  0  0  0  0  0  0
   -2.7770    6.9723    2.1101 H   0  0  0  0  0  0  0  0  0  0  0  0
   -3.1598    5.8488    3.4523 H   0  0  0  0  0  0  0  0  0  0  0  0
   -2.9507    3.9198    1.8458 H   0  0  0  0  0  0  0  0  0  0  0  0
   -4.1608    5.0746    1.2891 H   0  0  0  0  0  0  0  0  0  0  0  0
   -2.5684    5.0386    0.5298 H   0  0  0  0  0  0  0  0  0  0  0  0
    0.7522    4.9799    5.5165 H   0  0  0  0  0  0  0  0  0  0  0  0
   -1.1751    6.5193    5.5949 H   0  0  0  0  0  0  0  0  0  0  0  0
   -2.6205    3.9620    4.6787 H   0  0  0  0  0  0  0  0  0  0  0  0
   -5.5560    8.5595    5.5932 H   0  0  0  0  0  0  0  0  0  0  0  0
   -6.3684    9.1237    7.0831 H   0  0  0  0  0  0  0  0  0  0  0  0
   -5.1165   10.9783    5.9805 H   0  0  0  0  0  0  0  0  0  0  0  0
   -3.6222   10.0387    6.0883 H   0  0  0  0  0  0  0  0  0  0  0  0
   -4.4248   10.6090    7.5630 H   0  0  0  0  0  0  0  0  0  0  0  0
   -3.2543    6.4274   11.1887 H   0  0  0  0  0  0  0  0  0  0  0  0
   -4.2580    7.9071   11.2010 H   0  0  0  0  0  0  0  0  0  0  0  0
   -5.3853    6.0380   12.4084 H   0  0  0  0  0  0  0  0  0  0  0  0
   -5.3028    5.0411   10.9504 H   0  0  0  0  0  0  0  0  0  0  0  0
   -6.3053    6.5032   10.9740 H   0  0  0  0  0  0  0  0  0  0  0  0
   -2.4851    2.7915    6.5251 H   0  0  0  0  0  0  0  0  0  0  0  0
   -2.2471    3.5298    8.1308 H   0  0  0  0  0  0  0  0  0  0  0  0
   -0.0949    2.8752    6.8299 H   0  0  0  0  0  0  0  0  0  0  0  0
   -0.1852    4.4825    7.5570 H   0  0  0  0  0  0  0  0  0  0  0  0
  1  2  2  0  0  0  0
  2  3  1  0  0  0  0
  3  4  2  0  0  0  0
  3  5  1  0  0  0  0
  5  6  2  0  0  0  0
  6  7  1  0  0  0  0
  7  8  2  0  0  0  0
  8  9  1  0  0  0  0
  9 10  2  0  0  0  0
 10 11  1  0  0  0  0
 11 12  2  0  0  0  0
 12 13  1  0  0  0  0
 13 14  3  0  0  0  0
 12 15  1  0  0  0  0
 15 16  3  0  0  0  0
  8 17  1  0  0  0  0
 17 18  1  0  0  0  0
 18 19  1  0  0  0  0
 19 20  2  0  0  0  0
 20 21  1  0  0  0  0
 21 22  1  0  0  0  0
 21 23  1  0  0  0  0
  1 24  1  0  0  0  0
 24 25  2  0  0  0  0
 25 26  1  0  0  0  0
 26 27  1  0  0  0  0
 27 28  1  0  0  0  0
 28 29  1  0  0  0  0
 26 30  2  0  0  0  0
 30 31  1  0  0  0  0
 30 32  1  0  0  0  0
 32 33  2  0  0  0  0
 33 34  1  0  0  0  0
 34 35  1  0  0  0  0
 35 36  2  0  0  0  0
 36 37  1  0  0  0  0
 37 38  2  0  0  0  0
 38 39  1  0  0  0  0
 39 40  1  0  0  0  0
 38 41  1  0  0  0  0
 41 42  2  0  0  0  0
 34 43  1  0  0  0  0
 43 44  2  0  0  0  0
 44 45  1  0  0  0  0
 45 46  2  0  0  0  0
 46 47  1  0  0  0  0
 47 48  1  0  0  0  0
 46 49  1  0  0  0  0
 49 50  2  0  0  0  0
 33 51  1  0  0  0  0
 51 52  1  0  0  0  0
 52 53  1  0  0  0  0
 53 54  2  0  0  0  0
 54 55  1  0  0  0  0
 55 56  1  0  0  0  0
 56 57  2  0  0  0  0
 57 58  1  0  0  0  0
 58 59  2  0  0  0  0
 59 60  1  0  0  0  0
 60 61  1  0  0  0  0
 59 62  1  0  0  0  0
 62 63  2  0  0  0  0
 55 64  1  0  0  0  0
 64 65  2  0  0  0  0
 65 66  1  0  0  0  0
 66 67  2  0  0  0  0
 67 68  1  0  0  0  0
 68 69  1  0  0  0  0
 67 70  1  0  0  0  0
 70 71  2  0  0  0  0
 54 72  1  0  0  0  0
 72 73  1  0  0  0  0
 53 74  1  0  0  0  0
 74 75  2  0  0  0  0
 75 76  1  0  0  0  0
 76 77  1  0  0  0  0
 77 78  1  0  0  0  0
 78 79  1  0  0  0  0
 76 80  2  0  0  0  0
 80 81  1  0  0  0  0
 80 82  1  0  0  0  0
 82 83  1  0  0  0  0
 83 84  2  0  0  0  0
 84 85  1  0  0  0  0
 85 86  2  0  0  0  0
 86 87  1  0  0  0  0
 87 88  2  0  0  0  0
 87 89  1  0  0  0  0
 89 90  1  0  0  0  0
 90 91  1  0  0  0  0
 89 92  1  0  0  0  0
 92 93  2  0  0  0  0
 92 94  1  0  0  0  0
 94 95  1  0  0  0  0
 95 96  2  0  0  0  0
 94 97  1  0  0  0  0
 97 98  1  0  0  0  0
 85 99  1  0  0  0  0
 99100  1  0  0  0  0
 11  2  1  0  0  0  0
 23 17  1  0  0  0  0
 31 24  1  0  0  0  0
 73 32  1  0  0  0  0
 81 74  1  0  0  0  0
100 82  1  0  0  0  0
 10  5  1  0  0  0  0
 22 18  1  0  0  0  0
 42 35  1  0  0  0  0
 50 43  1  0  0  0  0
 72 51  2  0  0  0  0
 95 86  1  0  0  0  0
 23  7  1  0  0  0  0
 63 56  1  0  0  0  0
 71 64  1  0  0  0  0
  1101  1  0  0  0  0
  6102  1  0  0  0  0
  9103  1  0  0  0  0
 17104  1  0  0  0  0
 18105  1  0  0  0  0
 19106  1  0  0  0  0
 20107  1  0  0  0  0
 21108  1  0  0  0  0
 22109  1  0  0  0  0
 22110  1  0  0  0  0
 23111  1  0  0  0  0
 25112  1  0  0  0  0
 28113  1  0  0  0  0
 28114  1  0  0  0  0
 29115  1  0  0  0  0
 29116  1  0  0  0  0
 29117  1  0  0  0  0
 36118  1  0  0  0  0
 37119  1  0  0  0  0
 40120  1  0  0  0  0
 40121  1  0  0  0  0
 40122  1  0  0  0  0
 41123  1  0  0  0  0
 42124  1  0  0  0  0
 44125  1  0  0  0  0
 45126  1  0  0  0  0
 48127  1  0  0  0  0
 48128  1  0  0  0  0
 48129  1  0  0  0  0
 49130  1  0  0  0  0
 50131  1  0  0  0  0
 57132  1  0  0  0  0
 58133  1  0  0  0  0
 61134  1  0  0  0  0
 61135  1  0  0  0  0
 61136  1  0  0  0  0
 62137  1  0  0  0  0
 63138  1  0  0  0  0
 65139  1  0  0  0  0
 66140  1  0  0  0  0
 69141  1  0  0  0  0
 69142  1  0  0  0  0
 69143  1  0  0  0  0
 70144  1  0  0  0  0
 71145  1  0  0  0  0
 75146  1  0  0  0  0
 78147  1  0  0  0  0
 78148  1  0  0  0  0
 79149  1  0  0  0  0
 79150  1  0  0  0  0
 79151  1  0  0  0  0
 82152  1  0  0  0  0
 83153  1  0  0  0  0
 84154  1  0  0  0  0
 90155  1  0  0  0  0
 90156  1  0  0  0  0
 91157  1  0  0  0  0
 91158  1  0  0  0  0
 91159  1  0  0  0  0
 97160  1  0  0  0  0
 97161  1  0  0  0  0
 98162  1  0  0  0  0
 98163  1  0  0  0  0
 98164  1  0  0  0  0
 99165  1  0  0  0  0
 99166  1  0  0  0  0
100167  1  0  0  0  0
100168  1  0  0  0  0
M  END
