178

C         -2.11510        7.32550        5.24390
C         -2.39700        6.84020        6.49080
C         -2.26590        5.44150        6.91690
O         -1.91140        4.49120        6.24020
C         -2.63330        5.40520        8.34100
C         -2.65240        4.28780        9.17360
C         -3.04320        4.55820       10.46290
C         -3.38330        5.84740       10.89470
C         -3.36540        6.95820       10.08500
C         -2.97750        6.70490        8.76540
C         -2.85090        7.61730        7.63040
C         -3.14070        8.95680        7.65490
C         -3.05180        9.84220        6.55990
N         -3.01690       10.63100        5.72510
C         -3.59050        9.65800        8.79400
N         -3.96220       10.29690        9.67260
C         -3.68260        5.38530       12.29870
C         -5.17320        5.24130       12.67230
C         -5.15600        4.34020       13.88590
C         -4.83590        3.11910       13.47730
C         -4.63140        3.17410       11.98040
C         -5.66460        4.24680       11.61240
C         -3.30550        3.94750       11.81700
C         -1.70280        6.65540        4.07740
C         -1.46080        7.33570        2.88910
C         -1.08450        6.51650        1.83000
S         -0.80090        7.09710        0.19760
C         -2.15100        8.33770        0.04070
C         -3.52590        7.72620        0.21430
C         -1.03530        5.17420        2.20170
S         -1.44910        4.94820        3.86460
C         -0.66800        4.04900        1.38130
C         -1.28590        2.81400        1.48600
F         -2.29480        2.63100        2.35810
C         -0.90040        1.71860        0.71000
F         -1.54800        0.55390        0.91520
C          0.14660        1.77910       -0.19180
C          0.77200        3.04600       -0.36200
N          1.71880        3.19510       -1.30440
C          2.32750        4.34820       -1.42810
C          3.32080        4.46210       -2.54320
C          2.62320        4.94780       -3.81650
C          2.01080        5.43270       -0.56020
N          1.05150        5.31260        0.32180
C          0.38570        4.15360        0.43080
C          2.74150        6.73920       -0.56670
C          3.97240        6.66330        0.33990
C          0.61940        0.61820       -0.90980
C          1.93610        0.21370       -1.07030
N          3.03270        0.79450       -0.45780
C          4.24070        0.88020       -1.15560
C          4.24960        1.02430       -2.54460
C          5.44270        1.08890       -3.22910
C          6.65520        1.02470       -2.54570
S          8.11710        1.14270       -3.52790
C          9.45840        0.77360       -2.36170
C          6.65110        0.89310       -1.16300
C          5.45480        0.81440       -0.47750
C          2.87350        1.39700        0.79760
C          3.47710        2.61760        1.10170
C          3.17890        3.26390        2.28020
C          2.28110        2.70870        3.19030
S          1.87400        3.67860        4.60500
C          0.61580        2.69120        5.45820
C          1.75410        1.44920        2.93560
C          2.05260        0.80280        1.75360
C          2.00350       -0.96440       -1.85570
S          3.29750       -1.92200       -2.47250
C          2.15050       -3.04800       -3.21640
C          0.81740       -2.63780       -3.03390
N         -0.31200       -3.18340       -3.58430
C         -1.52560       -2.99670       -2.88570
C         -1.58410       -3.25660       -1.51990
C         -2.73230       -2.98130       -0.80620
C         -3.83740       -2.44230       -1.45350
S         -5.31450       -1.98530       -0.60560
C         -4.71630       -1.66220        1.08000
C         -3.80330       -2.24990       -2.83300
C         -2.65640       -2.52250       -3.54630
C         -0.33810       -3.87020       -4.79730
C         -1.23710       -4.92430       -4.96950
C         -1.26960       -5.63760       -6.14880
C         -0.40670       -5.30850       -7.18610
S         -0.35980       -6.21140       -8.70240
C         -2.11030       -6.66350       -8.92640
C          0.47830       -4.24510       -7.03000
C          0.51260       -3.53200       -5.85170
C          0.76790       -1.46490       -2.23850
S         -0.52410       -0.47940       -1.64770
C          2.70640       -4.12100       -3.92470
C          2.08370       -5.30760       -4.23200
C          0.99640       -5.90690       -3.43930
O          0.46950       -5.44350       -2.44380
C          0.79000       -7.25800       -4.00150
C         -0.13340       -8.21190       -3.58400
C         -0.07880       -9.39190       -4.28800
C          0.84460       -9.61810       -5.31610
C          1.75860       -8.68410       -5.74240
C          1.70410       -7.47200       -5.05210
C          2.48570       -6.25380       -5.24000
C          3.32570       -5.98580       -6.29150
C          3.90310       -4.72180       -6.52660
N          4.36060       -3.70350       -6.79780
C          3.66740       -6.90920       -7.29830
N          3.99960       -7.61920       -8.13770
C          0.34780      -11.02100       -5.56390
C         -0.53770      -11.25850       -6.81040
C         -1.20000       -9.93780       -7.11130
C         -2.09180       -9.70850       -6.15630
C         -2.04580      -10.86750       -5.19220
C         -1.70940      -12.01170       -6.16130
C         -0.69800      -10.76010       -4.43450
H         -2.21960        8.39380        5.09840
H         -2.37900        3.31340        8.79970
H         -3.62450        7.94230       10.43700
H         -3.08850        5.84440       13.08650
H         -5.71120        6.18050       12.76680
H         -5.31910        4.68380       14.89050
H         -4.67790        2.23880       14.07240
H         -4.67690        2.22940       11.44520
H         -6.68480        3.91650       11.80040
H         -5.58270        4.61050       10.58970
H         -2.45990        3.44630       12.28430
H         -1.55680        8.40460        2.81960
H         -1.97240        9.14670        0.74670
H         -2.01900        8.72140       -0.97030
H         -3.66800        6.90910       -0.48970
H         -4.29130        8.47850        0.03460
H         -3.65430        7.33940        1.22360
H          4.12340        5.14840       -2.27530
H          3.74860        3.47530       -2.72460
H          2.16770        5.92380       -3.66210
H          3.34100        5.02180       -4.62930
H          1.84310        4.24670       -4.10200
H          2.06150        7.49880       -0.18220
H          3.03900        7.00970       -1.57930
H          4.65230        5.87870        0.01350
H          3.66510        6.45220        1.36080
H          4.50460        7.61100        0.32620
H          3.31420        1.09300       -3.07860
H          5.45080        1.19610       -4.30280
H          9.53940        1.56130       -1.61820
H          9.28600       -0.19300       -1.89790
H         10.36360        0.73990       -2.96000
H          7.57250        0.84280       -0.60560
H          5.46000        0.69800        0.59610
H          4.15210        3.07040        0.39090
H          3.62080        4.22280        2.50190
H          1.06730        1.79850        5.88210
H         -0.19260        2.44870        4.77600
H          0.22670        3.32700        6.24670
H          1.10520        0.96240        3.64510
H          1.62630       -0.17030        1.55870
H         -0.72270       -3.68540       -1.03200
H         -2.75630       -3.18590        0.25160
H         -5.50070       -1.09310        1.56910
H         -3.80480       -1.07450        1.02950
H         -4.55640       -2.59560        1.61200
H         -4.67710       -1.85890       -3.33090
H         -2.61990       -2.34390       -4.61090
H         -1.89560       -5.19500       -4.15810
H         -1.95240       -6.46580       -6.24740
H         -2.20800       -6.96180       -9.96540
H         -2.38290       -7.49230       -8.28040
H         -2.72850       -5.79370       -8.72830
H          1.13940       -3.98210       -7.84160
H          1.19420       -2.70110       -5.75280
H          3.73700       -3.98670       -4.23170
H         -0.81870       -8.00550       -2.77630
H          2.46430       -8.86780       -6.53540
H          1.07350      -11.81710       -5.40950
H         -0.03040      -11.73940       -7.64220
H         -0.90390       -9.30430       -7.92680
H         -2.71280       -8.84330       -6.00810
H         -2.91510      -10.99280       -4.55160
H         -2.51620      -12.22220       -6.86220
H         -1.40940      -12.93070       -5.65980
H         -0.66950      -11.39800       -3.55290
