
  xtb     02042214263D
 energy: -281.467004217800 gnorm: 0.000877366208 xtb: 6.4.1 (unknown)
164183  0     0  0            999 V2000
    6.4840    2.5876    1.6214 C   0  0  0  0  0  0  0  0  0  0  0  0
    6.4721    3.8791    1.1667 C   0  0  0  0  0  0  0  0  0  0  0  0
    5.2705    4.6946    0.9896 C   0  0  0  0  0  0  0  0  0  0  0  0
    4.1364    4.4366    1.3615 O   0  0  0  0  0  0  0  0  0  0  0  0
    5.6914    5.8902    0.2354 C   0  0  0  0  0  0  0  0  0  0  0  0
    4.8777    6.9209   -0.2314 C   0  0  0  0  0  0  0  0  0  0  0  0
    5.5490    7.8822   -0.9482 C   0  0  0  0  0  0  0  0  0  0  0  0
    6.9283    7.8220   -1.1861 C   0  0  0  0  0  0  0  0  0  0  0  0
    7.7432    6.8142   -0.7271 C   0  0  0  0  0  0  0  0  0  0  0  0
    7.0819    5.8268    0.0087 C   0  0  0  0  0  0  0  0  0  0  0  0
    7.6020    4.6090    0.6304 C   0  0  0  0  0  0  0  0  0  0  0  0
    8.9228    4.2528    0.7031 C   0  0  0  0  0  0  0  0  0  0  0  0
    9.4279    3.1109    1.3610 C   0  0  0  0  0  0  0  0  0  0  0  0
    9.9332    2.2232    1.8862 N   0  0  0  0  0  0  0  0  0  0  0  0
    9.9827    5.0071    0.1587 C   0  0  0  0  0  0  0  0  0  0  0  0
   10.8928    5.5734   -0.2536 N   0  0  0  0  0  0  0  0  0  0  0  0
    6.9291    9.1051   -1.9795 C   0  0  0  0  0  0  0  0  0  0  0  0
    7.4586   10.3628   -1.2593 C   0  0  0  0  0  0  0  0  0  0  0  0
    6.9015   11.5071   -2.0751 C   0  0  0  0  0  0  0  0  0  0  0  0
    5.5955   11.5659   -1.8485 C   0  0  0  0  0  0  0  0  0  0  0  0
    5.2476   10.4623   -0.8754 C   0  0  0  0  0  0  0  0  0  0  0  0
    6.5328   10.4340   -0.0380 C   0  0  0  0  0  0  0  0  0  0  0  0
    5.3910    9.1737   -1.7124 C   0  0  0  0  0  0  0  0  0  0  0  0
    5.4143    1.7688    1.9988 C   0  0  0  0  0  0  0  0  0  0  0  0
    3.7164    2.1674    2.1326 S   0  0  0  0  0  0  0  0  0  0  0  0
    3.2927    0.4993    2.3613 C   0  0  0  0  0  0  0  0  0  0  0  0
    4.4123   -0.3142    2.3799 C   0  0  0  0  0  0  0  0  0  0  0  0
    5.6035    0.3998    2.2225 C   0  0  0  0  0  0  0  0  0  0  0  0
    6.8251   -0.1809    2.2614 O   0  0  0  0  0  0  0  0  0  0  0  0
    6.7758   -1.4805    2.8223 C   0  0  0  0  0  0  0  0  0  0  0  0
    5.6105   -2.2791    2.2368 C   0  0  0  0  0  0  0  0  0  0  0  0
    4.3690   -1.6691    2.5402 O   0  0  0  0  0  0  0  0  0  0  0  0
    1.9510   -0.0014    2.3061 C   0  0  0  0  0  0  0  0  0  0  0  0
    1.5103   -0.9552    1.4029 C   0  0  0  0  0  0  0  0  0  0  0  0
    2.2413   -1.4582    0.3428 N   0  0  0  0  0  0  0  0  0  0  0  0
    3.1513   -0.6513   -0.3445 C   0  0  0  0  0  0  0  0  0  0  0  0
    2.9017    0.7079   -0.5256 C   0  0  0  0  0  0  0  0  0  0  0  0
    3.8549    1.5379   -1.0796 C   0  0  0  0  0  0  0  0  0  0  0  0
    5.0800    1.0204   -1.4745 C   0  0  0  0  0  0  0  0  0  0  0  0
    6.4202    2.0208   -2.0496 S   0  0  0  0  0  0  0  0  0  0  0  0
    5.6109    3.5723   -2.5341 C   0  0  0  0  0  0  0  0  0  0  0  0
    5.3008   -0.3523   -1.3840 C   0  0  0  0  0  0  0  0  0  0  0  0
    4.3449   -1.1813   -0.8373 C   0  0  0  0  0  0  0  0  0  0  0  0
    1.9869   -2.7792   -0.0653 C   0  0  0  0  0  0  0  0  0  0  0  0
    1.8594   -3.7883    0.8890 C   0  0  0  0  0  0  0  0  0  0  0  0
    1.5432   -5.0702    0.5004 C   0  0  0  0  0  0  0  0  0  0  0  0
    1.3484   -5.3738   -0.8467 C   0  0  0  0  0  0  0  0  0  0  0  0
    0.9386   -7.0453   -1.2217 S   0  0  0  0  0  0  0  0  0  0  0  0
    0.5062   -7.0149   -2.9832 C   0  0  0  0  0  0  0  0  0  0  0  0
    1.5017   -4.3750   -1.8006 C   0  0  0  0  0  0  0  0  0  0  0  0
    1.8197   -3.0886   -1.4109 C   0  0  0  0  0  0  0  0  0  0  0  0
    0.1586   -1.2939    1.6489 C   0  0  0  0  0  0  0  0  0  0  0  0
   -0.9503   -2.3649    0.8770 S   0  0  0  0  0  0  0  0  0  0  0  0
   -2.2098   -1.8767    2.0005 C   0  0  0  0  0  0  0  0  0  0  0  0
   -1.8026   -0.8793    2.8761 C   0  0  0  0  0  0  0  0  0  0  0  0
   -2.6305   -0.1958    3.7441 N   0  0  0  0  0  0  0  0  0  0  0  0
   -2.1075    0.2666    4.9600 C   0  0  0  0  0  0  0  0  0  0  0  0
   -1.1909   -0.5052    5.6676 C   0  0  0  0  0  0  0  0  0  0  0  0
   -0.6472   -0.0457    6.8513 C   0  0  0  0  0  0  0  0  0  0  0  0
   -1.0191    1.1948    7.3502 C   0  0  0  0  0  0  0  0  0  0  0  0
   -0.3965    1.8826    8.8513 S   0  0  0  0  0  0  0  0  0  0  0  0
    0.9967    0.7982    9.2761 C   0  0  0  0  0  0  0  0  0  0  0  0
   -1.9529    1.9616    6.6542 C   0  0  0  0  0  0  0  0  0  0  0  0
   -2.4891    1.5073    5.4711 C   0  0  0  0  0  0  0  0  0  0  0  0
   -3.9787    0.0009    3.4218 C   0  0  0  0  0  0  0  0  0  0  0  0
   -4.9621   -0.0327    4.4100 C   0  0  0  0  0  0  0  0  0  0  0  0
   -6.2964    0.0120    4.0648 C   0  0  0  0  0  0  0  0  0  0  0  0
   -6.6818    0.0903    2.7282 C   0  0  0  0  0  0  0  0  0  0  0  0
   -8.4089    0.0001    2.3745 S   0  0  0  0  0  0  0  0  0  0  0  0
   -8.4453   -0.4538    0.6170 C   0  0  0  0  0  0  0  0  0  0  0  0
   -5.7053    0.2298    1.7508 C   0  0  0  0  0  0  0  0  0  0  0  0
   -4.3702    0.1947    2.0978 C   0  0  0  0  0  0  0  0  0  0  0  0
   -0.4290   -0.5797    2.6809 C   0  0  0  0  0  0  0  0  0  0  0  0
    0.6814    0.5489    3.3846 S   0  0  0  0  0  0  0  0  0  0  0  0
   -3.4907   -2.4868    1.8595 C   0  0  0  0  0  0  0  0  0  0  0  0
   -4.1483   -2.7262    0.2707 S   0  0  0  0  0  0  0  0  0  0  0  0
   -5.6002   -3.4669    0.8954 C   0  0  0  0  0  0  0  0  0  0  0  0
   -5.5425   -3.5065    2.2833 C   0  0  0  0  0  0  0  0  0  0  0  0
   -4.3558   -2.9670    2.8213 C   0  0  0  0  0  0  0  0  0  0  0  0
   -4.0866   -2.9515    4.1551 O   0  0  0  0  0  0  0  0  0  0  0  0
   -5.2204   -3.2812    4.9387 C   0  0  0  0  0  0  0  0  0  0  0  0
   -5.9992   -4.4436    4.3252 C   0  0  0  0  0  0  0  0  0  0  0  0
   -6.4944   -4.0882    3.0453 O   0  0  0  0  0  0  0  0  0  0  0  0
   -6.6778   -3.8661    0.0811 C   0  0  0  0  0  0  0  0  0  0  0  0
   -6.6593   -4.1180   -1.2602 C   0  0  0  0  0  0  0  0  0  0  0  0
   -7.8924   -3.9838   -2.0725 C   0  0  0  0  0  0  0  0  0  0  0  0
   -9.0277   -3.8714   -1.6637 O   0  0  0  0  0  0  0  0  0  0  0  0
   -7.4279   -3.9262   -3.4746 C   0  0  0  0  0  0  0  0  0  0  0  0
   -8.2016   -3.6953   -4.6101 C   0  0  0  0  0  0  0  0  0  0  0  0
   -7.4847   -3.6759   -5.7828 C   0  0  0  0  0  0  0  0  0  0  0  0
   -6.0980   -3.8729   -5.8297 C   0  0  0  0  0  0  0  0  0  0  0  0
   -5.3222   -4.1095   -4.7198 C   0  0  0  0  0  0  0  0  0  0  0  0
   -6.0322   -4.1297   -3.5167 C   0  0  0  0  0  0  0  0  0  0  0  0
   -5.5615   -4.3878   -2.1590 C   0  0  0  0  0  0  0  0  0  0  0  0
   -4.3929   -5.0263   -1.8227 C   0  0  0  0  0  0  0  0  0  0  0  0
   -4.1582   -5.5574   -0.5368 C   0  0  0  0  0  0  0  0  0  0  0  0
   -3.9671   -6.0579    0.4788 N   0  0  0  0  0  0  0  0  0  0  0  0
   -3.3400   -5.2976   -2.7128 C   0  0  0  0  0  0  0  0  0  0  0  0
   -2.4302   -5.5147   -3.3810 N   0  0  0  0  0  0  0  0  0  0  0  0
   -6.0445   -3.7097   -7.3286 C   0  0  0  0  0  0  0  0  0  0  0  0
   -5.5248   -2.3565   -7.8583 C   0  0  0  0  0  0  0  0  0  0  0  0
   -6.0306   -2.3063   -9.2819 C   0  0  0  0  0  0  0  0  0  0  0  0
   -7.3436   -2.1197   -9.2372 C   0  0  0  0  0  0  0  0  0  0  0  0
   -7.7472   -2.0409   -7.7825 C   0  0  0  0  0  0  0  0  0  0  0  0
   -6.4972   -1.3706   -7.1980 C   0  0  0  0  0  0  0  0  0  0  0  0
   -7.5906   -3.4909   -7.2766 C   0  0  0  0  0  0  0  0  0  0  0  0
    7.4290    2.0573    1.6188 H   0  0  0  0  0  0  0  0  0  0  0  0
    3.8171    6.9229   -0.0327 H   0  0  0  0  0  0  0  0  0  0  0  0
    8.8011    6.7794   -0.9256 H   0  0  0  0  0  0  0  0  0  0  0  0
    7.2761    9.0261   -3.0081 H   0  0  0  0  0  0  0  0  0  0  0  0
    8.5298   10.3660   -1.0778 H   0  0  0  0  0  0  0  0  0  0  0  0
    7.4860   12.1005   -2.7534 H   0  0  0  0  0  0  0  0  0  0  0  0
    4.8710   12.2183   -2.2997 H   0  0  0  0  0  0  0  0  0  0  0  0
    4.3047   10.5581   -0.3437 H   0  0  0  0  0  0  0  0  0  0  0  0
    6.6099    9.5765    0.6278 H   0  0  0  0  0  0  0  0  0  0  0  0
    6.6730   11.3512    0.5315 H   0  0  0  0  0  0  0  0  0  0  0  0
    4.7128    9.1416   -2.5634 H   0  0  0  0  0  0  0  0  0  0  0  0
    7.7310   -1.9501    2.5874 H   0  0  0  0  0  0  0  0  0  0  0  0
    6.6582   -1.4038    3.9113 H   0  0  0  0  0  0  0  0  0  0  0  0
    5.7342   -2.3402    1.1487 H   0  0  0  0  0  0  0  0  0  0  0  0
    5.5689   -3.2826    2.6618 H   0  0  0  0  0  0  0  0  0  0  0  0
    1.9588    1.1254   -0.2064 H   0  0  0  0  0  0  0  0  0  0  0  0
    3.6349    2.5890   -1.1705 H   0  0  0  0  0  0  0  0  0  0  0  0
    4.8224    3.3616   -3.2502 H   0  0  0  0  0  0  0  0  0  0  0  0
    5.2199    4.0892   -1.6623 H   0  0  0  0  0  0  0  0  0  0  0  0
    6.3848    4.1765   -2.9979 H   0  0  0  0  0  0  0  0  0  0  0  0
    6.2399   -0.7560   -1.7302 H   0  0  0  0  0  0  0  0  0  0  0  0
    4.5161   -2.2464   -0.7768 H   0  0  0  0  0  0  0  0  0  0  0  0
    2.0112   -3.5516    1.9317 H   0  0  0  0  0  0  0  0  0  0  0  0
    1.4372   -5.8544    1.2339 H   0  0  0  0  0  0  0  0  0  0  0  0
   -0.3207   -6.3296   -3.1480 H   0  0  0  0  0  0  0  0  0  0  0  0
    1.3759   -6.7515   -3.5782 H   0  0  0  0  0  0  0  0  0  0  0  0
    0.1949   -8.0279   -3.2197 H   0  0  0  0  0  0  0  0  0  0  0  0
    1.3597   -4.5828   -2.8484 H   0  0  0  0  0  0  0  0  0  0  0  0
    1.9261   -2.3107   -2.1529 H   0  0  0  0  0  0  0  0  0  0  0  0
   -0.9130   -1.4786    5.2920 H   0  0  0  0  0  0  0  0  0  0  0  0
    0.0568   -0.6702    7.3767 H   0  0  0  0  0  0  0  0  0  0  0  0
    0.6355   -0.1830    9.5706 H   0  0  0  0  0  0  0  0  0  0  0  0
    1.4915    1.2735   10.1173 H   0  0  0  0  0  0  0  0  0  0  0  0
    1.6781    0.7335    8.4331 H   0  0  0  0  0  0  0  0  0  0  0  0
   -2.2405    2.9233    7.0501 H   0  0  0  0  0  0  0  0  0  0  0  0
   -3.1992    2.1132    4.9287 H   0  0  0  0  0  0  0  0  0  0  0  0
   -4.6727   -0.1330    5.4455 H   0  0  0  0  0  0  0  0  0  0  0  0
   -7.0600   -0.0392    4.8267 H   0  0  0  0  0  0  0  0  0  0  0  0
   -8.2151    0.4088   -0.0021 H   0  0  0  0  0  0  0  0  0  0  0  0
   -7.7471   -1.2658    0.4356 H   0  0  0  0  0  0  0  0  0  0  0  0
   -9.4581   -0.7890    0.4166 H   0  0  0  0  0  0  0  0  0  0  0  0
   -5.9718    0.3620    0.7146 H   0  0  0  0  0  0  0  0  0  0  0  0
   -3.6214    0.3037    1.3277 H   0  0  0  0  0  0  0  0  0  0  0  0
   -4.8390   -3.5410    5.9267 H   0  0  0  0  0  0  0  0  0  0  0  0
   -5.8801   -2.4067    5.0101 H   0  0  0  0  0  0  0  0  0  0  0  0
   -5.3459   -5.3203    4.2294 H   0  0  0  0  0  0  0  0  0  0  0  0
   -6.8702   -4.6931    4.9311 H   0  0  0  0  0  0  0  0  0  0  0  0
   -7.6487   -3.8931    0.5658 H   0  0  0  0  0  0  0  0  0  0  0  0
   -9.2686   -3.5558   -4.5354 H   0  0  0  0  0  0  0  0  0  0  0  0
   -4.2553   -4.2577   -4.7615 H   0  0  0  0  0  0  0  0  0  0  0  0
   -5.6576   -4.5615   -7.8846 H   0  0  0  0  0  0  0  0  0  0  0  0
   -4.4616   -2.1877   -7.7102 H   0  0  0  0  0  0  0  0  0  0  0  0
   -5.4104   -2.4626  -10.1449 H   0  0  0  0  0  0  0  0  0  0  0  0
   -8.0390   -2.0889  -10.0553 H   0  0  0  0  0  0  0  0  0  0  0  0
   -8.7089   -1.5836   -7.5658 H   0  0  0  0  0  0  0  0  0  0  0  0
   -6.3655   -0.3541   -7.5656 H   0  0  0  0  0  0  0  0  0  0  0  0
   -6.4601   -1.3723   -6.1101 H   0  0  0  0  0  0  0  0  0  0  0  0
   -8.2342   -4.1959   -7.7994 H   0  0  0  0  0  0  0  0  0  0  0  0
  1  2  2  0  0  0  0
  2  3  1  0  0  0  0
  3  4  2  0  0  0  0
  3  5  1  0  0  0  0
  5  6  2  0  0  0  0
  6  7  1  0  0  0  0
  7  8  2  0  0  0  0
  8  9  1  0  0  0  0
  9 10  2  0  0  0  0
 10 11  1  0  0  0  0
 11 12  2  0  0  0  0
 12 13  1  0  0  0  0
 13 14  3  0  0  0  0
 12 15  1  0  0  0  0
 15 16  3  0  0  0  0
  8 17  1  0  0  0  0
 17 18  1  0  0  0  0
 18 19  1  0  0  0  0
 19 20  2  0  0  0  0
 20 21  1  0  0  0  0
 21 22  1  0  0  0  0
 21 23  1  0  0  0  0
  1 24  1  0  0  0  0
 24 25  1  0  0  0  0
 25 26  1  0  0  0  0
 26 27  2  0  0  0  0
 27 28  1  0  0  0  0
 28 29  1  0  0  0  0
 29 30  1  0  0  0  0
 30 31  1  0  0  0  0
 31 32  1  0  0  0  0
 26 33  1  0  0  0  0
 33 34  2  0  0  0  0
 34 35  1  0  0  0  0
 35 36  1  0  0  0  0
 36 37  2  0  0  0  0
 37 38  1  0  0  0  0
 38 39  2  0  0  0  0
 39 40  1  0  0  0  0
 40 41  1  0  0  0  0
 39 42  1  0  0  0  0
 42 43  2  0  0  0  0
 35 44  1  0  0  0  0
 44 45  2  0  0  0  0
 45 46  1  0  0  0  0
 46 47  2  0  0  0  0
 47 48  1  0  0  0  0
 48 49  1  0  0  0  0
 47 50  1  0  0  0  0
 50 51  2  0  0  0  0
 34 52  1  0  0  0  0
 52 53  1  0  0  0  0
 53 54  1  0  0  0  0
 54 55  2  0  0  0  0
 55 56  1  0  0  0  0
 56 57  1  0  0  0  0
 57 58  2  0  0  0  0
 58 59  1  0  0  0  0
 59 60  2  0  0  0  0
 60 61  1  0  0  0  0
 61 62  1  0  0  0  0
 60 63  1  0  0  0  0
 63 64  2  0  0  0  0
 56 65  1  0  0  0  0
 65 66  2  0  0  0  0
 66 67  1  0  0  0  0
 67 68  2  0  0  0  0
 68 69  1  0  0  0  0
 69 70  1  0  0  0  0
 68 71  1  0  0  0  0
 71 72  2  0  0  0  0
 55 73  1  0  0  0  0
 73 74  1  0  0  0  0
 54 75  1  0  0  0  0
 75 76  1  0  0  0  0
 76 77  1  0  0  0  0
 77 78  2  0  0  0  0
 78 79  1  0  0  0  0
 79 80  1  0  0  0  0
 80 81  1  0  0  0  0
 81 82  1  0  0  0  0
 82 83  1  0  0  0  0
 77 84  1  0  0  0  0
 84 85  2  0  0  0  0
 85 86  1  0  0  0  0
 86 87  2  0  0  0  0
 86 88  1  0  0  0  0
 88 89  2  0  0  0  0
 89 90  1  0  0  0  0
 90 91  2  0  0  0  0
 91 92  1  0  0  0  0
 92 93  2  0  0  0  0
 93 94  1  0  0  0  0
 94 95  2  0  0  0  0
 95 96  1  0  0  0  0
 96 97  3  0  0  0  0
 95 98  1  0  0  0  0
 98 99  3  0  0  0  0
 91100  1  0  0  0  0
100101  1  0  0  0  0
101102  1  0  0  0  0
102103  2  0  0  0  0
103104  1  0  0  0  0
104105  1  0  0  0  0
104106  1  0  0  0  0
 11  2  1  0  0  0  0
 23 17  1  0  0  0  0
 28 24  2  0  0  0  0
 74 33  1  0  0  0  0
 79 75  2  0  0  0  0
 94 85  1  0  0  0  0
106100  1  0  0  0  0
 10  5  1  0  0  0  0
 22 18  1  0  0  0  0
 32 27  1  0  0  0  0
 43 36  1  0  0  0  0
 51 44  1  0  0  0  0
 73 52  2  0  0  0  0
 83 78  1  0  0  0  0
 93 88  1  0  0  0  0
105101  1  0  0  0  0
 23  7  1  0  0  0  0
 64 57  1  0  0  0  0
 72 65  1  0  0  0  0
106 90  1  0  0  0  0
  1107  1  0  0  0  0
  6108  1  0  0  0  0
  9109  1  0  0  0  0
 17110  1  0  0  0  0
 18111  1  0  0  0  0
 19112  1  0  0  0  0
 20113  1  0  0  0  0
 21114  1  0  0  0  0
 22115  1  0  0  0  0
 22116  1  0  0  0  0
 23117  1  0  0  0  0
 30118  1  0  0  0  0
 30119  1  0  0  0  0
 31120  1  0  0  0  0
 31121  1  0  0  0  0
 37122  1  0  0  0  0
 38123  1  0  0  0  0
 41124  1  0  0  0  0
 41125  1  0  0  0  0
 41126  1  0  0  0  0
 42127  1  0  0  0  0
 43128  1  0  0  0  0
 45129  1  0  0  0  0
 46130  1  0  0  0  0
 49131  1  0  0  0  0
 49132  1  0  0  0  0
 49133  1  0  0  0  0
 50134  1  0  0  0  0
 51135  1  0  0  0  0
 58136  1  0  0  0  0
 59137  1  0  0  0  0
 62138  1  0  0  0  0
 62139  1  0  0  0  0
 62140  1  0  0  0  0
 63141  1  0  0  0  0
 64142  1  0  0  0  0
 66143  1  0  0  0  0
 67144  1  0  0  0  0
 70145  1  0  0  0  0
 70146  1  0  0  0  0
 70147  1  0  0  0  0
 71148  1  0  0  0  0
 72149  1  0  0  0  0
 81150  1  0  0  0  0
 81151  1  0  0  0  0
 82152  1  0  0  0  0
 82153  1  0  0  0  0
 84154  1  0  0  0  0
 89155  1  0  0  0  0
 92156  1  0  0  0  0
100157  1  0  0  0  0
101158  1  0  0  0  0
102159  1  0  0  0  0
103160  1  0  0  0  0
104161  1  0  0  0  0
105162  1  0  0  0  0
105163  1  0  0  0  0
106164  1  0  0  0  0
M  END
