
  xtb     02052200083D
 energy: -319.443135930001 gnorm: 0.000412288019 xtb: 6.4.1 (unknown)
194215  0     0  0            999 V2000
    0.8771   -2.2560   -9.3187 C   0  0  0  0  0  0  0  0  0  0  0  0
    0.4631   -3.5639   -9.2475 C   0  0  0  0  0  0  0  0  0  0  0  0
   -0.3892   -4.1165   -8.1924 C   0  0  0  0  0  0  0  0  0  0  0  0
   -0.8866   -3.5132   -7.2541 O   0  0  0  0  0  0  0  0  0  0  0  0
   -0.5746   -5.5399   -8.5099 C   0  0  0  0  0  0  0  0  0  0  0  0
   -1.2855   -6.4807   -7.7686 C   0  0  0  0  0  0  0  0  0  0  0  0
   -1.2560   -7.7477   -8.2998 C   0  0  0  0  0  0  0  0  0  0  0  0
   -0.5716   -8.0557   -9.4824 C   0  0  0  0  0  0  0  0  0  0  0  0
    0.1330   -7.1362  -10.2234 C   0  0  0  0  0  0  0  0  0  0  0  0
    0.1166   -5.8407   -9.7007 C   0  0  0  0  0  0  0  0  0  0  0  0
    0.7686   -4.6233  -10.1819 C   0  0  0  0  0  0  0  0  0  0  0  0
    1.5792   -4.5416  -11.2875 C   0  0  0  0  0  0  0  0  0  0  0  0
    1.8557   -5.6124  -12.1611 C   0  0  0  0  0  0  0  0  0  0  0  0
    2.1290   -6.4288  -12.9215 N   0  0  0  0  0  0  0  0  0  0  0  0
    2.2806   -3.3919  -11.7010 C   0  0  0  0  0  0  0  0  0  0  0  0
    2.9046   -2.5068  -12.0870 N   0  0  0  0  0  0  0  0  0  0  0  0
   -0.9680   -9.5103   -9.4282 C   0  0  0  0  0  0  0  0  0  0  0  0
   -2.1030   -9.9525  -10.3758 C   0  0  0  0  0  0  0  0  0  0  0  0
   -2.5914  -11.2509   -9.7752 C   0  0  0  0  0  0  0  0  0  0  0  0
   -3.2405  -10.9585   -8.6554 C   0  0  0  0  0  0  0  0  0  0  0  0
   -3.2016   -9.4575   -8.4803 C   0  0  0  0  0  0  0  0  0  0  0  0
   -3.2438   -9.0193   -9.9499 C   0  0  0  0  0  0  0  0  0  0  0  0
   -1.7319   -9.1667   -8.1092 C   0  0  0  0  0  0  0  0  0  0  0  0
    0.8328   -1.2673   -8.3283 C   0  0  0  0  0  0  0  0  0  0  0  0
    1.4507   -0.0248   -8.4666 C   0  0  0  0  0  0  0  0  0  0  0  0
    1.5429    0.6911   -7.2877 C   0  0  0  0  0  0  0  0  0  0  0  0
    2.2550    2.3088   -7.2128 S   0  0  0  0  0  0  0  0  0  0  0  0
    0.9323    3.2169   -8.1011 C   0  0  0  0  0  0  0  0  0  0  0  0
   -0.4061    3.1122   -7.4019 C   0  0  0  0  0  0  0  0  0  0  0  0
    1.0400   -0.0029   -6.1815 C   0  0  0  0  0  0  0  0  0  0  0  0
    0.2657   -1.4766   -6.6896 S   0  0  0  0  0  0  0  0  0  0  0  0
    1.1133    0.3716   -4.8224 C   0  0  0  0  0  0  0  0  0  0  0  0
    0.9381   -0.4178   -3.6775 C   0  0  0  0  0  0  0  0  0  0  0  0
    0.8326   -1.7924   -3.5899 N   0  0  0  0  0  0  0  0  0  0  0  0
    1.4980   -2.6748   -4.4398 C   0  0  0  0  0  0  0  0  0  0  0  0
    0.9440   -3.9314   -4.7013 C   0  0  0  0  0  0  0  0  0  0  0  0
    1.4935   -4.7441   -5.6643 C   0  0  0  0  0  0  0  0  0  0  0  0
    2.6004   -4.3214   -6.3981 C   0  0  0  0  0  0  0  0  0  0  0  0
    3.1027   -5.3494   -7.7432 S   0  0  0  0  0  0  0  0  0  0  0  0
    4.1843   -4.2664   -8.7195 C   0  0  0  0  0  0  0  0  0  0  0  0
    3.2236   -3.1268   -6.0628 C   0  0  0  0  0  0  0  0  0  0  0  0
    2.6832   -2.3186   -5.0827 C   0  0  0  0  0  0  0  0  0  0  0  0
    0.1216   -2.2994   -2.4815 C   0  0  0  0  0  0  0  0  0  0  0  0
   -1.1471   -1.8064   -2.1899 C   0  0  0  0  0  0  0  0  0  0  0  0
   -1.7911   -2.1737   -1.0250 C   0  0  0  0  0  0  0  0  0  0  0  0
   -1.1704   -3.0405   -0.1350 C   0  0  0  0  0  0  0  0  0  0  0  0
   -1.8692   -3.4696    1.4273 S   0  0  0  0  0  0  0  0  0  0  0  0
   -2.9354   -2.0458    1.7877 C   0  0  0  0  0  0  0  0  0  0  0  0
    0.0596   -3.6039   -0.4680 C   0  0  0  0  0  0  0  0  0  0  0  0
    0.7016   -3.2392   -1.6307 C   0  0  0  0  0  0  0  0  0  0  0  0
    0.9307    0.3914   -2.5161 C   0  0  0  0  0  0  0  0  0  0  0  0
    0.7090    0.0565   -0.8380 S   0  0  0  0  0  0  0  0  0  0  0  0
    0.9027    1.7575   -0.4378 C   0  0  0  0  0  0  0  0  0  0  0  0
    1.2325    2.5222   -1.5539 C   0  0  0  0  0  0  0  0  0  0  0  0
    1.5987    3.8570   -1.5641 N   0  0  0  0  0  0  0  0  0  0  0  0
    2.5194    4.3798   -0.6520 C   0  0  0  0  0  0  0  0  0  0  0  0
    2.6077    5.7612   -0.4823 C   0  0  0  0  0  0  0  0  0  0  0  0
    3.5313    6.3113    0.3851 C   0  0  0  0  0  0  0  0  0  0  0  0
    4.3671    5.4874    1.1286 C   0  0  0  0  0  0  0  0  0  0  0  0
    5.5784    6.0853    2.2644 S   0  0  0  0  0  0  0  0  0  0  0  0
    5.0045    7.7700    2.6201 C   0  0  0  0  0  0  0  0  0  0  0  0
    4.2789    4.1073    0.9670 C   0  0  0  0  0  0  0  0  0  0  0  0
    3.3750    3.5594    0.0854 C   0  0  0  0  0  0  0  0  0  0  0  0
    1.3127    4.5743   -2.7458 C   0  0  0  0  0  0  0  0  0  0  0  0
    2.3205    5.2064   -3.4660 C   0  0  0  0  0  0  0  0  0  0  0  0
    2.0360    5.8584   -4.6489 C   0  0  0  0  0  0  0  0  0  0  0  0
    0.7343    5.8865   -5.1306 C   0  0  0  0  0  0  0  0  0  0  0  0
    0.2588    6.6567   -6.6455 S   0  0  0  0  0  0  0  0  0  0  0  0
    1.8216    7.2733   -7.3336 C   0  0  0  0  0  0  0  0  0  0  0  0
   -0.2813    5.2686   -4.4026 C   0  0  0  0  0  0  0  0  0  0  0  0
    0.0040    4.6166   -3.2233 C   0  0  0  0  0  0  0  0  0  0  0  0
    1.1858    1.7340   -2.7320 C   0  0  0  0  0  0  0  0  0  0  0  0
    1.4311    2.0634   -4.4124 S   0  0  0  0  0  0  0  0  0  0  0  0
    0.5814    2.1036    0.9034 C   0  0  0  0  0  0  0  0  0  0  0  0
    0.4127    3.3087    1.5293 C   0  0  0  0  0  0  0  0  0  0  0  0
   -0.0760    3.1961    2.8553 C   0  0  0  0  0  0  0  0  0  0  0  0
   -0.4294    4.2307    3.7449 C   0  0  0  0  0  0  0  0  0  0  0  0
   -0.2760    5.6384    3.4337 C   0  0  0  0  0  0  0  0  0  0  0  0
   -1.2002    6.6199    3.6424 C   0  0  0  0  0  0  0  0  0  0  0  0
   -0.7791    7.9292    3.3247 C   0  0  0  0  0  0  0  0  0  0  0  0
    0.4967    8.0433    2.8681 C   0  0  0  0  0  0  0  0  0  0  0  0
    1.2167    9.3087    2.5303 C   0  0  0  0  0  0  0  0  0  0  0  0
    1.8514    9.9269    3.7776 C   0  0  0  0  0  0  0  0  0  0  0  0
    1.3327    6.3635    2.7912 Se  0  0  0  0  0  2  0  0  0  0  0  0
   -0.9430    3.8428    4.9772 C   0  0  0  0  0  0  0  0  0  0  0  0
   -1.1375    2.4909    5.3576 C   0  0  0  0  0  0  0  0  0  0  0  0
   -0.8506    1.4512    4.4412 C   0  0  0  0  0  0  0  0  0  0  0  0
   -1.1816    0.0759    4.7324 C   0  0  0  0  0  0  0  0  0  0  0  0
   -2.2898   -0.3667    5.4066 C   0  0  0  0  0  0  0  0  0  0  0  0
   -2.3933   -1.7627    5.5649 C   0  0  0  0  0  0  0  0  0  0  0  0
   -1.3757   -2.4933    5.0236 C   0  0  0  0  0  0  0  0  0  0  0  0
   -1.2477   -3.9826    5.0267 C   0  0  0  0  0  0  0  0  0  0  0  0
    0.1253   -4.4484    4.5648 C   0  0  0  0  0  0  0  0  0  0  0  0
   -0.1227   -1.3794    4.1839 Se  0  0  0  0  0  2  0  0  0  0  0  0
   -0.2915    1.8472    3.2347 C   0  0  0  0  0  0  0  0  0  0  0  0
    0.1487    0.7612    1.9523 S   0  0  0  0  0  0  0  0  0  0  0  0
   -1.5881    2.3770    6.6851 C   0  0  0  0  0  0  0  0  0  0  0  0
   -1.7834    3.5826    7.3154 C   0  0  0  0  0  0  0  0  0  0  0  0
   -1.3677    4.9274    6.2683 S   0  0  0  0  0  0  0  0  0  0  0  0
   -2.1835    3.8476    8.6463 C   0  0  0  0  0  0  0  0  0  0  0  0
   -2.7964    3.0254    9.5418 C   0  0  0  0  0  0  0  0  0  0  0  0
   -2.7342    3.3577   10.9916 C   0  0  0  0  0  0  0  0  0  0  0  0
   -2.4017    4.4145   11.4784 O   0  0  0  0  0  0  0  0  0  0  0  0
   -3.1101    2.1156   11.6946 C   0  0  0  0  0  0  0  0  0  0  0  0
   -3.1051    1.8905   13.0697 C   0  0  0  0  0  0  0  0  0  0  0  0
   -3.4949    0.6232   13.4312 C   0  0  0  0  0  0  0  0  0  0  0  0
   -3.8580   -0.3560   12.4963 C   0  0  0  0  0  0  0  0  0  0  0  0
   -3.8761   -0.1468   11.1380 C   0  0  0  0  0  0  0  0  0  0  0  0
   -3.4897    1.1392   10.7497 C   0  0  0  0  0  0  0  0  0  0  0  0
   -3.4488    1.7411    9.4192 C   0  0  0  0  0  0  0  0  0  0  0  0
   -4.1334    1.2802    8.3234 C   0  0  0  0  0  0  0  0  0  0  0  0
   -4.7595    0.0219    8.2395 C   0  0  0  0  0  0  0  0  0  0  0  0
   -5.2467   -1.0068    8.0846 N   0  0  0  0  0  0  0  0  0  0  0  0
   -4.3429    2.0515    7.1622 C   0  0  0  0  0  0  0  0  0  0  0  0
   -4.5886    2.6494    6.2132 N   0  0  0  0  0  0  0  0  0  0  0  0
   -4.1231   -1.3900   13.5622 C   0  0  0  0  0  0  0  0  0  0  0  0
   -3.0388   -2.4693   13.7653 C   0  0  0  0  0  0  0  0  0  0  0  0
   -3.3309   -3.0199   15.1426 C   0  0  0  0  0  0  0  0  0  0  0  0
   -2.9914   -2.0921   16.0283 C   0  0  0  0  0  0  0  0  0  0  0  0
   -2.4638   -0.8989   15.2647 C   0  0  0  0  0  0  0  0  0  0  0  0
   -1.8038   -1.6150   14.0793 C   0  0  0  0  0  0  0  0  0  0  0  0
   -3.7225   -0.2972   14.6046 C   0  0  0  0  0  0  0  0  0  0  0  0
    1.3771   -1.9363  -10.2251 H   0  0  0  0  0  0  0  0  0  0  0  0
   -1.7931   -6.2007   -6.8585 H   0  0  0  0  0  0  0  0  0  0  0  0
    0.6582   -7.3922  -11.1281 H   0  0  0  0  0  0  0  0  0  0  0  0
   -0.1473  -10.2236   -9.3843 H   0  0  0  0  0  0  0  0  0  0  0  0
   -1.8357   -9.9701  -11.4288 H   0  0  0  0  0  0  0  0  0  0  0  0
   -2.3736  -12.2203  -10.1835 H   0  0  0  0  0  0  0  0  0  0  0  0
   -3.6732  -11.6348   -7.9416 H   0  0  0  0  0  0  0  0  0  0  0  0
   -3.9361   -9.0242   -7.8067 H   0  0  0  0  0  0  0  0  0  0  0  0
   -3.0333   -7.9626  -10.1040 H   0  0  0  0  0  0  0  0  0  0  0  0
   -4.1869   -9.2767  -10.4293 H   0  0  0  0  0  0  0  0  0  0  0  0
   -1.4214   -9.6530   -7.1861 H   0  0  0  0  0  0  0  0  0  0  0  0
    1.8643    0.3155   -9.3999 H   0  0  0  0  0  0  0  0  0  0  0  0
    0.8897    2.8260   -9.1173 H   0  0  0  0  0  0  0  0  0  0  0  0
    1.2824    4.2468   -8.1254 H   0  0  0  0  0  0  0  0  0  0  0  0
   -0.3175    3.4353   -6.3673 H   0  0  0  0  0  0  0  0  0  0  0  0
   -1.1305    3.7492   -7.9047 H   0  0  0  0  0  0  0  0  0  0  0  0
   -0.7721    2.0873   -7.4174 H   0  0  0  0  0  0  0  0  0  0  0  0
    0.0482   -4.2372   -4.1844 H   0  0  0  0  0  0  0  0  0  0  0  0
    1.0441   -5.6978   -5.8953 H   0  0  0  0  0  0  0  0  0  0  0  0
    4.3636   -4.7900   -9.6539 H   0  0  0  0  0  0  0  0  0  0  0  0
    3.6797   -3.3234   -8.9127 H   0  0  0  0  0  0  0  0  0  0  0  0
    5.1277   -4.1100   -8.2048 H   0  0  0  0  0  0  0  0  0  0  0  0
    4.1203   -2.8050   -6.5676 H   0  0  0  0  0  0  0  0  0  0  0  0
    3.1655   -1.3823   -4.8444 H   0  0  0  0  0  0  0  0  0  0  0  0
   -1.6157   -1.1126   -2.8724 H   0  0  0  0  0  0  0  0  0  0  0  0
   -2.7676   -1.7687   -0.8143 H   0  0  0  0  0  0  0  0  0  0  0  0
   -3.1796   -2.1124    2.8439 H   0  0  0  0  0  0  0  0  0  0  0  0
   -3.8464   -2.0911    1.1981 H   0  0  0  0  0  0  0  0  0  0  0  0
   -2.3809   -1.1320    1.5936 H   0  0  0  0  0  0  0  0  0  0  0  0
    0.5194   -4.3027    0.2134 H   0  0  0  0  0  0  0  0  0  0  0  0
    1.6728   -3.6464   -1.8694 H   0  0  0  0  0  0  0  0  0  0  0  0
    1.9523    6.4110   -1.0432 H   0  0  0  0  0  0  0  0  0  0  0  0
    3.5933    7.3853    0.4663 H   0  0  0  0  0  0  0  0  0  0  0  0
    5.2103    8.4295    1.7817 H   0  0  0  0  0  0  0  0  0  0  0  0
    5.5636    8.0988    3.4904 H   0  0  0  0  0  0  0  0  0  0  0  0
    3.9410    7.7371    2.8472 H   0  0  0  0  0  0  0  0  0  0  0  0
    4.9373    3.4687    1.5355 H   0  0  0  0  0  0  0  0  0  0  0  0
    3.3399    2.4887   -0.0407 H   0  0  0  0  0  0  0  0  0  0  0  0
    3.3372    5.1717   -3.1041 H   0  0  0  0  0  0  0  0  0  0  0  0
    2.8425    6.3257   -5.1893 H   0  0  0  0  0  0  0  0  0  0  0  0
    2.5190    6.4518   -7.4720 H   0  0  0  0  0  0  0  0  0  0  0  0
    1.5657    7.7067   -8.2956 H   0  0  0  0  0  0  0  0  0  0  0  0
    2.2381    8.0386   -6.6852 H   0  0  0  0  0  0  0  0  0  0  0  0
   -1.2937    5.3070   -4.7753 H   0  0  0  0  0  0  0  0  0  0  0  0
   -0.7816    4.1287   -2.6654 H   0  0  0  0  0  0  0  0  0  0  0  0
    0.5918    4.2527    1.0460 H   0  0  0  0  0  0  0  0  0  0  0  0
   -2.1965    6.4040    3.9900 H   0  0  0  0  0  0  0  0  0  0  0  0
   -1.4296    8.7812    3.4333 H   0  0  0  0  0  0  0  0  0  0  0  0
    1.9932    9.1066    1.7872 H   0  0  0  0  0  0  0  0  0  0  0  0
    0.5085   10.0184    2.0959 H   0  0  0  0  0  0  0  0  0  0  0  0
    1.0825   10.1879    4.5004 H   0  0  0  0  0  0  0  0  0  0  0  0
    2.4065   10.8249    3.5172 H   0  0  0  0  0  0  0  0  0  0  0  0
    2.5325    9.2189    4.2467 H   0  0  0  0  0  0  0  0  0  0  0  0
   -3.0670    0.3040    5.7320 H   0  0  0  0  0  0  0  0  0  0  0  0
   -3.2263   -2.2146    6.0788 H   0  0  0  0  0  0  0  0  0  0  0  0
   -1.4550   -4.3534    6.0346 H   0  0  0  0  0  0  0  0  0  0  0  0
   -2.0089   -4.4029    4.3613 H   0  0  0  0  0  0  0  0  0  0  0  0
    0.3016   -4.1111    3.5425 H   0  0  0  0  0  0  0  0  0  0  0  0
    0.9027   -4.0359    5.2076 H   0  0  0  0  0  0  0  0  0  0  0  0
    0.1918   -5.5331    4.5869 H   0  0  0  0  0  0  0  0  0  0  0  0
   -1.6869    1.4329    7.1898 H   0  0  0  0  0  0  0  0  0  0  0  0
   -1.9040    4.8206    9.0389 H   0  0  0  0  0  0  0  0  0  0  0  0
   -2.8216    2.6712   13.7579 H   0  0  0  0  0  0  0  0  0  0  0  0
   -4.1574   -0.9058   10.4263 H   0  0  0  0  0  0  0  0  0  0  0  0
   -5.1341   -1.7919   13.5902 H   0  0  0  0  0  0  0  0  0  0  0  0
   -2.9575   -3.1909   12.9569 H   0  0  0  0  0  0  0  0  0  0  0  0
   -3.7916   -3.9736   15.3221 H   0  0  0  0  0  0  0  0  0  0  0  0
   -3.1117   -2.1159   17.0955 H   0  0  0  0  0  0  0  0  0  0  0  0
   -1.8582   -0.1896   15.8224 H   0  0  0  0  0  0  0  0  0  0  0  0
   -1.5056   -0.9510   13.2700 H   0  0  0  0  0  0  0  0  0  0  0  0
   -0.9522   -2.2199   14.3865 H   0  0  0  0  0  0  0  0  0  0  0  0
   -4.4675    0.0302   15.3273 H   0  0  0  0  0  0  0  0  0  0  0  0
  1  2  2  0  0  0  0
  2  3  1  0  0  0  0
  3  4  2  0  0  0  0
  3  5  1  0  0  0  0
  5  6  2  0  0  0  0
  6  7  1  0  0  0  0
  7  8  2  0  0  0  0
  8  9  1  0  0  0  0
  9 10  2  0  0  0  0
 10 11  1  0  0  0  0
 11 12  2  0  0  0  0
 12 13  1  0  0  0  0
 13 14  3  0  0  0  0
 12 15  1  0  0  0  0
 15 16  3  0  0  0  0
  8 17  1  0  0  0  0
 17 18  1  0  0  0  0
 18 19  1  0  0  0  0
 19 20  2  0  0  0  0
 20 21  1  0  0  0  0
 21 22  1  0  0  0  0
 21 23  1  0  0  0  0
  1 24  1  0  0  0  0
 24 25  2  0  0  0  0
 25 26  1  0  0  0  0
 26 27  1  0  0  0  0
 27 28  1  0  0  0  0
 28 29  1  0  0  0  0
 26 30  2  0  0  0  0
 30 31  1  0  0  0  0
 30 32  1  0  0  0  0
 32 33  2  0  0  0  0
 33 34  1  0  0  0  0
 34 35  1  0  0  0  0
 35 36  2  0  0  0  0
 36 37  1  0  0  0  0
 37 38  2  0  0  0  0
 38 39  1  0  0  0  0
 39 40  1  0  0  0  0
 38 41  1  0  0  0  0
 41 42  2  0  0  0  0
 34 43  1  0  0  0  0
 43 44  2  0  0  0  0
 44 45  1  0  0  0  0
 45 46  2  0  0  0  0
 46 47  1  0  0  0  0
 47 48  1  0  0  0  0
 46 49  1  0  0  0  0
 49 50  2  0  0  0  0
 33 51  1  0  0  0  0
 51 52  1  0  0  0  0
 52 53  1  0  0  0  0
 53 54  2  0  0  0  0
 54 55  1  0  0  0  0
 55 56  1  0  0  0  0
 56 57  2  0  0  0  0
 57 58  1  0  0  0  0
 58 59  2  0  0  0  0
 59 60  1  0  0  0  0
 60 61  1  0  0  0  0
 59 62  1  0  0  0  0
 62 63  2  0  0  0  0
 55 64  1  0  0  0  0
 64 65  2  0  0  0  0
 65 66  1  0  0  0  0
 66 67  2  0  0  0  0
 67 68  1  0  0  0  0
 68 69  1  0  0  0  0
 67 70  1  0  0  0  0
 70 71  2  0  0  0  0
 54 72  1  0  0  0  0
 72 73  1  0  0  0  0
 53 74  1  0  0  0  0
 74 75  2  0  0  0  0
 75 76  1  0  0  0  0
 76 77  2  0  0  0  0
 77 78  1  0  0  0  0
 78 79  2  0  0  0  0
 79 80  1  0  0  0  0
 80 81  2  0  0  0  0
 81 82  1  0  0  0  0
 82 83  1  0  0  0  0
 81 84  1  0  0  0  0
 77 85  1  0  0  0  0
 85 86  2  0  0  0  0
 86 87  1  0  0  0  0
 87 88  1  0  0  0  0
 88 89  2  0  0  0  0
 89 90  1  0  0  0  0
 90 91  2  0  0  0  0
 91 92  1  0  0  0  0
 92 93  1  0  0  0  0
 91 94  1  0  0  0  0
 87 95  2  0  0  0  0
 95 96  1  0  0  0  0
 86 97  1  0  0  0  0
 97 98  2  0  0  0  0
 98 99  1  0  0  0  0
 98100  1  0  0  0  0
100101  2  0  0  0  0
101102  1  0  0  0  0
102103  2  0  0  0  0
102104  1  0  0  0  0
104105  2  0  0  0  0
105106  1  0  0  0  0
106107  2  0  0  0  0
107108  1  0  0  0  0
108109  2  0  0  0  0
109110  1  0  0  0  0
110111  2  0  0  0  0
111112  1  0  0  0  0
112113  3  0  0  0  0
111114  1  0  0  0  0
114115  3  0  0  0  0
107116  1  0  0  0  0
116117  1  0  0  0  0
117118  1  0  0  0  0
118119  2  0  0  0  0
119120  1  0  0  0  0
120121  1  0  0  0  0
120122  1  0  0  0  0
 11  2  1  0  0  0  0
 23 17  1  0  0  0  0
 31 24  1  0  0  0  0
 73 32  1  0  0  0  0
 96 74  1  0  0  0  0
110101  1  0  0  0  0
122116  1  0  0  0  0
 10  5  1  0  0  0  0
 22 18  1  0  0  0  0
 42 35  1  0  0  0  0
 50 43  1  0  0  0  0
 72 51  2  0  0  0  0
 95 76  1  0  0  0  0
109104  1  0  0  0  0
121117  1  0  0  0  0
 23  7  1  0  0  0  0
 63 56  1  0  0  0  0
 71 64  1  0  0  0  0
 84 78  1  0  0  0  0
 99 85  1  0  0  0  0
122106  1  0  0  0  0
 94 88  1  0  0  0  0
  1123  1  0  0  0  0
  6124  1  0  0  0  0
  9125  1  0  0  0  0
 17126  1  0  0  0  0
 18127  1  0  0  0  0
 19128  1  0  0  0  0
 20129  1  0  0  0  0
 21130  1  0  0  0  0
 22131  1  0  0  0  0
 22132  1  0  0  0  0
 23133  1  0  0  0  0
 25134  1  0  0  0  0
 28135  1  0  0  0  0
 28136  1  0  0  0  0
 29137  1  0  0  0  0
 29138  1  0  0  0  0
 29139  1  0  0  0  0
 36140  1  0  0  0  0
 37141  1  0  0  0  0
 40142  1  0  0  0  0
 40143  1  0  0  0  0
 40144  1  0  0  0  0
 41145  1  0  0  0  0
 42146  1  0  0  0  0
 44147  1  0  0  0  0
 45148  1  0  0  0  0
 48149  1  0  0  0  0
 48150  1  0  0  0  0
 48151  1  0  0  0  0
 49152  1  0  0  0  0
 50153  1  0  0  0  0
 57154  1  0  0  0  0
 58155  1  0  0  0  0
 61156  1  0  0  0  0
 61157  1  0  0  0  0
 61158  1  0  0  0  0
 62159  1  0  0  0  0
 63160  1  0  0  0  0
 65161  1  0  0  0  0
 66162  1  0  0  0  0
 69163  1  0  0  0  0
 69164  1  0  0  0  0
 69165  1  0  0  0  0
 70166  1  0  0  0  0
 71167  1  0  0  0  0
 75168  1  0  0  0  0
 79169  1  0  0  0  0
 80170  1  0  0  0  0
 82171  1  0  0  0  0
 82172  1  0  0  0  0
 83173  1  0  0  0  0
 83174  1  0  0  0  0
 83175  1  0  0  0  0
 89176  1  0  0  0  0
 90177  1  0  0  0  0
 92178  1  0  0  0  0
 92179  1  0  0  0  0
 93180  1  0  0  0  0
 93181  1  0  0  0  0
 93182  1  0  0  0  0
 97183  1  0  0  0  0
100184  1  0  0  0  0
105185  1  0  0  0  0
108186  1  0  0  0  0
116187  1  0  0  0  0
117188  1  0  0  0  0
118189  1  0  0  0  0
119190  1  0  0  0  0
120191  1  0  0  0  0
121192  1  0  0  0  0
121193  1  0  0  0  0
122194  1  0  0  0  0
M  END
