
  xtb     02132205563D
 energy: -381.687100087004 gnorm: 0.000532971999 xtb: 6.4.1 (unknown)
222247  0     0  0            999 V2000
    9.9188   -0.8603   -6.6050 C   0  0  0  0  0  0  0  0  0  0  0  0
    9.9743   -1.5116   -7.8021 C   0  0  0  0  0  0  0  0  0  0  0  0
    8.8064   -2.0273   -8.5639 C   0  0  0  0  0  0  0  0  0  0  0  0
    7.6391   -2.0513   -8.2295 O   0  0  0  0  0  0  0  0  0  0  0  0
    9.3306   -2.4154   -9.8836 C   0  0  0  0  0  0  0  0  0  0  0  0
    8.5949   -2.9449  -10.9420 C   0  0  0  0  0  0  0  0  0  0  0  0
    9.3462   -3.2358  -12.0541 C   0  0  0  0  0  0  0  0  0  0  0  0
   10.7272   -3.0015  -12.1164 C   0  0  0  0  0  0  0  0  0  0  0  0
   11.4619   -2.4669  -11.0851 C   0  0  0  0  0  0  0  0  0  0  0  0
   10.7184   -2.1763   -9.9370 C   0  0  0  0  0  0  0  0  0  0  0  0
   11.1457   -1.6303   -8.6527 C   0  0  0  0  0  0  0  0  0  0  0  0
   12.4387   -1.3579   -8.2905 C   0  0  0  0  0  0  0  0  0  0  0  0
   12.8511   -0.9135   -7.0159 C   0  0  0  0  0  0  0  0  0  0  0  0
   13.2734   -0.5684   -6.0054 N   0  0  0  0  0  0  0  0  0  0  0  0
   13.5553   -1.5097   -9.1394 C   0  0  0  0  0  0  0  0  0  0  0  0
   14.5073   -1.6035   -9.7742 N   0  0  0  0  0  0  0  0  0  0  0  0
   10.8354   -3.5442  -13.5192 C   0  0  0  0  0  0  0  0  0  0  0  0
   11.4199   -4.9682  -13.6928 C   0  0  0  0  0  0  0  0  0  0  0  0
   11.1394   -5.7063  -12.4073 C   0  0  0  0  0  0  0  0  0  0  0  0
    9.8335   -5.9300  -12.3453 C   0  0  0  0  0  0  0  0  0  0  0  0
    9.2074   -5.3476  -13.5886 C   0  0  0  0  0  0  0  0  0  0  0  0
   10.3413   -5.5833  -14.5989 C   0  0  0  0  0  0  0  0  0  0  0  0
    9.2980   -3.8076  -13.4480 C   0  0  0  0  0  0  0  0  0  0  0  0
    8.8274   -0.8726   -5.7010 C   0  0  0  0  0  0  0  0  0  0  0  0
    7.8865   -1.8473   -5.4991 C   0  0  0  0  0  0  0  0  0  0  0  0
    6.9381   -1.5281   -4.5074 C   0  0  0  0  0  0  0  0  0  0  0  0
    5.8337   -2.3085   -4.1058 C   0  0  0  0  0  0  0  0  0  0  0  0
    5.4975   -3.5207   -4.8277 C   0  0  0  0  0  0  0  0  0  0  0  0
    5.3925   -3.4770   -6.5628 S   0  0  0  0  0  0  0  0  0  0  0  0
    4.9763   -5.1504   -6.6544 C   0  0  0  0  0  0  0  0  0  0  0  0
    4.7809   -5.8056   -7.9777 C   0  0  0  0  0  0  0  0  0  0  0  0
    6.0460   -5.7012   -8.8307 C   0  0  0  0  0  0  0  0  0  0  0  0
    4.9163   -5.6968   -5.4057 C   0  0  0  0  0  0  0  0  0  0  0  0
    4.5401   -7.3428   -5.0915 Cl  0  0  0  0  0  0  0  0  0  0  0  0
    5.2012   -4.7738   -4.3652 C   0  0  0  0  0  0  0  0  0  0  0  0
    5.2603   -5.2354   -2.7155 Cl  0  0  0  0  0  0  0  0  0  0  0  0
    5.0521   -1.7962   -3.0834 C   0  0  0  0  0  0  0  0  0  0  0  0
    5.2934   -0.5278   -2.4918 C   0  0  0  0  0  0  0  0  0  0  0  0
    6.3635    0.2820   -2.9274 C   0  0  0  0  0  0  0  0  0  0  0  0
    6.5552    1.6412   -2.4631 C   0  0  0  0  0  0  0  0  0  0  0  0
    6.9625    2.7171   -3.2065 C   0  0  0  0  0  0  0  0  0  0  0  0
    7.0097    3.9201   -2.4787 C   0  0  0  0  0  0  0  0  0  0  0  0
    6.6579    3.7775   -1.1714 C   0  0  0  0  0  0  0  0  0  0  0  0
    6.5162    4.8298   -0.1275 C   0  0  0  0  0  0  0  0  0  0  0  0
    5.0549    5.2688   -0.0004 C   0  0  0  0  0  0  0  0  0  0  0  0
    6.2499    2.1330   -0.8197 S   0  0  0  0  0  0  0  0  0  0  0  0
    7.1817   -0.2634   -3.9141 C   0  0  0  0  0  0  0  0  0  0  0  0
    8.6012    0.4798   -4.6020 S   0  0  0  0  0  0  0  0  0  0  0  0
    4.2691   -0.1888   -1.5808 C   0  0  0  0  0  0  0  0  0  0  0  0
    3.2774   -1.1205   -1.4858 C   0  0  0  0  0  0  0  0  0  0  0  0
    3.5937   -2.5255   -2.4733 S   0  0  0  0  0  0  0  0  0  0  0  0
    2.0550   -0.9232   -0.7736 C   0  0  0  0  0  0  0  0  0  0  0  0
    1.3726    0.2849   -0.7115 C   0  0  0  0  0  0  0  0  0  0  0  0
    1.6773    1.3976   -1.4848 N   0  0  0  0  0  0  0  0  0  0  0  0
    1.6089    2.6737   -0.9259 C   0  0  0  0  0  0  0  0  0  0  0  0
    1.2992    3.7793   -1.7142 C   0  0  0  0  0  0  0  0  0  0  0  0
    1.2350    5.0438   -1.1633 C   0  0  0  0  0  0  0  0  0  0  0  0
    1.4606    5.2240    0.1942 C   0  0  0  0  0  0  0  0  0  0  0  0
    1.4312    6.7938    1.0044 S   0  0  0  0  0  0  0  0  0  0  0  0
    0.7833    7.9267   -0.2581 C   0  0  0  0  0  0  0  0  0  0  0  0
    1.7600    4.1212    0.9903 C   0  0  0  0  0  0  0  0  0  0  0  0
    1.8444    2.8631    0.4375 C   0  0  0  0  0  0  0  0  0  0  0  0
    2.1069    1.1829   -2.8055 C   0  0  0  0  0  0  0  0  0  0  0  0
    1.5204    0.1640   -3.5590 C   0  0  0  0  0  0  0  0  0  0  0  0
    2.0430   -0.1898   -4.7797 C   0  0  0  0  0  0  0  0  0  0  0  0
    3.1531    0.4786   -5.2949 C   0  0  0  0  0  0  0  0  0  0  0  0
    3.7934   -0.1442   -6.8171 S   0  0  0  0  0  0  0  0  0  0  0  0
    5.4557    0.5717   -6.9293 C   0  0  0  0  0  0  0  0  0  0  0  0
    3.6739    1.5605   -4.5987 C   0  0  0  0  0  0  0  0  0  0  0  0
    3.1620    1.9021   -3.3599 C   0  0  0  0  0  0  0  0  0  0  0  0
    0.2628    0.1854    0.1585 C   0  0  0  0  0  0  0  0  0  0  0  0
   -0.9473    1.2878    0.7005 S   0  0  0  0  0  0  0  0  0  0  0  0
   -1.7082    0.0228    1.6735 C   0  0  0  0  0  0  0  0  0  0  0  0
   -1.0699   -1.2039    1.5230 C   0  0  0  0  0  0  0  0  0  0  0  0
   -1.4138   -2.4160    2.0981 N   0  0  0  0  0  0  0  0  0  0  0  0
   -2.7070   -2.9359    2.0585 C   0  0  0  0  0  0  0  0  0  0  0  0
   -3.0827   -3.9214    2.9745 C   0  0  0  0  0  0  0  0  0  0  0  0
   -4.3525   -4.4478    2.9478 C   0  0  0  0  0  0  0  0  0  0  0  0
   -5.2876   -3.9934    2.0213 C   0  0  0  0  0  0  0  0  0  0  0  0
   -6.8960   -4.7230    2.0676 S   0  0  0  0  0  0  0  0  0  0  0  0
   -7.9409   -3.4385    1.3226 C   0  0  0  0  0  0  0  0  0  0  0  0
   -4.9190   -3.0205    1.1038 C   0  0  0  0  0  0  0  0  0  0  0  0
   -3.6399   -2.5009    1.1192 C   0  0  0  0  0  0  0  0  0  0  0  0
   -0.3362   -3.2447    2.4734 C   0  0  0  0  0  0  0  0  0  0  0  0
    0.6894   -2.7189    3.2586 C   0  0  0  0  0  0  0  0  0  0  0  0
    1.7821   -3.4919    3.5796 C   0  0  0  0  0  0  0  0  0  0  0  0
    1.8728   -4.8074    3.1277 C   0  0  0  0  0  0  0  0  0  0  0  0
    3.3250   -5.6981    3.5833 S   0  0  0  0  0  0  0  0  0  0  0  0
    3.2504   -7.1990    2.5647 C   0  0  0  0  0  0  0  0  0  0  0  0
    0.8408   -5.3413    2.3666 C   0  0  0  0  0  0  0  0  0  0  0  0
   -0.2520   -4.5633    2.0391 C   0  0  0  0  0  0  0  0  0  0  0  0
    0.0706   -1.0799    0.6867 C   0  0  0  0  0  0  0  0  0  0  0  0
    1.2681   -2.1990    0.1281 S   0  0  0  0  0  0  0  0  0  0  0  0
   -2.7704    0.4455    2.5182 C   0  0  0  0  0  0  0  0  0  0  0  0
   -3.1640    1.7516    2.6680 C   0  0  0  0  0  0  0  0  0  0  0  0
   -4.1742    1.9412    3.6302 C   0  0  0  0  0  0  0  0  0  0  0  0
   -4.7567    3.1550    4.0447 C   0  0  0  0  0  0  0  0  0  0  0  0
   -4.3267    4.4259    3.4861 C   0  0  0  0  0  0  0  0  0  0  0  0
   -2.6480    4.8890    3.4820 S   0  0  0  0  0  0  0  0  0  0  0  0
   -2.9865    6.4111    2.7319 C   0  0  0  0  0  0  0  0  0  0  0  0
   -1.9015    7.3923    2.4623 C   0  0  0  0  0  0  0  0  0  0  0  0
   -1.5647    8.2017    3.7162 C   0  0  0  0  0  0  0  0  0  0  0  0
   -4.3242    6.5396    2.5087 C   0  0  0  0  0  0  0  0  0  0  0  0
   -5.0429    7.9134    1.7725 Cl  0  0  0  0  0  0  0  0  0  0  0  0
   -5.0870    5.4172    2.9308 C   0  0  0  0  0  0  0  0  0  0  0  0
   -6.7788    5.3101    2.6756 Cl  0  0  0  0  0  0  0  0  0  0  0  0
   -5.7345    3.0755    5.0256 C   0  0  0  0  0  0  0  0  0  0  0  0
   -6.1740    1.8423    5.5817 C   0  0  0  0  0  0  0  0  0  0  0  0
   -5.5957    0.6228    5.1588 C   0  0  0  0  0  0  0  0  0  0  0  0
   -6.0314   -0.6433    5.7065 C   0  0  0  0  0  0  0  0  0  0  0  0
   -6.3339   -0.9639    7.0012 C   0  0  0  0  0  0  0  0  0  0  0  0
   -6.7571   -2.2973    7.1556 C   0  0  0  0  0  0  0  0  0  0  0  0
   -6.7901   -2.9998    5.9889 C   0  0  0  0  0  0  0  0  0  0  0  0
   -7.2640   -4.3933    5.7647 C   0  0  0  0  0  0  0  0  0  0  0  0
   -8.7404   -4.4084    5.3617 C   0  0  0  0  0  0  0  0  0  0  0  0
   -6.2718   -2.0185    4.6605 S   0  0  0  0  0  0  0  0  0  0  0  0
   -4.5976    0.7149    4.1999 C   0  0  0  0  0  0  0  0  0  0  0  0
   -3.6735   -0.6243    3.5681 S   0  0  0  0  0  0  0  0  0  0  0  0
   -7.1845    2.0255    6.5434 C   0  0  0  0  0  0  0  0  0  0  0  0
   -7.4866    3.3422    6.7905 C   0  0  0  0  0  0  0  0  0  0  0  0
   -6.5485    4.4206    5.7586 S   0  0  0  0  0  0  0  0  0  0  0  0
   -8.4256    3.9372    7.6626 C   0  0  0  0  0  0  0  0  0  0  0  0
   -9.0560    3.4103    8.7544 C   0  0  0  0  0  0  0  0  0  0  0  0
   -8.7262    2.1575    9.4759 C   0  0  0  0  0  0  0  0  0  0  0  0
   -7.9794    1.2603    9.1406 O   0  0  0  0  0  0  0  0  0  0  0  0
   -9.4595    2.2261   10.7531 C   0  0  0  0  0  0  0  0  0  0  0  0
   -9.4097    1.2949   11.7882 C   0  0  0  0  0  0  0  0  0  0  0  0
  -10.1994    1.6136   12.8659 C   0  0  0  0  0  0  0  0  0  0  0  0
  -10.9743    2.7805   12.9165 C   0  0  0  0  0  0  0  0  0  0  0  0
  -11.0290    3.7091   11.9048 C   0  0  0  0  0  0  0  0  0  0  0  0
  -10.2408    3.3972   10.7930 C   0  0  0  0  0  0  0  0  0  0  0  0
  -10.0554    4.1181    9.5378 C   0  0  0  0  0  0  0  0  0  0  0  0
  -10.7692    5.2183    9.1406 C   0  0  0  0  0  0  0  0  0  0  0  0
  -11.7498    5.8583    9.9271 C   0  0  0  0  0  0  0  0  0  0  0  0
  -12.5552    6.4317   10.5112 N   0  0  0  0  0  0  0  0  0  0  0  0
  -10.6741    5.8462    7.8797 C   0  0  0  0  0  0  0  0  0  0  0  0
  -10.6852    6.4028    6.8753 N   0  0  0  0  0  0  0  0  0  0  0  0
  -11.5173    2.4557   14.2853 C   0  0  0  0  0  0  0  0  0  0  0  0
  -12.9632    1.9076   14.3730 C   0  0  0  0  0  0  0  0  0  0  0  0
  -13.2446    1.2278   13.0560 C   0  0  0  0  0  0  0  0  0  0  0  0
  -12.5139    0.1220   13.0069 C   0  0  0  0  0  0  0  0  0  0  0  0
  -11.7247    0.0344   14.2899 C   0  0  0  0  0  0  0  0  0  0  0  0
  -12.7218    0.6797   15.2654 C   0  0  0  0  0  0  0  0  0  0  0  0
  -10.6564    1.1545   14.2278 C   0  0  0  0  0  0  0  0  0  0  0  0
   10.7604   -0.2475   -6.3061 H   0  0  0  0  0  0  0  0  0  0  0  0
    7.5314   -3.1031  -10.8534 H   0  0  0  0  0  0  0  0  0  0  0  0
   12.5212   -2.2847  -11.1533 H   0  0  0  0  0  0  0  0  0  0  0  0
   11.2005   -2.8504  -14.2735 H   0  0  0  0  0  0  0  0  0  0  0  0
   12.4467   -4.9940  -14.0468 H   0  0  0  0  0  0  0  0  0  0  0  0
   11.8886   -5.9320  -11.6713 H   0  0  0  0  0  0  0  0  0  0  0  0
    9.2729   -6.3789  -11.5462 H   0  0  0  0  0  0  0  0  0  0  0  0
    8.2198   -5.7197  -13.8483 H   0  0  0  0  0  0  0  0  0  0  0  0
   10.5132   -6.6395  -14.8000 H   0  0  0  0  0  0  0  0  0  0  0  0
   10.2051   -5.0474  -15.5371 H   0  0  0  0  0  0  0  0  0  0  0  0
    8.6572   -3.2875  -14.1572 H   0  0  0  0  0  0  0  0  0  0  0  0
    7.9046   -2.7855   -6.0181 H   0  0  0  0  0  0  0  0  0  0  0  0
    4.5186   -6.8524   -7.8163 H   0  0  0  0  0  0  0  0  0  0  0  0
    3.9544   -5.3197   -8.5027 H   0  0  0  0  0  0  0  0  0  0  0  0
    6.3215   -4.6571   -8.9613 H   0  0  0  0  0  0  0  0  0  0  0  0
    6.8720   -6.2184   -8.3477 H   0  0  0  0  0  0  0  0  0  0  0  0
    5.8791   -6.1481   -9.8074 H   0  0  0  0  0  0  0  0  0  0  0  0
    7.1880    2.6628   -4.2561 H   0  0  0  0  0  0  0  0  0  0  0  0
    7.2973    4.8617   -2.9118 H   0  0  0  0  0  0  0  0  0  0  0  0
    7.1357    5.6866   -0.4002 H   0  0  0  0  0  0  0  0  0  0  0  0
    6.8607    4.4470    0.8354 H   0  0  0  0  0  0  0  0  0  0  0  0
    4.4289    4.4264    0.2860 H   0  0  0  0  0  0  0  0  0  0  0  0
    4.9545    6.0447    0.7537 H   0  0  0  0  0  0  0  0  0  0  0  0
    4.6914    5.6572   -0.9496 H   0  0  0  0  0  0  0  0  0  0  0  0
    4.2489    0.7166   -1.0056 H   0  0  0  0  0  0  0  0  0  0  0  0
    1.1053    3.6443   -2.7677 H   0  0  0  0  0  0  0  0  0  0  0  0
    1.0010    5.8775   -1.8053 H   0  0  0  0  0  0  0  0  0  0  0  0
    0.6536    8.8805    0.2435 H   0  0  0  0  0  0  0  0  0  0  0  0
   -0.1748    7.5658   -0.6201 H   0  0  0  0  0  0  0  0  0  0  0  0
    1.4984    8.0331   -1.0686 H   0  0  0  0  0  0  0  0  0  0  0  0
    1.9386    4.2666    2.0445 H   0  0  0  0  0  0  0  0  0  0  0  0
    2.1047    2.0198    1.0595 H   0  0  0  0  0  0  0  0  0  0  0  0
    0.6719   -0.3724   -3.1612 H   0  0  0  0  0  0  0  0  0  0  0  0
    1.6114   -1.0009   -5.3453 H   0  0  0  0  0  0  0  0  0  0  0  0
    5.4097    1.5676   -7.3617 H   0  0  0  0  0  0  0  0  0  0  0  0
    5.8985    0.5938   -5.9401 H   0  0  0  0  0  0  0  0  0  0  0  0
    6.0230   -0.0963   -7.5717 H   0  0  0  0  0  0  0  0  0  0  0  0
    4.4975    2.1316   -4.9966 H   0  0  0  0  0  0  0  0  0  0  0  0
    3.6053    2.7181   -2.8081 H   0  0  0  0  0  0  0  0  0  0  0  0
   -2.3739   -4.2591    3.7148 H   0  0  0  0  0  0  0  0  0  0  0  0
   -4.6363   -5.2119    3.6549 H   0  0  0  0  0  0  0  0  0  0  0  0
   -7.7013   -2.4811    1.7755 H   0  0  0  0  0  0  0  0  0  0  0  0
   -7.8033   -3.4124    0.2455 H   0  0  0  0  0  0  0  0  0  0  0  0
   -8.9650   -3.7171    1.5511 H   0  0  0  0  0  0  0  0  0  0  0  0
   -5.6170   -2.6645    0.3630 H   0  0  0  0  0  0  0  0  0  0  0  0
   -3.3619   -1.7523    0.3921 H   0  0  0  0  0  0  0  0  0  0  0  0
    0.6234   -1.6977    3.6043 H   0  0  0  0  0  0  0  0  0  0  0  0
    2.5814   -3.0871    4.1810 H   0  0  0  0  0  0  0  0  0  0  0  0
    2.4311   -7.8344    2.8885 H   0  0  0  0  0  0  0  0  0  0  0  0
    4.1952   -7.7088    2.7266 H   0  0  0  0  0  0  0  0  0  0  0  0
    3.1519   -6.9254    1.5185 H   0  0  0  0  0  0  0  0  0  0  0  0
    0.8795   -6.3578    2.0107 H   0  0  0  0  0  0  0  0  0  0  0  0
   -1.0422   -4.9770    1.4304 H   0  0  0  0  0  0  0  0  0  0  0  0
   -2.7239    2.5531    2.1031 H   0  0  0  0  0  0  0  0  0  0  0  0
   -1.0073    6.8612    2.1321 H   0  0  0  0  0  0  0  0  0  0  0  0
   -2.2303    8.0661    1.6688 H   0  0  0  0  0  0  0  0  0  0  0  0
   -0.7613    8.9012    3.5017 H   0  0  0  0  0  0  0  0  0  0  0  0
   -2.4349    8.7590    4.0538 H   0  0  0  0  0  0  0  0  0  0  0  0
   -1.2433    7.5385    4.5154 H   0  0  0  0  0  0  0  0  0  0  0  0
   -6.2306   -0.2790    7.8232 H   0  0  0  0  0  0  0  0  0  0  0  0
   -7.0310   -2.7222    8.1049 H   0  0  0  0  0  0  0  0  0  0  0  0
   -6.6800   -4.8610    4.9709 H   0  0  0  0  0  0  0  0  0  0  0  0
   -7.1294   -4.9673    6.6840 H   0  0  0  0  0  0  0  0  0  0  0  0
   -9.0734   -5.4298    5.1982 H   0  0  0  0  0  0  0  0  0  0  0  0
   -8.8801   -3.8476    4.4410 H   0  0  0  0  0  0  0  0  0  0  0  0
   -9.3529   -3.9578    6.1394 H   0  0  0  0  0  0  0  0  0  0  0  0
   -7.6939    1.2153    7.0264 H   0  0  0  0  0  0  0  0  0  0  0  0
   -8.6289    4.9776    7.4356 H   0  0  0  0  0  0  0  0  0  0  0  0
   -8.7940    0.4124   11.7095 H   0  0  0  0  0  0  0  0  0  0  0  0
  -11.6235    4.6053   11.9632 H   0  0  0  0  0  0  0  0  0  0  0  0
  -11.2988    3.1778   15.0695 H   0  0  0  0  0  0  0  0  0  0  0  0
  -13.7010    2.6325   14.7059 H   0  0  0  0  0  0  0  0  0  0  0  0
  -13.8821    1.6381   12.2949 H   0  0  0  0  0  0  0  0  0  0  0  0
  -12.4187   -0.5764   12.1962 H   0  0  0  0  0  0  0  0  0  0  0  0
  -11.3353   -0.9469   14.5482 H   0  0  0  0  0  0  0  0  0  0  0  0
  -12.2855    0.9252   16.2328 H   0  0  0  0  0  0  0  0  0  0  0  0
  -13.6193    0.0799   15.4082 H   0  0  0  0  0  0  0  0  0  0  0  0
   -9.8762    1.0255   14.9756 H   0  0  0  0  0  0  0  0  0  0  0  0
  1  2  2  0  0  0  0
  2  3  1  0  0  0  0
  3  4  2  0  0  0  0
  3  5  1  0  0  0  0
  5  6  2  0  0  0  0
  6  7  1  0  0  0  0
  7  8  2  0  0  0  0
  8  9  1  0  0  0  0
  9 10  2  0  0  0  0
 10 11  1  0  0  0  0
 11 12  2  0  0  0  0
 12 13  1  0  0  0  0
 13 14  3  0  0  0  0
 12 15  1  0  0  0  0
 15 16  3  0  0  0  0
  8 17  1  0  0  0  0
 17 18  1  0  0  0  0
 18 19  1  0  0  0  0
 19 20  2  0  0  0  0
 20 21  1  0  0  0  0
 21 22  1  0  0  0  0
 21 23  1  0  0  0  0
  1 24  1  0  0  0  0
 24 25  2  0  0  0  0
 25 26  1  0  0  0  0
 26 27  2  0  0  0  0
 27 28  1  0  0  0  0
 28 29  1  0  0  0  0
 29 30  1  0  0  0  0
 30 31  1  0  0  0  0
 31 32  1  0  0  0  0
 30 33  2  0  0  0  0
 33 34  1  0  0  0  0
 33 35  1  0  0  0  0
 35 36  1  0  0  0  0
 27 37  1  0  0  0  0
 37 38  2  0  0  0  0
 38 39  1  0  0  0  0
 39 40  1  0  0  0  0
 40 41  2  0  0  0  0
 41 42  1  0  0  0  0
 42 43  2  0  0  0  0
 43 44  1  0  0  0  0
 44 45  1  0  0  0  0
 43 46  1  0  0  0  0
 39 47  2  0  0  0  0
 47 48  1  0  0  0  0
 38 49  1  0  0  0  0
 49 50  2  0  0  0  0
 50 51  1  0  0  0  0
 50 52  1  0  0  0  0
 52 53  2  0  0  0  0
 53 54  1  0  0  0  0
 54 55  1  0  0  0  0
 55 56  2  0  0  0  0
 56 57  1  0  0  0  0
 57 58  2  0  0  0  0
 58 59  1  0  0  0  0
 59 60  1  0  0  0  0
 58 61  1  0  0  0  0
 61 62  2  0  0  0  0
 54 63  1  0  0  0  0
 63 64  2  0  0  0  0
 64 65  1  0  0  0  0
 65 66  2  0  0  0  0
 66 67  1  0  0  0  0
 67 68  1  0  0  0  0
 66 69  1  0  0  0  0
 69 70  2  0  0  0  0
 53 71  1  0  0  0  0
 71 72  1  0  0  0  0
 72 73  1  0  0  0  0
 73 74  2  0  0  0  0
 74 75  1  0  0  0  0
 75 76  1  0  0  0  0
 76 77  2  0  0  0  0
 77 78  1  0  0  0  0
 78 79  2  0  0  0  0
 79 80  1  0  0  0  0
 80 81  1  0  0  0  0
 79 82  1  0  0  0  0
 82 83  2  0  0  0  0
 75 84  1  0  0  0  0
 84 85  2  0  0  0  0
 85 86  1  0  0  0  0
 86 87  2  0  0  0  0
 87 88  1  0  0  0  0
 88 89  1  0  0  0  0
 87 90  1  0  0  0  0
 90 91  2  0  0  0  0
 74 92  1  0  0  0  0
 92 93  1  0  0  0  0
 73 94  1  0  0  0  0
 94 95  2  0  0  0  0
 95 96  1  0  0  0  0
 96 97  2  0  0  0  0
 97 98  1  0  0  0  0
 98 99  1  0  0  0  0
 99100  1  0  0  0  0
100101  1  0  0  0  0
101102  1  0  0  0  0
100103  2  0  0  0  0
103104  1  0  0  0  0
103105  1  0  0  0  0
105106  1  0  0  0  0
 97107  1  0  0  0  0
107108  2  0  0  0  0
108109  1  0  0  0  0
109110  1  0  0  0  0
110111  2  0  0  0  0
111112  1  0  0  0  0
112113  2  0  0  0  0
113114  1  0  0  0  0
114115  1  0  0  0  0
113116  1  0  0  0  0
109117  2  0  0  0  0
117118  1  0  0  0  0
108119  1  0  0  0  0
119120  2  0  0  0  0
120121  1  0  0  0  0
120122  1  0  0  0  0
122123  2  0  0  0  0
123124  1  0  0  0  0
124125  2  0  0  0  0
124126  1  0  0  0  0
126127  2  0  0  0  0
127128  1  0  0  0  0
128129  2  0  0  0  0
129130  1  0  0  0  0
130131  2  0  0  0  0
131132  1  0  0  0  0
132133  2  0  0  0  0
133134  1  0  0  0  0
134135  3  0  0  0  0
133136  1  0  0  0  0
136137  3  0  0  0  0
129138  1  0  0  0  0
138139  1  0  0  0  0
139140  1  0  0  0  0
140141  2  0  0  0  0
141142  1  0  0  0  0
142143  1  0  0  0  0
142144  1  0  0  0  0
 11  2  1  0  0  0  0
 23 17  1  0  0  0  0
 48 24  1  0  0  0  0
 93 52  1  0  0  0  0
118 94  1  0  0  0  0
132123  1  0  0  0  0
144138  1  0  0  0  0
 10  5  1  0  0  0  0
 22 18  1  0  0  0  0
 47 26  1  0  0  0  0
 62 55  1  0  0  0  0
 70 63  1  0  0  0  0
 92 71  2  0  0  0  0
117 96  1  0  0  0  0
131126  1  0  0  0  0
143139  1  0  0  0  0
 23  7  1  0  0  0  0
 35 28  2  0  0  0  0
 51 37  1  0  0  0  0
 83 76  1  0  0  0  0
 91 84  1  0  0  0  0
105 98  2  0  0  0  0
121107  1  0  0  0  0
144128  1  0  0  0  0
 46 40  1  0  0  0  0
116110  1  0  0  0  0
  1145  1  0  0  0  0
  6146  1  0  0  0  0
  9147  1  0  0  0  0
 17148  1  0  0  0  0
 18149  1  0  0  0  0
 19150  1  0  0  0  0
 20151  1  0  0  0  0
 21152  1  0  0  0  0
 22153  1  0  0  0  0
 22154  1  0  0  0  0
 23155  1  0  0  0  0
 25156  1  0  0  0  0
 31157  1  0  0  0  0
 31158  1  0  0  0  0
 32159  1  0  0  0  0
 32160  1  0  0  0  0
 32161  1  0  0  0  0
 41162  1  0  0  0  0
 42163  1  0  0  0  0
 44164  1  0  0  0  0
 44165  1  0  0  0  0
 45166  1  0  0  0  0
 45167  1  0  0  0  0
 45168  1  0  0  0  0
 49169  1  0  0  0  0
 56170  1  0  0  0  0
 57171  1  0  0  0  0
 60172  1  0  0  0  0
 60173  1  0  0  0  0
 60174  1  0  0  0  0
 61175  1  0  0  0  0
 62176  1  0  0  0  0
 64177  1  0  0  0  0
 65178  1  0  0  0  0
 68179  1  0  0  0  0
 68180  1  0  0  0  0
 68181  1  0  0  0  0
 69182  1  0  0  0  0
 70183  1  0  0  0  0
 77184  1  0  0  0  0
 78185  1  0  0  0  0
 81186  1  0  0  0  0
 81187  1  0  0  0  0
 81188  1  0  0  0  0
 82189  1  0  0  0  0
 83190  1  0  0  0  0
 85191  1  0  0  0  0
 86192  1  0  0  0  0
 89193  1  0  0  0  0
 89194  1  0  0  0  0
 89195  1  0  0  0  0
 90196  1  0  0  0  0
 91197  1  0  0  0  0
 95198  1  0  0  0  0
101199  1  0  0  0  0
101200  1  0  0  0  0
102201  1  0  0  0  0
102202  1  0  0  0  0
102203  1  0  0  0  0
111204  1  0  0  0  0
112205  1  0  0  0  0
114206  1  0  0  0  0
114207  1  0  0  0  0
115208  1  0  0  0  0
115209  1  0  0  0  0
115210  1  0  0  0  0
119211  1  0  0  0  0
122212  1  0  0  0  0
127213  1  0  0  0  0
130214  1  0  0  0  0
138215  1  0  0  0  0
139216  1  0  0  0  0
140217  1  0  0  0  0
141218  1  0  0  0  0
142219  1  0  0  0  0
143220  1  0  0  0  0
143221  1  0  0  0  0
144222  1  0  0  0  0
M  END
