132

C          7.16130       -2.66450       -5.64320
C          6.69470       -1.95560       -6.69700
C          5.52760       -1.02700       -6.62520
O          4.92840       -0.65780       -5.63970
C          5.17180       -0.73330       -8.02270
C          4.10800        0.05760       -8.45410
C          3.99200        0.14050       -9.81960
C          4.86320       -0.52260      -10.69610
C          5.91900       -1.30030      -10.28460
C          6.06120       -1.39330       -8.89500
C          7.04750       -2.11520       -8.09950
C          8.15700       -2.75900       -8.57450
C          8.49430       -2.86510       -9.94040
N          8.81940       -2.99050      -11.03410
C          9.13210       -3.37630       -7.76080
N          9.97120       -3.88660       -7.16690
C          4.14090       -0.01730      -11.92060
C          3.20240       -1.01690      -12.62990
C          2.29720       -0.13580      -13.46060
C          1.47740        0.49710      -12.63120
C          1.81480        0.05480      -11.22580
C          2.23620       -1.39470      -11.49940
C          3.17540        0.72690      -10.94320
C          6.76600       -2.40700       -4.27920
C          6.28570       -3.45970       -3.47440
N          6.19980       -4.77650       -3.70760
N          5.60130       -5.24960       -2.64890
C          5.38340       -6.65650       -2.47190
C          6.49600       -7.25930       -1.61970
N          5.25770       -4.38960       -1.73420
C          5.67970       -3.21060       -2.20940
C          5.55180       -1.90640       -1.68150
C          6.19950       -0.91450       -2.41310
C          6.77290       -1.15580       -3.67620
Cl         7.55120        0.15030       -4.47650
Cl         6.33140        0.68300       -1.78580
C          4.71710       -1.67620       -0.53120
C          3.95650       -0.57310       -0.27350
C          3.09530       -0.71910        0.83970
C          2.15130        0.19990        1.31500
C          2.00970        1.57010        0.72550
C          3.10110        2.50140        1.25700
C          1.37110       -0.22090        2.37430
C          1.50490       -1.49340        2.98920
C          2.47030       -2.40180        2.52920
C          2.67960       -3.73480        3.18140
C          3.52250       -3.58820        4.44990
C          3.23540       -1.99150        1.45320
S          4.42990       -2.95950        0.62270
C          0.54570       -1.67840        4.01780
C         -0.30080       -0.62020        4.17670
S          0.06490        0.69100        3.07750
C         -1.45150       -0.47510        5.03310
C         -2.53570        0.31540        4.58580
N         -2.71930        0.95580        3.42250
N         -3.91240        1.46360        3.51890
C         -4.47130        2.26730        2.46980
C         -4.67150        3.69920        2.95260
N         -4.56290        1.23250        4.62470
C         -3.71210        0.50400        5.35900
C         -3.85300       -0.07070        6.64080
C         -2.79470       -0.86930        7.05320
C         -1.62630       -1.05630        6.28370
Cl        -0.36980       -2.00470        6.98200
Cl        -2.88730       -1.60970        8.60580
C         -5.06870        0.10810        7.39180
C         -5.75980        1.27070        7.40070
C         -5.22080        2.58040        6.93030
O         -4.06120        2.88420        6.76510
C         -6.38990        3.47130        6.83060
C         -6.41560        4.75960        6.30080
C         -7.66350        5.33250        6.28240
C         -8.80410        4.67880        6.77070
C         -8.78760        3.42300        7.32770
C         -7.52670        2.81690        7.34810
C         -7.13380        1.49430        7.82620
C         -7.92090        0.63130        8.53720
C         -7.50950       -0.63350        9.01130
N         -7.24980       -1.67090        9.42810
C         -9.24940        0.90280        8.92920
N        -10.33100        1.06040        9.28000
C         -9.71460        5.82110        6.39630
C        -10.57770        5.66000        5.11960
C         -9.83780        4.70570        4.21540
C         -8.75990        5.33090        3.76110
C         -8.75050        6.71920        4.35170
C        -10.26110        6.99310        4.42270
C         -8.44320        6.55220        5.86080
H          7.78440       -3.53610       -5.79560
H          3.46020        0.54680       -7.74370
H          6.58090       -1.80360      -10.96960
H          4.73760        0.57150      -12.61450
H          3.70820       -1.82630      -13.14890
H          2.38030       -0.02560      -14.52580
H          0.73920        1.24180      -12.86470
H          1.05750        0.22180      -10.46450
H          1.40660       -2.00410      -11.85410
H          2.71250       -1.88610      -10.65290
H          3.13050        1.81350      -10.98200
H          5.36620       -7.10960       -3.46430
H          4.41750       -6.78350       -1.97900
H          6.52270       -6.77480       -0.64690
H          7.45850       -7.12660       -2.10760
H          6.31820       -8.32150       -1.47950
H          3.96020        0.29880       -0.89900
H          1.03030        1.97180        0.99360
H          2.07280        1.51720       -0.36270
H          2.99010        3.49490        0.82980
H          3.03290        2.57930        2.33940
H          4.08680        2.12030        1.00060
H          3.19410       -4.39580        2.48080
H          1.71680       -4.18330        3.43290
H          4.49310       -3.16180        4.20780
H          3.02770       -2.93410        5.16390
H          3.67620       -4.55880        4.91500
H          0.45640       -2.58900        4.57950
H         -3.76920        2.22190        1.63590
H         -5.43020        1.83270        2.17380
H         -5.35310        3.70950        3.79950
H         -3.72210        4.12790        3.26350
H         -5.08570        4.30510        2.15150
H         -5.44550       -0.76460        7.90940
H         -5.51380        5.22800        5.93810
H         -9.67140        2.93710        7.70650
H        -10.26550        6.28330        7.21260
H        -11.62240        5.42880        5.30820
H        -10.13490        3.68680        4.04870
H         -7.97670        4.93900        3.13860
H         -8.13160        7.45370        3.84300
H        -10.51620        7.86660        5.02060
H        -10.72110        7.07360        3.43890
H         -8.15750        7.48970        6.33340
