220

C         -5.45250       -5.56250       -5.43050
C         -5.04500       -5.23530       -6.70020
C         -4.04220       -4.22290       -7.03110
O         -3.55320       -3.38880       -6.28270
C         -3.75840       -4.36980       -8.46680
C         -2.78410       -3.70210       -9.20590
C         -2.75970       -4.04850      -10.53530
C         -3.63580       -4.99040      -11.08930
C         -4.58640       -5.67210      -10.36580
C         -4.62920       -5.33730       -9.00930
C         -5.45960       -5.87520       -7.93040
C         -6.44190       -6.82100       -8.08210
C         -7.22800       -7.36940       -7.04730
N         -7.91530       -7.87780       -6.27940
C         -6.82030       -7.38790       -9.31640
N         -7.18490       -7.89180      -10.28210
C         -3.05150       -4.83910      -12.47210
C         -3.86320       -3.99320      -13.47600
C         -2.85280       -3.62610      -14.53880
C         -2.01890       -2.73780      -14.01330
C         -2.45160       -2.48920      -12.58650
C         -3.96960       -2.65170      -12.73900
C         -2.07090       -3.79200      -11.85230
C         -4.99390       -5.07200       -4.20420
S         -3.83580       -3.80460       -3.92610
C         -3.84270       -4.09620       -2.21170
C         -4.72690       -5.11370       -1.86080
C         -5.36870       -5.66070       -2.98320
O         -6.22100       -6.71820       -2.99100
C         -5.93010       -7.73970       -2.05270
C         -6.46150       -7.43940       -0.64940
C         -6.21450       -5.97720       -0.27100
O         -4.90460       -5.52290       -0.56950
C         -2.91820       -3.33950       -1.44450
C         -2.79990       -3.04760       -0.09250
N         -3.63670       -3.41490        0.95730
C         -4.99650       -3.13920        0.96020
C         -5.81830       -3.66500        1.95740
C         -7.17200       -3.38830        1.98540
C         -7.74050       -2.58550        1.00720
S         -9.45870       -2.17670        0.92560
C        -10.13390       -2.82260        2.48200
C         -6.92740       -2.06210        0.00420
C         -5.57700       -2.32660       -0.01770
C         -2.93360       -3.74760        2.13290
C         -3.13810       -3.08620        3.34010
C         -2.31440       -3.33430        4.42130
C         -1.26650       -4.23840        4.30810
S         -0.11280       -4.56200        5.60460
C         -0.25140       -3.08790        6.65560
C         -1.09210       -4.94130        3.11840
C         -1.91770       -4.70010        2.04410
C         -1.66810       -2.22990        0.14620
S         -0.99670       -1.54270        1.57580
C          0.20530       -0.67880        0.62240
C          0.13110       -0.97980       -0.72740
N          1.02290       -0.55390       -1.69180
C          0.64450       -0.56500       -3.04600
C          1.51590       -1.03900       -4.02760
C          1.11560       -1.09270       -5.34410
C         -0.16470       -0.68390       -5.71550
S         -0.58850       -0.81430       -7.42180
C         -2.37440       -0.48040       -7.44410
C         -1.02430       -0.18790       -4.74790
C         -0.61960       -0.12820       -3.42830
C          2.35930       -0.28810       -1.35710
C          3.03410       -1.05120       -0.40760
C          4.33990       -0.76040       -0.06510
C          5.00730        0.28270       -0.69180
S          6.66370        0.76630       -0.31150
C          7.31290       -0.63230        0.64800
C          4.34900        1.02380       -1.67160
C          3.03800        0.74950       -1.99420
C         -0.95900       -1.85470       -0.98100
S         -1.64690       -2.56700       -2.39570
C          1.10700        0.15380        1.36740
C          1.36430        1.51230        1.27740
N          0.77340        2.37910        0.38000
C          1.41280        3.59740        0.07970
C          2.78460        3.63510       -0.15140
C          3.41350        4.83650       -0.40970
C          2.69900        6.02660       -0.44620
C          3.39890        7.33030       -0.67520
C          1.32750        5.97790       -0.22980
C          0.68680        4.78380        0.03230
C         -0.54110        2.16630       -0.06080
C         -1.50290        1.60100        0.77350
C         -2.77220        1.33390        0.29830
C         -3.13500        1.66200       -1.00080
C         -4.49380        1.33130       -1.53850
C         -2.19240        2.29710       -1.80390
C         -0.90910        2.53490       -1.35220
C          2.26260        1.92850        2.29660
S          2.87100        3.47030        2.78220
C          3.69060        2.72700        4.15890
C          3.41290        1.34140        4.25730
N          3.79430        0.51490        5.28150
C          3.92800        0.95370        6.61350
C          3.06090        1.90360        7.14900
C          3.24380        2.35340        8.44090
C          4.26850        1.85470        9.23830
C          4.50110        2.38410       10.61920
C          5.09190        0.86670        8.71250
C          4.93330        0.42080        7.41520
C          3.90380       -0.86660        5.02650
C          3.31850       -1.79280        5.88500
C          3.40260       -3.14060        5.60480
C          4.06820       -3.59960        4.47290
C          4.13500       -5.06680        4.18500
C          4.67170       -2.66940        3.63690
C          4.59480       -1.31680        3.90630
C          2.62660        0.91510        3.17340
S          1.88800       -0.59390        2.75780
C          4.55400        3.39780        5.02400
C          4.77660        4.74350        5.19860
C          4.09860        5.83700        4.49850
O          3.38290        5.76640        3.51400
C          4.44730        7.06970        5.23040
C          3.99450        8.35980        4.96600
C          4.47210        9.30940        5.83760
C          5.33850        8.99880        6.89310
C          5.79590        7.73010        7.16250
C          5.31950        6.74840        6.28940
C          5.58130        5.30950        6.25420
C          6.44300        4.63640        7.08770
C          6.81680        3.28580        6.95460
N          7.20770        2.20550        6.89880
C          7.10140        5.21170        8.19110
N          7.64200        5.59750        9.12890
C          5.41120       10.43110        7.36170
C          6.68970       11.21420        6.99680
C          6.28240       12.66190        7.14910
C          5.46120       12.95720        6.14950
C          5.30000       11.71400        5.30470
C          6.69710       11.10140        5.46680
C          4.44450       10.77790        6.18420
H         -6.18770       -6.35030       -5.31850
H         -2.11090       -3.00030       -8.74030
H         -5.23740       -6.40990      -10.80380
H         -2.63820       -5.74340      -12.91470
H         -4.78700       -4.45310      -13.81610
H         -2.81590       -4.07780      -15.51270
H         -1.14610       -2.29920      -14.46020
H         -2.08760       -1.57960      -12.11630
H         -4.50760       -2.70650      -11.79440
H         -4.40680       -1.87360      -13.36270
H         -1.00280       -3.99860      -11.87740
H         -6.40090       -8.63950       -2.45520
H         -4.84440       -7.89590       -2.01320
H         -5.96190       -8.10450        0.05530
H         -7.53530       -7.62090       -0.60320
H         -6.32560       -5.84710        0.80760
H         -6.94500       -5.33150       -0.77410
H         -5.39310       -4.30460        2.71650
H         -7.77130       -3.81600        2.77330
H         -9.59640       -2.39420        3.32290
H        -11.17090       -2.50240        2.50480
H        -10.08490       -3.90770        2.49220
H         -7.36970       -1.43460       -0.75470
H         -4.96370       -1.89060       -0.79030
H         -3.92260       -2.34870        3.42230
H         -2.48500       -2.79610        5.33980
H         -0.15400       -2.20040        6.03760
H         -1.19230       -3.09470        7.19840
H          0.57350       -3.14500        7.35850
H         -0.29190       -5.66150        3.04460
H         -1.77160       -5.22510        1.11200
H          2.50300       -1.37790       -3.75000
H          1.78640       -1.47040       -6.10070
H         -2.88340       -1.21230       -6.82180
H         -2.68290       -0.58810       -8.48000
H         -2.56810        0.53650       -7.11530
H         -2.01680        0.14680       -4.99860
H         -1.29040        0.26980       -2.68470
H          2.53790       -1.88520        0.06560
H          4.82300       -1.36080        0.68830
H          6.85290       -0.66740        1.63140
H          7.14980       -1.55660        0.10190
H          8.37730       -0.44610        0.75190
H          4.87420        1.82760       -2.16440
H          2.52830        1.33940       -2.74080
H          3.35490        2.71980       -0.12470
H          4.48040        4.84720       -0.57830
H          4.22230        7.21210       -1.37640
H          3.81030        7.69160        0.26780
H          2.71230        8.08210       -1.05720
H          0.75140        6.89190       -0.25070
H         -0.37770        4.76700        0.21560
H         -1.25520        1.37510        1.79990
H         -3.49450        0.86850        0.95400
H         -4.94770        2.20470       -2.00380
H         -5.14930        0.97410       -0.74800
H         -4.41650        0.55330       -2.29950
H         -2.46150        2.58880       -2.80930
H         -0.18000        2.99800       -2.00040
H          2.25900        2.29970        6.54310
H          2.57540        3.10400        8.83820
H          4.76900        1.58050       11.30180
H          3.61770        2.89230       10.99820
H          5.32590        3.09790       10.60670
H          5.88790        0.45920        9.31700
H          5.59960       -0.32480        7.01030
H          2.79100       -1.44360        6.76080
H          2.93260       -3.85590        6.26340
H          4.86160       -5.54560        4.84180
H          3.16730       -5.53100        4.36450
H          4.43200       -5.25080        3.15570
H          5.20950       -3.01060        2.76340
H          5.06180       -0.59280        3.25410
H          5.09650        2.74490        5.69510
H          3.32280        8.55300        4.14410
H          6.45920        7.50710        7.98140
H          5.07650       10.61420        8.38110
H          7.58390       10.89840        7.52730
H          6.57850       13.28520        7.97240
H          4.93440       13.87640        5.97130
H          4.92860       11.85490        4.29310
H          6.77900       10.08070        5.09800
H          7.47190       11.71660        5.01230
H          3.46560       11.19200        6.41960
