149

C         -2.12450       -6.45460        0.50700
C         -3.43870       -6.32260        0.19450
C         -4.46750       -7.14070        0.89390
O         -4.26570       -8.09300        1.61340
C         -5.75810       -6.50810        0.56330
C         -7.01340       -6.82610        1.08030
C         -8.03510       -6.05110        0.58670
C         -7.82960       -5.02890       -0.35090
C         -6.60090       -4.71030       -0.87790
C         -5.54860       -5.48790       -0.38810
C         -4.13120       -5.45230       -0.73490
C         -3.62010       -4.94090       -1.89740
C         -2.28940       -5.11470       -2.33160
N         -1.23820       -5.26090       -2.76940
C         -4.38790       -4.30960       -2.89810
N         -4.94710       -3.82050       -3.77300
C         -9.29500       -4.67350       -0.40300
C        -10.07570       -5.16850       -1.63840
C        -11.52120       -5.10740       -1.20020
C        -11.71680       -6.07930       -0.31810
C        -10.40680       -6.81400       -0.14530
C         -9.84200       -6.68300       -1.56570
C         -9.52490       -5.81710        0.63640
C         -1.08510       -5.52260        0.25350
C          0.24690       -5.77730        0.02260
C          1.00290       -4.62540       -0.19780
S          2.72920       -4.70230       -0.57040
C          3.41770       -4.54560        1.12380
C          3.00330       -5.68390        2.03190
C          0.27450       -3.44620       -0.08550
S         -1.38920       -3.80110        0.26460
C          0.75020       -2.11470       -0.17080
C          0.12110       -0.93500        0.22210
N         -1.13500       -0.81140        0.81470
C         -1.15430       -0.03030        1.98640
C         -2.07990        0.99560        2.17760
C         -2.05130        1.74700        3.32970
C         -1.09390        1.50480        4.31440
S         -1.16860        2.53300        5.74520
C          0.24420        1.99530        6.74980
C         -0.16160        0.49470        4.12200
C         -0.19630       -0.26450        2.96840
C         -2.32030       -1.05920        0.12070
C         -3.50040       -1.27150        0.83410
C         -4.70680       -1.40520        0.18130
C         -4.75870       -1.33390       -1.20560
S         -6.26470       -1.37100       -2.12680
C         -7.53170       -1.04130       -0.86370
C         -3.57270       -1.21680       -1.92630
C         -2.36550       -1.08320       -1.27410
C          0.97910        0.17640        0.05890
S          0.79490        1.88030        0.30570
C          2.42840        2.15790       -0.29420
C          3.04930        0.98690       -0.71130
N          4.27600        0.87660       -1.33660
C          4.73220        1.84270       -2.24020
C          3.83760        2.52850       -3.06340
C          4.27540        3.57770       -3.83770
C          5.61330        3.97220       -3.81120
S          6.02230        5.39380       -4.76810
C          7.74790        5.75330       -4.34350
C          6.52030        3.24060       -3.05540
C          6.08290        2.18230       -2.28260
C          5.01440       -0.29160       -1.08700
C          5.56870       -1.02560       -2.13060
C          6.18990       -2.23200       -1.87800
C          6.26800       -2.71620       -0.57890
S          6.98150       -4.28600       -0.18330
C          6.60710       -5.26220       -1.66980
C          5.77480       -1.95220        0.47400
C          5.15000       -0.75140        0.22250
C          2.21410       -0.13320       -0.47920
S          2.37970       -1.82800       -0.77190
C          2.94360        3.48590       -0.35390
C          2.26150        4.63630       -0.66470
C          3.08020        5.77280       -0.78520
S          2.55200        7.30680       -1.40190
C          1.01840        6.87190       -2.31320
C          1.28660        5.98580       -3.51330
C          4.42490        5.49540       -0.51310
S          4.62420        3.81410       -0.07640
C          5.60240        6.23690       -0.68770
C          5.78840        7.58970       -0.71390
C          7.06020        8.17530       -1.17180
O          8.01960        7.57320       -1.61390
C          6.90840        9.64080       -1.01430
C          7.78770       10.65990       -1.32590
C          7.39190       11.96780       -1.07310
C          6.14900       12.24320       -0.52200
C          5.26440       11.21970       -0.20300
C          5.65310        9.91910       -0.45670
C          4.92110        8.65100       -0.21120
O          3.85860        8.52490        0.37340
H         -1.85400       -7.34270        1.07010
H         -7.13160       -7.62020        1.80070
H         -6.44900       -3.92750       -1.60290
H         -9.55370       -3.65460       -0.11910
H         -9.82130       -4.66570       -2.56720
H        -12.21580       -4.35480       -1.52470
H        -12.60690       -6.30030        0.24150
H        -10.45800       -7.81070        0.28440
H        -10.43810       -7.22640       -2.29670
H         -8.79790       -6.97570       -1.65850
H         -9.93500       -5.56130        1.61200
H          0.65670       -6.76860       -0.04530
H          4.49520       -4.54070        0.96990
H          3.10570       -3.57660        1.51410
H          1.92590       -5.68760        2.18800
H          3.29610       -6.63750        1.59960
H          3.49210       -5.57590        2.99800
H         -2.81150        1.20680        1.41280
H         -2.76400        2.54360        3.47830
H          1.16820        2.14110        6.19810
H          0.11800        0.95830        7.04730
H          0.23540        2.63290        7.62830
H          0.59370        0.28290        4.86130
H          0.52870       -1.05310        2.82630
H         -3.46720       -1.31890        1.91200
H         -5.60010       -1.56000        0.76470
H         -7.63730       -1.89400       -0.19860
H         -8.45490       -0.88820       -1.41370
H         -7.27410       -0.14200       -0.31270
H         -3.61320       -1.20840       -3.00460
H         -1.45590       -0.96410       -1.84390
H          2.79620        2.24200       -3.07780
H          3.58700        4.11560       -4.47090
H          8.01780        6.61160       -4.95140
H          7.83300        6.01610       -3.29220
H          8.38060        4.90990       -4.60310
H          7.56580        3.50230       -3.03780
H          6.78510        1.63640       -1.67030
H          5.48920       -0.65660       -3.14230
H          6.59690       -2.79740       -2.70090
H          7.29120       -5.00850       -2.47410
H          5.57420       -5.08740       -1.95610
H          6.74640       -6.30050       -1.38580
H          5.87760       -2.31520        1.48510
H          4.74740       -0.16430        1.03500
H          1.20030        4.62850       -0.83400
H          0.30330        6.43130       -1.62060
H          0.63990        7.84410       -2.62830
H          2.01700        6.45400       -4.16890
H          0.36540        5.82970       -4.07150
H          1.67290        5.01780       -3.20270
H          6.49690        5.64030       -0.84660
H          8.75420       10.43710       -1.75170
H          8.06160       12.78220       -1.30780
H          5.86560       13.26910       -0.33800
H          4.29610       11.42490        0.22720
