207

C         -0.08570        4.15750        8.02400
C          0.78710        5.17970        7.76060
C          1.43730        5.43910        6.46920
O          1.57200        4.66900        5.53320
C          1.89540        6.83870        6.52030
C          2.42200        7.59180        5.47310
C          2.74030        8.88340        5.81750
C          2.55010        9.39250        7.10860
C          2.01880        8.66520        8.14770
C          1.68360        7.34880        7.81780
C          1.05080        6.31040        8.62780
C          0.79010        6.38910        9.97150
C          1.09860        7.50280       10.77920
N          1.32200        8.37430       11.49280
C          0.20890        5.36260       10.74490
N         -0.25400        4.57690       11.44370
C          3.07500       10.75640        6.73480
C          4.51400       11.09160        7.18080
C          4.90740       12.24650        6.28820
C          5.08310       11.76790        5.06320
C          4.81210       10.28130        5.10720
C          5.31610        9.96260        6.52070
C          3.28310       10.18970        5.29340
C         -0.47100        3.08030        7.21030
C         -1.61700        2.32760        7.44650
C         -1.87720        1.37280        6.47690
S         -3.45960        0.58150        6.36370
C         -4.40990        2.01180        5.71750
C         -3.97660        2.41240        4.32170
C         -0.87160        1.29110        5.51280
S          0.33120        2.51800        5.76490
C         -0.79960        0.48890        4.34880
C         -1.39620       -0.73670        4.04630
N         -1.93230       -1.61540        4.95810
C         -1.39790       -1.72310        6.25040
C         -2.21960       -2.04570        7.32700
C         -1.71030       -2.12110        8.60850
C         -0.36490       -1.87060        8.83990
S          0.39540       -1.91020       10.43050
C         -1.00350       -2.05840       11.57760
C          0.46830       -1.58050        7.76040
C         -0.03770       -1.51390        6.48310
C         -2.98640       -2.44640        4.55260
C         -4.02050       -1.92960        3.77190
C         -5.04270       -2.74520        3.34440
C         -5.05820       -4.09570        3.68800
S         -6.41490       -5.04290        3.07760
C         -6.00580       -6.74840        3.54530
C         -4.03880       -4.61070        4.47870
C         -3.01150       -3.79210        4.90430
C         -1.24920       -1.03200        2.66650
S         -1.84890       -2.28440        1.63270
C         -1.03120       -1.56140        0.26040
C         -0.24130       -0.47170        0.61570
N          0.69520        0.13240       -0.20400
C          1.06870        1.46000        0.03620
C          0.10800        2.42200        0.34440
C          0.49390        3.70290        0.68820
C          1.83890        4.03800        0.71030
S          2.33420        5.66580        1.22410
C          3.41410        5.21510        2.62170
C          2.79370        3.10610        0.32430
C          2.41440        1.82300       -0.00250
C          1.35310       -0.61530       -1.19610
C          1.68800       -1.95360       -0.98440
C          2.15550       -2.72320       -2.02340
C          2.32820       -2.17140       -3.29280
S          2.79600       -3.29400       -4.56890
C          2.83780       -2.27130       -6.06560
C          2.10900       -0.81360       -3.47710
C          1.61710       -0.04630       -2.43800
C         -0.43690       -0.14260        1.97810
S          0.12760        1.13330        2.99660
C         -1.19910       -2.03410       -1.07480
C         -1.17520       -1.22720       -2.17550
C         -1.15300       -1.91770       -3.40660
C         -0.96250       -1.38620       -4.70120
C         -0.74420        0.02580       -4.94420
C          0.01040        0.59480       -5.93970
C          0.07210        1.99630       -5.84510
Cl         0.98910        2.94480       -6.94290
C         -0.62980        2.54860       -4.81270
Si        -0.69330        4.35690       -4.25710
C         -1.65510        4.34200       -2.60290
C         -1.46680        5.59760       -1.75780
C         -1.56800        5.34950       -5.63720
C         -1.54710        6.85790       -5.41550
C          1.10390        4.95670       -3.98610
C          1.94910        3.97480       -3.17950
S         -1.40190        1.28350       -3.93030
C         -0.91200       -2.31600       -5.74350
C         -1.01040       -3.71720       -5.53660
C         -1.13400       -4.24760       -4.23120
C         -1.12730       -5.66920       -3.96830
S         -0.07020       -6.74730       -4.83040
C         -0.60310       -8.12710       -3.93760
Si         0.15490       -9.82100       -4.31540
C         -1.13520      -11.20760       -4.06430
C         -0.63460      -12.56320       -4.55390
C          0.72520       -9.73090       -6.13790
C         -0.42900       -9.58810       -7.12550
C          1.67310      -10.03550       -3.17000
C          1.31860       -9.99260       -1.68680
C         -1.53870       -7.73240       -3.02250
C         -1.83910       -6.35710       -3.02260
Cl        -2.30360       -8.82060       -1.93740
C         -1.21770       -3.32170       -3.20270
S         -1.30320       -3.72280       -1.50570
C         -0.99510       -4.42200       -6.75270
C         -0.86240       -3.62390       -7.86720
S         -0.75000       -1.93230       -7.43540
C         -0.82770       -4.12930       -9.18630
C         -0.66070       -3.47680      -10.36710
C         -0.67760       -4.20240      -11.65780
O         -0.83140       -5.39290      -11.81860
C         -0.47000       -3.16960      -12.70110
C         -0.41000       -3.30250      -14.07550
C         -0.20260       -2.15860      -14.83610
C         -0.05890       -0.91560      -14.23480
C         -0.11820       -0.77820      -12.85410
C         -0.32560       -1.91470      -12.09500
C         -0.43290       -2.04960      -10.62310
O         -0.33610       -1.15080       -9.81050
H         -0.63340        4.20540        8.95820
H          2.53330        7.17280        4.48660
H          1.85550        9.07690        9.12960
H          2.38310       11.58470        6.87480
H          4.63710       11.23500        8.25070
H          4.96030       13.26770        6.61700
H          5.31180       12.30950        4.16400
H          5.20770        9.68810        4.28700
H          5.05200        8.96680        6.87200
H          6.39040       10.11020        6.61810
H          2.72630       10.63700        4.47210
H         -2.27290        2.51540        8.27870
H         -4.29750        2.83480        6.42310
H         -5.44310        1.66690        5.72650
H         -4.07130        1.57290        3.63640
H         -4.60170        3.22690        3.96120
H         -2.94030        2.74580        4.31770
H         -3.27030       -2.22400        7.15950
H         -2.37900       -2.36640        9.41730
H         -0.57540       -1.97540       12.57170
H         -1.70390       -1.24630       11.40770
H         -1.48270       -3.02650       11.46350
H          1.51890       -1.41020        7.93910
H          0.62550       -1.29840        5.65910
H         -4.01690       -0.88200        3.51360
H         -5.84410       -2.34810        2.74070
H         -5.04450       -7.02500        3.12270
H         -6.00970       -6.85250        4.62640
H         -6.78930       -7.36440        3.11480
H         -4.02680       -5.64980        4.76500
H         -2.21540       -4.19990        5.50940
H         -0.93820        2.15370        0.33270
H         -0.24330        4.44360        0.95400
H          4.12100        4.45380        2.30980
H          2.80290        4.85450        3.44560
H          3.94930        6.11690        2.90320
H          3.83740        3.38040        0.29320
H          3.15600        1.08690       -0.27450
H          1.54660       -2.39590       -0.00970
H          2.37740       -3.76840       -1.87170
H          1.86030       -1.83210       -6.23630
H          3.60650       -1.50910       -5.97740
H          3.08300       -2.95010       -6.87660
H          2.28220       -0.34410       -4.43140
H          1.40520        1.00000       -2.59970
H         -1.16810       -0.16020       -2.08030
H          0.53590        0.05550       -6.70480
H         -2.71910        4.20470       -2.80220
H         -1.34120        3.47800       -2.01410
H         -2.06210        5.54050       -0.84800
H         -1.77430        6.48460       -2.30500
H         -0.42470        5.71820       -1.47340
H         -1.09090        5.12990       -6.59290
H         -2.60370        5.01810       -5.72840
H         -2.08530        7.12190       -4.50910
H         -2.01670        7.37620       -6.24960
H         -0.52580        7.21810       -5.32240
H          1.58890        5.13350       -4.94630
H          1.08660        5.91550       -3.46740
H          2.94210        4.38010       -2.99490
H          2.06150        3.03840       -3.72160
H          1.48710        3.76330       -2.21790
H         -2.06010      -10.95880       -4.58660
H         -1.39340      -11.29230       -3.00930
H         -0.40540      -12.53180       -5.61580
H          0.26740      -12.85420       -4.02120
H         -1.38740      -13.33260       -4.39150
H          1.39970       -8.88230       -6.26200
H          1.30090      -10.62100       -6.39170
H         -1.08880      -10.45050       -7.07660
H         -0.05790       -9.50150       -8.14500
H         -1.01600       -8.70050       -6.90170
H          2.40200       -9.25130       -3.38140
H          2.16750      -10.98230       -3.38960
H          0.84580       -9.04700       -1.43360
H          0.63000      -10.79400       -1.43200
H          2.21050      -10.10290       -1.07250
H         -2.57560       -5.91560       -2.37690
H         -1.09330       -5.48940       -6.82880
H         -0.95490       -5.20590       -9.26480
H         -0.52240       -4.27230      -14.53530
H         -0.15230       -2.23620      -15.91210
H          0.10110       -0.04320      -14.85090
H         -0.00810        0.18360      -12.37690
