154

C         -5.72530        3.43870        1.62520
C         -6.12930        3.53970        0.33270
C         -7.52400        3.93190       -0.00850
O         -8.33820        4.43110        0.73480
C         -7.70940        3.51870       -1.41360
C         -8.88300        3.57440       -2.16270
C         -8.76000        3.07060       -3.43530
C         -7.56410        2.52670       -3.92580
C         -6.38730        2.50120       -3.21550
C         -6.48900        3.02630       -1.92520
C         -5.45620        3.21290       -0.91190
C         -4.11690        3.34270       -1.16710
C         -3.18250        3.82750       -0.22750
N         -2.39060        4.27110        0.47620
C         -3.50940        3.10020       -2.41620
N         -2.94090        2.90770       -3.39460
C         -8.18150        2.16110       -5.25040
C         -8.60640        0.68680       -5.47490
C         -8.94070        0.10680       -4.12240
C        -10.06670        0.66850       -3.70370
C        -10.51260        1.64350       -4.76390
C        -10.02410        0.91350       -6.02550
C         -9.50000        2.81260       -4.72590
C         -4.56970        2.75780        2.09330
C         -3.76530        3.07400        3.16280
C         -2.59060        2.31310        3.22650
S         -1.24280        2.75490        4.27700
C         -0.10730        3.38810        2.97120
C          1.07030        4.08160        3.62390
C         -2.51950        1.32790        2.25900
S         -3.92440        1.38000        1.23490
C         -1.47970        0.42720        1.90300
C         -0.57650       -0.28700        2.68260
N         -0.55500       -0.35860        4.05690
C         -1.72940       -0.32910        4.81850
C         -1.71340        0.20580        6.10730
C         -2.87240        0.27400        6.84460
C         -4.07800       -0.18430        6.31590
S         -5.50370       -0.01290        7.34220
C         -6.88170       -0.48530        6.25820
C         -4.09340       -0.74580        5.04740
C         -2.92710       -0.82200        4.31060
C          0.69640       -0.56090        4.66740
C          0.86450       -1.50380        5.68050
C          2.12360       -1.77160        6.17000
C          3.24090       -1.11390        5.65640
S          4.81940       -1.59240        6.27620
C          5.97370       -0.98660        5.01170
C          3.06900       -0.12660        4.69590
C          1.80580        0.14760        4.21260
C          0.33790       -0.99020        1.85270
S          1.71480       -1.98790        2.16750
C          1.99020       -2.18090        0.44650
C          1.08250       -1.47050       -0.32970
N          1.18100       -1.27880       -1.69530
C          0.00890       -1.05850       -2.42980
C         -1.14080       -1.78470       -2.12920
C         -2.32830       -1.53040       -2.78670
C         -2.38160       -0.54380       -3.76050
S         -3.85060       -0.11940       -4.63840
C         -5.16620       -0.92420       -3.67650
C         -1.22390        0.15650       -4.09530
C         -0.04040       -0.09730       -3.43980
C          2.45250       -1.13410       -2.28000
C          2.75240       -1.74220       -3.49410
C          4.04470       -1.73420       -3.98630
C          5.05910       -1.11860       -3.26560
S          6.76650       -1.15750       -3.70960
C          6.83370       -2.32360       -5.09630
C          4.74340       -0.42890       -2.09610
C          3.45570       -0.42870       -1.61290
C          0.12160       -0.83300        0.49360
S         -1.24830        0.16450        0.17270
C          3.17390       -2.82810       -0.01330
C          3.31520       -3.61880       -1.13680
C          4.64490       -3.87640       -1.43570
S          5.12220       -4.81480       -2.85690
C          5.41600       -6.45410       -2.08720
C          6.71520       -6.53340       -1.31450
C          5.55580       -3.25970       -0.56790
S          4.70110       -2.45940        0.72480
C          6.92360       -3.16430       -0.85350
C          7.90720       -2.46260       -0.20810
C          7.74080       -1.70790        1.04080
O          6.75000       -1.68010        1.75130
C          9.01340       -1.00580        1.26050
C          9.37800       -0.13300        2.28280
O          8.50430        0.16920        3.25960
C         10.66820        0.40530        2.24550
C         11.54580        0.08170        1.22910
C         11.18540       -0.78920        0.20750
C          9.91330       -1.33240        0.22840
C          9.25670       -2.26570       -0.68820
C          9.83990       -2.83790       -1.78830
C         11.15700       -2.57730       -2.22130
N         12.21470       -2.41760       -2.63870
C          9.24270       -3.79230       -2.63720
N          8.85750       -4.59500       -3.36410
H         -6.36790        3.89310        2.37190
H         -9.78780        3.98840       -1.74590
H         -5.46410        2.10780       -3.60990
H         -7.70980        2.58700       -6.13360
H         -7.91790        0.11140       -6.08870
H         -8.32340       -0.59770       -3.59550
H        -10.56720        0.53230       -2.76300
H        -11.55620        1.94460       -4.73230
H        -10.55970       -0.01720       -6.20720
H        -10.04720        1.53220       -6.92130
H         -9.86310        3.69850       -5.24290
H         -3.95940        3.89810        3.82520
H          0.21220        2.53560        2.37080
H         -0.68480        4.06970        2.34800
H          1.75130        4.44790        2.85840
H          1.60740        3.39490        4.27560
H          0.72900        4.92380        4.22060
H         -0.79040        0.58800        6.51350
H         -2.86260        0.70010        7.83570
H         -7.78300       -0.29320        6.83180
H         -6.87420        0.13060        5.36370
H         -6.82180       -1.54160        6.01220
H         -5.00310       -1.13430        4.61850
H         -2.95300       -1.27650        3.33110
H          0.00790       -2.04280        6.05640
H          2.26200       -2.51820        6.93660
H          5.66330       -1.31660        4.02520
H          6.93330       -1.43000        5.25680
H          6.05210        0.09530        5.05780
H          3.91080        0.42340        4.30790
H          1.67880        0.90780        3.45640
H         -1.10280       -2.55520       -1.37250
H         -3.19950       -2.11020       -2.52780
H         -5.12000       -2.00290       -3.79680
H         -6.09560       -0.54790       -4.09100
H         -5.08370       -0.63950       -2.63110
H         -1.27560        0.92060       -4.85420
H          0.84900        0.46300       -3.68560
H          1.97360       -2.25220       -4.04140
H          4.25180       -2.24080       -4.91420
H          7.88850       -2.46420       -5.31110
H          6.39100       -3.26850       -4.79630
H          6.33270       -1.90060       -5.96210
H          5.52630        0.08940       -1.56320
H          3.22450        0.09430       -0.69670
H          2.49230       -3.99310       -1.71830
H          5.42550       -7.13560       -2.93680
H          4.55140       -6.66990       -1.45950
H          6.70130       -5.86390       -0.45600
H          6.86110       -7.54990       -0.95390
H          7.55250       -6.26720       -1.95620
H          7.19380       -3.65760       -1.77970
H          8.90300        0.78380        3.88950
H         10.97660        1.08640        3.02780
H         12.53410        0.51550        1.22820
H         11.88940       -1.02110       -0.57310
