
  xtb     02052220393D
 energy: -307.152895455034 gnorm: 0.000407326044 xtb: 6.4.1 (unknown)
170191  0     0  0            999 V2000
    2.4700    7.3324    8.5195 C   0  0  0  0  0  0  0  0  0  0  0  0
    3.5400    7.3217    9.3512 C   0  0  0  0  0  0  0  0  0  0  0  0
    3.3353    7.4700   10.8216 C   0  0  0  0  0  0  0  0  0  0  0  0
    2.3623    7.9255   11.3754 O   0  0  0  0  0  0  0  0  0  0  0  0
    4.5384    6.8751   11.4344 C   0  0  0  0  0  0  0  0  0  0  0  0
    4.7597    6.6293   12.7881 C   0  0  0  0  0  0  0  0  0  0  0  0
    5.9637    6.0251   13.0581 C   0  0  0  0  0  0  0  0  0  0  0  0
    6.8867    5.6859   12.0584 C   0  0  0  0  0  0  0  0  0  0  0  0
    6.6899    5.9342   10.7209 C   0  0  0  0  0  0  0  0  0  0  0  0
    5.4708    6.5485   10.4255 C   0  0  0  0  0  0  0  0  0  0  0  0
    4.9361    6.9919    9.1425 C   0  0  0  0  0  0  0  0  0  0  0  0
    5.6696    7.3043    8.0304 C   0  0  0  0  0  0  0  0  0  0  0  0
    7.0391    7.0133    7.8767 C   0  0  0  0  0  0  0  0  0  0  0  0
    8.1457    6.7726    7.6877 N   0  0  0  0  0  0  0  0  0  0  0  0
    5.1412    8.0442    6.9495 C   0  0  0  0  0  0  0  0  0  0  0  0
    4.7721    8.7033    6.0856 N   0  0  0  0  0  0  0  0  0  0  0  0
    7.8562    5.0875   13.0460 C   0  0  0  0  0  0  0  0  0  0  0  0
    7.9163    3.5432   13.1521 C   0  0  0  0  0  0  0  0  0  0  0  0
    6.5620    3.0298   12.7300 C   0  0  0  0  0  0  0  0  0  0  0  0
    5.6924    3.3548   13.6773 C   0  0  0  0  0  0  0  0  0  0  0  0
    6.4430    4.0945   14.7569 C   0  0  0  0  0  0  0  0  0  0  0  0
    7.8032    3.3833   14.6766 C   0  0  0  0  0  0  0  0  0  0  0  0
    6.8313    5.4700   14.1599 C   0  0  0  0  0  0  0  0  0  0  0  0
    2.3380    6.7950    7.2111 C   0  0  0  0  0  0  0  0  0  0  0  0
    1.2583    6.9776    6.3871 C   0  0  0  0  0  0  0  0  0  0  0  0
    1.3292    6.2499    5.1792 C   0  0  0  0  0  0  0  0  0  0  0  0
    0.3654    6.1748    4.1563 C   0  0  0  0  0  0  0  0  0  0  0  0
   -0.9166    6.8481    4.2719 C   0  0  0  0  0  0  0  0  0  0  0  0
   -1.4999    7.9068    3.0239 S   0  0  0  0  0  0  0  0  0  0  0  0
   -2.9650    8.2356    3.8815 C   0  0  0  0  0  0  0  0  0  0  0  0
   -4.0180    9.1102    3.2971 C   0  0  0  0  0  0  0  0  0  0  0  0
   -4.8831    8.3295    2.3045 C   0  0  0  0  0  0  0  0  0  0  0  0
   -2.9938    7.5454    5.0573 C   0  0  0  0  0  0  0  0  0  0  0  0
   -4.2964    7.6053    6.1734 Cl  0  0  0  0  0  0  0  0  0  0  0  0
   -1.8309    6.7632    5.2858 C   0  0  0  0  0  0  0  0  0  0  0  0
   -1.6530    5.7525    6.6629 Cl  0  0  0  0  0  0  0  0  0  0  0  0
    0.6814    5.3928    3.0554 C   0  0  0  0  0  0  0  0  0  0  0  0
    1.9094    4.6927    2.9302 C   0  0  0  0  0  0  0  0  0  0  0  0
    2.8718    4.7467    3.9610 C   0  0  0  0  0  0  0  0  0  0  0  0
    4.1443    4.0586    3.8880 C   0  0  0  0  0  0  0  0  0  0  0  0
    5.3545    4.5035    4.3460 C   0  0  0  0  0  0  0  0  0  0  0  0
    6.4042    3.5882    4.1412 C   0  0  0  0  0  0  0  0  0  0  0  0
    6.0091    2.4352    3.5352 C   0  0  0  0  0  0  0  0  0  0  0  0
    6.8361    1.2544    3.1568 C   0  0  0  0  0  0  0  0  0  0  0  0
    6.3293   -0.0324    3.8076 C   0  0  0  0  0  0  0  0  0  0  0  0
    4.3089    2.4672    3.1980 S   0  0  0  0  0  0  0  0  0  0  0  0
    2.5364    5.5143    5.0709 C   0  0  0  0  0  0  0  0  0  0  0  0
    3.4952    5.6765    6.5129 S   0  0  0  0  0  0  0  0  0  0  0  0
    1.9694    3.9725    1.7191 C   0  0  0  0  0  0  0  0  0  0  0  0
    0.8278    4.0529    0.9698 C   0  0  0  0  0  0  0  0  0  0  0  0
   -0.3732    5.0889    1.7074 S   0  0  0  0  0  0  0  0  0  0  0  0
    0.5806    3.3105   -0.2326 C   0  0  0  0  0  0  0  0  0  0  0  0
    1.5716    2.4668   -0.7951 C   0  0  0  0  0  0  0  0  0  0  0  0
    2.8525    2.2783   -0.4491 N   0  0  0  0  0  0  0  0  0  0  0  0
    3.2899    1.3829   -1.2862 N   0  0  0  0  0  0  0  0  0  0  0  0
    4.6277    0.8704   -1.2076 C   0  0  0  0  0  0  0  0  0  0  0  0
    4.7201   -0.1870   -0.1116 C   0  0  0  0  0  0  0  0  0  0  0  0
    2.4370    0.9388   -2.1632 N   0  0  0  0  0  0  0  0  0  0  0  0
    1.3041    1.6053   -1.8995 C   0  0  0  0  0  0  0  0  0  0  0  0
    0.0243    1.5247   -2.5045 C   0  0  0  0  0  0  0  0  0  0  0  0
   -0.9047    2.4079   -1.9748 C   0  0  0  0  0  0  0  0  0  0  0  0
   -0.6376    3.2645   -0.8948 C   0  0  0  0  0  0  0  0  0  0  0  0
   -1.6537    4.0387   -0.4745 F   0  0  0  0  0  0  0  0  0  0  0  0
   -2.1502    2.4454   -2.4796 F   0  0  0  0  0  0  0  0  0  0  0  0
   -0.2650    0.5363   -3.5039 C   0  0  0  0  0  0  0  0  0  0  0  0
    0.6476   -0.3308   -4.0381 C   0  0  0  0  0  0  0  0  0  0  0  0
    0.0757   -1.3059   -4.8809 C   0  0  0  0  0  0  0  0  0  0  0  0
    0.7402   -2.3466   -5.5602 C   0  0  0  0  0  0  0  0  0  0  0  0
    2.1803   -2.5118   -5.4675 C   0  0  0  0  0  0  0  0  0  0  0  0
    2.9922   -2.5560   -3.9284 S   0  0  0  0  0  0  0  0  0  0  0  0
    4.5435   -2.7787   -4.6611 C   0  0  0  0  0  0  0  0  0  0  0  0
    5.7730   -2.9464   -3.8375 C   0  0  0  0  0  0  0  0  0  0  0  0
    6.0163   -4.4221   -3.5124 C   0  0  0  0  0  0  0  0  0  0  0  0
    4.4222   -2.8277   -6.0174 C   0  0  0  0  0  0  0  0  0  0  0  0
    5.7480   -3.0341   -7.0860 Cl  0  0  0  0  0  0  0  0  0  0  0  0
    3.0867   -2.6752   -6.4793 C   0  0  0  0  0  0  0  0  0  0  0  0
    2.6940   -2.6154   -8.1466 Cl  0  0  0  0  0  0  0  0  0  0  0  0
   -0.0559   -3.2274   -6.2790 C   0  0  0  0  0  0  0  0  0  0  0  0
   -1.4654   -3.0823   -6.3728 C   0  0  0  0  0  0  0  0  0  0  0  0
   -2.1198   -1.9808   -5.7762 C   0  0  0  0  0  0  0  0  0  0  0  0
   -3.5302   -1.7647   -5.9954 C   0  0  0  0  0  0  0  0  0  0  0  0
   -4.2222   -1.9446   -7.1648 C   0  0  0  0  0  0  0  0  0  0  0  0
   -5.5896   -1.6359   -7.0560 C   0  0  0  0  0  0  0  0  0  0  0  0
   -5.9524   -1.2267   -5.8075 C   0  0  0  0  0  0  0  0  0  0  0  0
   -7.2911   -0.7828   -5.3303 C   0  0  0  0  0  0  0  0  0  0  0  0
   -7.3454    0.7407   -5.1929 C   0  0  0  0  0  0  0  0  0  0  0  0
   -4.5901   -1.1948   -4.7381 S   0  0  0  0  0  0  0  0  0  0  0  0
   -1.3275   -1.1407   -5.0026 C   0  0  0  0  0  0  0  0  0  0  0  0
   -1.8864    0.2231   -4.0781 S   0  0  0  0  0  0  0  0  0  0  0  0
   -2.0625   -4.1764   -7.0275 C   0  0  0  0  0  0  0  0  0  0  0  0
   -1.1698   -5.1247   -7.4624 C   0  0  0  0  0  0  0  0  0  0  0  0
    0.4795   -4.6844   -7.0572 S   0  0  0  0  0  0  0  0  0  0  0  0
   -1.4142   -6.3898   -8.0513 C   0  0  0  0  0  0  0  0  0  0  0  0
   -2.5653   -6.8900   -8.5740 C   0  0  0  0  0  0  0  0  0  0  0  0
   -2.7270   -8.3689   -8.6787 C   0  0  0  0  0  0  0  0  0  0  0  0
   -1.8480   -9.1977   -8.6292 O   0  0  0  0  0  0  0  0  0  0  0  0
   -4.1817   -8.5919   -8.7843 C   0  0  0  0  0  0  0  0  0  0  0  0
   -4.8520   -9.8126   -8.7545 C   0  0  0  0  0  0  0  0  0  0  0  0
   -6.2194   -9.7032   -8.8383 C   0  0  0  0  0  0  0  0  0  0  0  0
   -6.8790   -8.4700   -8.9375 C   0  0  0  0  0  0  0  0  0  0  0  0
   -6.2319   -7.2579   -8.9721 C   0  0  0  0  0  0  0  0  0  0  0  0
   -4.8400   -7.3486   -8.8956 C   0  0  0  0  0  0  0  0  0  0  0  0
   -3.8327   -6.2924   -8.9351 C   0  0  0  0  0  0  0  0  0  0  0  0
   -4.0145   -5.0372   -9.4538 C   0  0  0  0  0  0  0  0  0  0  0  0
   -5.2618   -4.4983   -9.8246 C   0  0  0  0  0  0  0  0  0  0  0  0
   -6.2517   -3.9883  -10.1049 N   0  0  0  0  0  0  0  0  0  0  0  0
   -2.9447   -4.1601   -9.7275 C   0  0  0  0  0  0  0  0  0  0  0  0
   -2.1056   -3.4255   -9.9987 N   0  0  0  0  0  0  0  0  0  0  0  0
   -8.2424   -9.1126   -8.9785 C   0  0  0  0  0  0  0  0  0  0  0  0
   -8.9514   -9.2078  -10.3520 C   0  0  0  0  0  0  0  0  0  0  0  0
   -7.8624   -9.2291  -11.3960 C   0  0  0  0  0  0  0  0  0  0  0  0
   -7.2384  -10.3961  -11.3062 C   0  0  0  0  0  0  0  0  0  0  0  0
   -7.8938  -11.1847  -10.1994 C   0  0  0  0  0  0  0  0  0  0  0  0
   -9.3437  -10.6939  -10.3389 C   0  0  0  0  0  0  0  0  0  0  0  0
   -7.5077  -10.4861   -8.8721 C   0  0  0  0  0  0  0  0  0  0  0  0
    1.5495    7.7134    8.9517 H   0  0  0  0  0  0  0  0  0  0  0  0
    4.0253    6.9039   13.5290 H   0  0  0  0  0  0  0  0  0  0  0  0
    7.4010    5.6681    9.9557 H   0  0  0  0  0  0  0  0  0  0  0  0
    8.8433    5.5441   13.0814 H   0  0  0  0  0  0  0  0  0  0  0  0
    8.7750    3.0908   12.6632 H   0  0  0  0  0  0  0  0  0  0  0  0
    6.3703    2.5485   11.7889 H   0  0  0  0  0  0  0  0  0  0  0  0
    4.6295    3.1990   13.6855 H   0  0  0  0  0  0  0  0  0  0  0  0
    5.9604    4.1441   15.7294 H   0  0  0  0  0  0  0  0  0  0  0  0
    7.7523    2.3411   14.9881 H   0  0  0  0  0  0  0  0  0  0  0  0
    8.5928    3.8936   15.2264 H   0  0  0  0  0  0  0  0  0  0  0  0
    7.1483    6.1792   14.9218 H   0  0  0  0  0  0  0  0  0  0  0  0
    0.4487    7.6395    6.6349 H   0  0  0  0  0  0  0  0  0  0  0  0
   -4.6421    9.4960    4.1051 H   0  0  0  0  0  0  0  0  0  0  0  0
   -3.5480    9.9515    2.7847 H   0  0  0  0  0  0  0  0  0  0  0  0
   -5.3686    7.4945    2.8032 H   0  0  0  0  0  0  0  0  0  0  0  0
   -5.6479    8.9782    1.8862 H   0  0  0  0  0  0  0  0  0  0  0  0
   -4.2707    7.9412    1.4944 H   0  0  0  0  0  0  0  0  0  0  0  0
    5.5021    5.4780    4.7755 H   0  0  0  0  0  0  0  0  0  0  0  0
    7.4203    3.7850    4.4332 H   0  0  0  0  0  0  0  0  0  0  0  0
    6.8233    1.1341    2.0693 H   0  0  0  0  0  0  0  0  0  0  0  0
    7.8671    1.4435    3.4624 H   0  0  0  0  0  0  0  0  0  0  0  0
    6.9554   -0.8733    3.5200 H   0  0  0  0  0  0  0  0  0  0  0  0
    6.3482    0.0599    4.8908 H   0  0  0  0  0  0  0  0  0  0  0  0
    5.3069   -0.2373    3.4976 H   0  0  0  0  0  0  0  0  0  0  0  0
    2.8117    3.3940    1.3938 H   0  0  0  0  0  0  0  0  0  0  0  0
    4.8676    0.4442   -2.1831 H   0  0  0  0  0  0  0  0  0  0  0  0
    5.2940    1.7068   -0.9860 H   0  0  0  0  0  0  0  0  0  0  0  0
    4.0508   -1.0155   -0.3312 H   0  0  0  0  0  0  0  0  0  0  0  0
    4.4427    0.2473    0.8461 H   0  0  0  0  0  0  0  0  0  0  0  0
    5.7364   -0.5651   -0.0471 H   0  0  0  0  0  0  0  0  0  0  0  0
    1.6924   -0.2674   -3.8051 H   0  0  0  0  0  0  0  0  0  0  0  0
    6.6250   -2.5521   -4.3949 H   0  0  0  0  0  0  0  0  0  0  0  0
    5.6666   -2.3824   -2.9093 H   0  0  0  0  0  0  0  0  0  0  0  0
    6.1321   -4.9939   -4.4291 H   0  0  0  0  0  0  0  0  0  0  0  0
    5.1772   -4.8283   -2.9530 H   0  0  0  0  0  0  0  0  0  0  0  0
    6.9194   -4.5305   -2.9177 H   0  0  0  0  0  0  0  0  0  0  0  0
   -3.7480   -2.2287   -8.0871 H   0  0  0  0  0  0  0  0  0  0  0  0
   -6.2791   -1.7204   -7.8772 H   0  0  0  0  0  0  0  0  0  0  0  0
   -7.5067   -1.2372   -4.3603 H   0  0  0  0  0  0  0  0  0  0  0  0
   -8.0475   -1.1161   -6.0438 H   0  0  0  0  0  0  0  0  0  0  0  0
   -7.1489    1.2132   -6.1525 H   0  0  0  0  0  0  0  0  0  0  0  0
   -6.5980    1.0816   -4.4802 H   0  0  0  0  0  0  0  0  0  0  0  0
   -8.3270    1.0524   -4.8453 H   0  0  0  0  0  0  0  0  0  0  0  0
   -3.1281   -4.2994   -7.0899 H   0  0  0  0  0  0  0  0  0  0  0  0
   -0.5952   -7.1002   -7.9921 H   0  0  0  0  0  0  0  0  0  0  0  0
   -4.3096  -10.7413   -8.6721 H   0  0  0  0  0  0  0  0  0  0  0  0
   -6.7468   -6.3132   -9.0382 H   0  0  0  0  0  0  0  0  0  0  0  0
   -8.9244   -8.8354   -8.1770 H   0  0  0  0  0  0  0  0  0  0  0  0
   -9.7452   -8.4808  -10.5013 H   0  0  0  0  0  0  0  0  0  0  0  0
   -7.6285   -8.3968  -12.0336 H   0  0  0  0  0  0  0  0  0  0  0  0
   -6.3785  -10.7341  -11.8541 H   0  0  0  0  0  0  0  0  0  0  0  0
   -7.7252  -12.2583  -10.2096 H   0  0  0  0  0  0  0  0  0  0  0  0
   -9.8089  -11.0147  -11.2696 H   0  0  0  0  0  0  0  0  0  0  0  0
   -9.9777  -10.9682   -9.4968 H   0  0  0  0  0  0  0  0  0  0  0  0
   -7.7109  -11.1073   -8.0018 H   0  0  0  0  0  0  0  0  0  0  0  0
  1  2  2  0  0  0  0
  2  3  1  0  0  0  0
  3  4  2  0  0  0  0
  3  5  1  0  0  0  0
  5  6  2  0  0  0  0
  6  7  1  0  0  0  0
  7  8  2  0  0  0  0
  8  9  1  0  0  0  0
  9 10  2  0  0  0  0
 10 11  1  0  0  0  0
 11 12  2  0  0  0  0
 12 13  1  0  0  0  0
 13 14  3  0  0  0  0
 12 15  1  0  0  0  0
 15 16  3  0  0  0  0
  8 17  1  0  0  0  0
 17 18  1  0  0  0  0
 18 19  1  0  0  0  0
 19 20  2  0  0  0  0
 20 21  1  0  0  0  0
 21 22  1  0  0  0  0
 21 23  1  0  0  0  0
  1 24  1  0  0  0  0
 24 25  2  0  0  0  0
 25 26  1  0  0  0  0
 26 27  2  0  0  0  0
 27 28  1  0  0  0  0
 28 29  1  0  0  0  0
 29 30  1  0  0  0  0
 30 31  1  0  0  0  0
 31 32  1  0  0  0  0
 30 33  2  0  0  0  0
 33 34  1  0  0  0  0
 33 35  1  0  0  0  0
 35 36  1  0  0  0  0
 27 37  1  0  0  0  0
 37 38  2  0  0  0  0
 38 39  1  0  0  0  0
 39 40  1  0  0  0  0
 40 41  2  0  0  0  0
 41 42  1  0  0  0  0
 42 43  2  0  0  0  0
 43 44  1  0  0  0  0
 44 45  1  0  0  0  0
 43 46  1  0  0  0  0
 39 47  2  0  0  0  0
 47 48  1  0  0  0  0
 38 49  1  0  0  0  0
 49 50  2  0  0  0  0
 50 51  1  0  0  0  0
 50 52  1  0  0  0  0
 52 53  1  0  0  0  0
 53 54  2  0  0  0  0
 54 55  1  0  0  0  0
 55 56  1  0  0  0  0
 56 57  1  0  0  0  0
 55 58  1  0  0  0  0
 58 59  2  0  0  0  0
 59 60  1  0  0  0  0
 60 61  2  0  0  0  0
 61 62  1  0  0  0  0
 62 63  1  0  0  0  0
 61 64  1  0  0  0  0
 60 65  1  0  0  0  0
 65 66  2  0  0  0  0
 66 67  1  0  0  0  0
 67 68  2  0  0  0  0
 68 69  1  0  0  0  0
 69 70  1  0  0  0  0
 70 71  1  0  0  0  0
 71 72  1  0  0  0  0
 72 73  1  0  0  0  0
 71 74  2  0  0  0  0
 74 75  1  0  0  0  0
 74 76  1  0  0  0  0
 76 77  1  0  0  0  0
 68 78  1  0  0  0  0
 78 79  2  0  0  0  0
 79 80  1  0  0  0  0
 80 81  1  0  0  0  0
 81 82  2  0  0  0  0
 82 83  1  0  0  0  0
 83 84  2  0  0  0  0
 84 85  1  0  0  0  0
 85 86  1  0  0  0  0
 84 87  1  0  0  0  0
 80 88  2  0  0  0  0
 88 89  1  0  0  0  0
 79 90  1  0  0  0  0
 90 91  2  0  0  0  0
 91 92  1  0  0  0  0
 91 93  1  0  0  0  0
 93 94  2  0  0  0  0
 94 95  1  0  0  0  0
 95 96  2  0  0  0  0
 95 97  1  0  0  0  0
 97 98  2  0  0  0  0
 98 99  1  0  0  0  0
 99100  2  0  0  0  0
100101  1  0  0  0  0
101102  2  0  0  0  0
102103  1  0  0  0  0
103104  2  0  0  0  0
104105  1  0  0  0  0
105106  3  0  0  0  0
104107  1  0  0  0  0
107108  3  0  0  0  0
100109  1  0  0  0  0
109110  1  0  0  0  0
110111  1  0  0  0  0
111112  2  0  0  0  0
112113  1  0  0  0  0
113114  1  0  0  0  0
113115  1  0  0  0  0
 11  2  1  0  0  0  0
 23 17  1  0  0  0  0
 48 24  1  0  0  0  0
 62 52  2  0  0  0  0
 89 65  1  0  0  0  0
103 94  1  0  0  0  0
115109  1  0  0  0  0
 10  5  1  0  0  0  0
 22 18  1  0  0  0  0
 47 26  1  0  0  0  0
 59 53  1  0  0  0  0
 88 67  1  0  0  0  0
102 97  1  0  0  0  0
114110  1  0  0  0  0
 23  7  1  0  0  0  0
 35 28  2  0  0  0  0
 51 37  1  0  0  0  0
 76 69  2  0  0  0  0
 92 78  1  0  0  0  0
115 99  1  0  0  0  0
 46 40  1  0  0  0  0
 87 81  1  0  0  0  0
  1116  1  0  0  0  0
  6117  1  0  0  0  0
  9118  1  0  0  0  0
 17119  1  0  0  0  0
 18120  1  0  0  0  0
 19121  1  0  0  0  0
 20122  1  0  0  0  0
 21123  1  0  0  0  0
 22124  1  0  0  0  0
 22125  1  0  0  0  0
 23126  1  0  0  0  0
 25127  1  0  0  0  0
 31128  1  0  0  0  0
 31129  1  0  0  0  0
 32130  1  0  0  0  0
 32131  1  0  0  0  0
 32132  1  0  0  0  0
 41133  1  0  0  0  0
 42134  1  0  0  0  0
 44135  1  0  0  0  0
 44136  1  0  0  0  0
 45137  1  0  0  0  0
 45138  1  0  0  0  0
 45139  1  0  0  0  0
 49140  1  0  0  0  0
 56141  1  0  0  0  0
 56142  1  0  0  0  0
 57143  1  0  0  0  0
 57144  1  0  0  0  0
 57145  1  0  0  0  0
 66146  1  0  0  0  0
 72147  1  0  0  0  0
 72148  1  0  0  0  0
 73149  1  0  0  0  0
 73150  1  0  0  0  0
 73151  1  0  0  0  0
 82152  1  0  0  0  0
 83153  1  0  0  0  0
 85154  1  0  0  0  0
 85155  1  0  0  0  0
 86156  1  0  0  0  0
 86157  1  0  0  0  0
 86158  1  0  0  0  0
 90159  1  0  0  0  0
 93160  1  0  0  0  0
 98161  1  0  0  0  0
101162  1  0  0  0  0
109163  1  0  0  0  0
110164  1  0  0  0  0
111165  1  0  0  0  0
112166  1  0  0  0  0
113167  1  0  0  0  0
114168  1  0  0  0  0
114169  1  0  0  0  0
115170  1  0  0  0  0
M  END
