
  xtb     02042216023D
 energy: -399.261783857708 gnorm: 0.000206808197 xtb: 6.4.1 (unknown)
222247  0     0  0            999 V2000
  -11.3092   -1.9115    0.1925 C   0  0  0  0  0  0  0  0  0  0  0  0
  -12.0054   -2.2388    1.3191 C   0  0  0  0  0  0  0  0  0  0  0  0
  -11.5778   -2.1305    2.7375 C   0  0  0  0  0  0  0  0  0  0  0  0
  -10.6281   -1.5367    3.2048 O   0  0  0  0  0  0  0  0  0  0  0  0
  -12.5401   -2.9383    3.5079 C   0  0  0  0  0  0  0  0  0  0  0  0
  -12.4899   -3.2043    4.8747 C   0  0  0  0  0  0  0  0  0  0  0  0
  -13.5095   -4.0064    5.3259 C   0  0  0  0  0  0  0  0  0  0  0  0
  -14.5033   -4.5154    4.4781 C   0  0  0  0  0  0  0  0  0  0  0  0
  -14.5649   -4.2598    3.1293 C   0  0  0  0  0  0  0  0  0  0  0  0
  -13.5412   -3.4359    2.6512 C   0  0  0  0  0  0  0  0  0  0  0  0
  -13.2773   -2.9492    1.3017 C   0  0  0  0  0  0  0  0  0  0  0  0
  -14.1242   -3.0798    0.2334 C   0  0  0  0  0  0  0  0  0  0  0  0
  -13.9215   -2.5379   -1.0547 C   0  0  0  0  0  0  0  0  0  0  0  0
  -13.8545   -2.1250   -2.1243 N   0  0  0  0  0  0  0  0  0  0  0  0
  -15.3663   -3.7484    0.2803 C   0  0  0  0  0  0  0  0  0  0  0  0
  -16.3857   -4.2753    0.2420 N   0  0  0  0  0  0  0  0  0  0  0  0
  -15.2001   -5.2423    5.6007 C   0  0  0  0  0  0  0  0  0  0  0  0
  -16.4969   -4.6146    6.1686 C   0  0  0  0  0  0  0  0  0  0  0  0
  -16.3999   -3.1303    5.9165 C   0  0  0  0  0  0  0  0  0  0  0  0
  -15.4621   -2.6439    6.7183 C   0  0  0  0  0  0  0  0  0  0  0  0
  -14.9080   -3.7907    7.5274 C   0  0  0  0  0  0  0  0  0  0  0  0
  -16.1699   -4.6564    7.6699 C   0  0  0  0  0  0  0  0  0  0  0  0
  -14.0959   -4.6714    6.5455 C   0  0  0  0  0  0  0  0  0  0  0  0
  -10.0762   -1.2350    0.0367 C   0  0  0  0  0  0  0  0  0  0  0  0
   -9.3290   -0.4787    0.9027 C   0  0  0  0  0  0  0  0  0  0  0  0
   -8.1320    0.0064    0.3435 C   0  0  0  0  0  0  0  0  0  0  0  0
   -7.1341    0.7725    0.9852 C   0  0  0  0  0  0  0  0  0  0  0  0
   -7.3424    1.3137    2.3140 C   0  0  0  0  0  0  0  0  0  0  0  0
   -6.1328    1.2559    3.5598 S   0  0  0  0  0  0  0  0  0  0  0  0
   -7.1491    2.0421    4.7172 C   0  0  0  0  0  0  0  0  0  0  0  0
   -6.6855    2.2642    6.1178 C   0  0  0  0  0  0  0  0  0  0  0  0
   -6.9413    3.6893    6.6070 C   0  0  0  0  0  0  0  0  0  0  0  0
   -8.3496    2.3479    4.1464 C   0  0  0  0  0  0  0  0  0  0  0  0
   -9.3520    2.9651    4.7880 F   0  0  0  0  0  0  0  0  0  0  0  0
   -8.4603    1.9411    2.7965 C   0  0  0  0  0  0  0  0  0  0  0  0
   -9.5422    2.2096    2.0517 F   0  0  0  0  0  0  0  0  0  0  0  0
   -5.9639    0.9826    0.2750 C   0  0  0  0  0  0  0  0  0  0  0  0
   -5.7874    0.5846   -1.0752 C   0  0  0  0  0  0  0  0  0  0  0  0
   -6.8183   -0.1051   -1.7460 C   0  0  0  0  0  0  0  0  0  0  0  0
   -6.6827   -0.4851   -3.1398 C   0  0  0  0  0  0  0  0  0  0  0  0
   -7.1241   -2.0685   -3.7066 S   0  0  0  0  0  0  0  0  0  0  0  0
   -6.6781   -1.7108   -5.3379 C   0  0  0  0  0  0  0  0  0  0  0  0
   -6.8315   -2.7085   -6.4328 C   0  0  0  0  0  0  0  0  0  0  0  0
   -6.1650   -4.0383   -6.0870 C   0  0  0  0  0  0  0  0  0  0  0  0
   -6.2132   -0.4334   -5.4194 C   0  0  0  0  0  0  0  0  0  0  0  0
   -6.2128    0.2606   -4.1869 C   0  0  0  0  0  0  0  0  0  0  0  0
   -5.8432    1.5464   -4.0885 F   0  0  0  0  0  0  0  0  0  0  0  0
   -5.7946    0.1275   -6.5675 F   0  0  0  0  0  0  0  0  0  0  0  0
   -7.9510   -0.4151   -1.0015 C   0  0  0  0  0  0  0  0  0  0  0  0
   -9.3162   -1.3335   -1.5522 S   0  0  0  0  0  0  0  0  0  0  0  0
   -4.5136    0.9441   -1.5571 C   0  0  0  0  0  0  0  0  0  0  0  0
   -3.7315    1.6098   -0.6459 C   0  0  0  0  0  0  0  0  0  0  0  0
   -4.5521    1.7879    0.8905 S   0  0  0  0  0  0  0  0  0  0  0  0
   -2.3910    2.0185   -0.8847 C   0  0  0  0  0  0  0  0  0  0  0  0
   -1.3883    2.4934   -0.0416 C   0  0  0  0  0  0  0  0  0  0  0  0
   -1.4915    2.8655    1.2857 N   0  0  0  0  0  0  0  0  0  0  0  0
   -2.5520    3.6174    1.7864 C   0  0  0  0  0  0  0  0  0  0  0  0
   -3.3024    4.4549    0.9616 C   0  0  0  0  0  0  0  0  0  0  0  0
   -4.4308    5.0860    1.4462 C   0  0  0  0  0  0  0  0  0  0  0  0
   -4.8225    4.8925    2.7631 C   0  0  0  0  0  0  0  0  0  0  0  0
   -6.3243    5.5623    3.4154 S   0  0  0  0  0  0  0  0  0  0  0  0
   -7.4247    5.4938    1.9711 C   0  0  0  0  0  0  0  0  0  0  0  0
   -4.0224    4.1361    3.6148 C   0  0  0  0  0  0  0  0  0  0  0  0
   -2.8978    3.5061    3.1354 C   0  0  0  0  0  0  0  0  0  0  0  0
   -0.3602    2.6176    2.0915 C   0  0  0  0  0  0  0  0  0  0  0  0
    0.1928    1.3383    2.1296 C   0  0  0  0  0  0  0  0  0  0  0  0
    1.3792    1.1158    2.7941 C   0  0  0  0  0  0  0  0  0  0  0  0
    2.0278    2.1702    3.4301 C   0  0  0  0  0  0  0  0  0  0  0  0
    3.5948    1.8361    4.1720 S   0  0  0  0  0  0  0  0  0  0  0  0
    4.4416    3.4411    4.0430 C   0  0  0  0  0  0  0  0  0  0  0  0
    1.4400    3.4285    3.4598 C   0  0  0  0  0  0  0  0  0  0  0  0
    0.2527    3.6512    2.7925 C   0  0  0  0  0  0  0  0  0  0  0  0
   -0.1382    2.5007   -0.7133 C   0  0  0  0  0  0  0  0  0  0  0  0
    1.4806    2.8358   -0.2177 S   0  0  0  0  0  0  0  0  0  0  0  0
    2.1033    2.3525   -1.7923 C   0  0  0  0  0  0  0  0  0  0  0  0
    1.0817    2.0582   -2.6885 C   0  0  0  0  0  0  0  0  0  0  0  0
    1.2196    1.6684   -4.0054 N   0  0  0  0  0  0  0  0  0  0  0  0
    0.2922    0.7428   -4.5161 C   0  0  0  0  0  0  0  0  0  0  0  0
   -0.3431    0.9670   -5.7333 C   0  0  0  0  0  0  0  0  0  0  0  0
   -1.3035    0.0897   -6.1967 C   0  0  0  0  0  0  0  0  0  0  0  0
   -1.6399   -1.0304   -5.4480 C   0  0  0  0  0  0  0  0  0  0  0  0
   -2.8847   -2.1872   -5.9195 S   0  0  0  0  0  0  0  0  0  0  0  0
   -3.2156   -1.7837   -7.6594 C   0  0  0  0  0  0  0  0  0  0  0  0
   -0.9882   -1.2724   -4.2407 C   0  0  0  0  0  0  0  0  0  0  0  0
   -0.0293   -0.3982   -3.7801 C   0  0  0  0  0  0  0  0  0  0  0  0
    2.1018    2.3189   -4.8747 C   0  0  0  0  0  0  0  0  0  0  0  0
    2.3837    3.6746   -4.7313 C   0  0  0  0  0  0  0  0  0  0  0  0
    3.2682    4.3043   -5.5863 C   0  0  0  0  0  0  0  0  0  0  0  0
    3.8875    3.5838   -6.5975 C   0  0  0  0  0  0  0  0  0  0  0  0
    5.0421    4.2686   -7.7382 S   0  0  0  0  0  0  0  0  0  0  0  0
    5.2917    5.9619   -7.1386 C   0  0  0  0  0  0  0  0  0  0  0  0
    3.5916    2.2292   -6.7552 C   0  0  0  0  0  0  0  0  0  0  0  0
    2.7065    1.6036   -5.9103 C   0  0  0  0  0  0  0  0  0  0  0  0
   -0.1810    2.1155   -2.0401 C   0  0  0  0  0  0  0  0  0  0  0  0
   -1.7945    1.7380   -2.5232 S   0  0  0  0  0  0  0  0  0  0  0  0
    3.5115    2.1129   -1.8250 C   0  0  0  0  0  0  0  0  0  0  0  0
    4.1946    1.6348   -0.7375 C   0  0  0  0  0  0  0  0  0  0  0  0
    5.5516    1.3480   -0.9864 C   0  0  0  0  0  0  0  0  0  0  0  0
    6.4816    0.7198   -0.1396 C   0  0  0  0  0  0  0  0  0  0  0  0
    6.1008    0.2007    1.1629 C   0  0  0  0  0  0  0  0  0  0  0  0
    7.1015    0.4057    2.5687 S   0  0  0  0  0  0  0  0  0  0  0  0
    6.0560   -0.5429    3.5674 C   0  0  0  0  0  0  0  0  0  0  0  0
    6.3622   -0.8218    4.9977 C   0  0  0  0  0  0  0  0  0  0  0  0
    6.6273    0.4553    5.7907 C   0  0  0  0  0  0  0  0  0  0  0  0
    4.9892   -0.9740    2.8391 C   0  0  0  0  0  0  0  0  0  0  0  0
    4.0052   -1.7351    3.3445 F   0  0  0  0  0  0  0  0  0  0  0  0
    5.0088   -0.5572    1.4876 C   0  0  0  0  0  0  0  0  0  0  0  0
    4.0667   -0.9360    0.6090 F   0  0  0  0  0  0  0  0  0  0  0  0
    7.7688    0.5398   -0.6363 C   0  0  0  0  0  0  0  0  0  0  0  0
    8.1529    0.9625   -1.9364 C   0  0  0  0  0  0  0  0  0  0  0  0
    7.2131    1.5850   -2.7905 C   0  0  0  0  0  0  0  0  0  0  0  0
    7.5894    2.0639   -4.1106 C   0  0  0  0  0  0  0  0  0  0  0  0
    8.3843    1.0570   -5.2823 S   0  0  0  0  0  0  0  0  0  0  0  0
    8.5333    2.3457   -6.4262 C   0  0  0  0  0  0  0  0  0  0  0  0
    9.2206    2.1645   -7.7339 C   0  0  0  0  0  0  0  0  0  0  0  0
   10.7319    2.0123   -7.5490 C   0  0  0  0  0  0  0  0  0  0  0  0
    7.9939    3.4845   -5.9104 C   0  0  0  0  0  0  0  0  0  0  0  0
    7.4380    3.3240   -4.6184 C   0  0  0  0  0  0  0  0  0  0  0  0
    6.8739    4.3381   -3.9453 F   0  0  0  0  0  0  0  0  0  0  0  0
    8.0145    4.6632   -6.5501 F   0  0  0  0  0  0  0  0  0  0  0  0
    5.9290    1.7330   -2.3006 C   0  0  0  0  0  0  0  0  0  0  0  0
    4.5625    2.3214   -3.2091 S   0  0  0  0  0  0  0  0  0  0  0  0
    9.4957    0.6513   -2.1967 C   0  0  0  0  0  0  0  0  0  0  0  0
   10.1267   -0.0288   -1.1717 C   0  0  0  0  0  0  0  0  0  0  0  0
    9.0615   -0.2721    0.1963 S   0  0  0  0  0  0  0  0  0  0  0  0
   11.4628   -0.4677   -1.2913 C   0  0  0  0  0  0  0  0  0  0  0  0
   12.2286   -1.2164   -0.4450 C   0  0  0  0  0  0  0  0  0  0  0  0
   11.8084   -1.7606    0.8592 C   0  0  0  0  0  0  0  0  0  0  0  0
   10.7541   -1.5752    1.4368 O   0  0  0  0  0  0  0  0  0  0  0  0
   12.9271   -2.5868    1.3392 C   0  0  0  0  0  0  0  0  0  0  0  0
   12.9655   -3.3376    2.5119 C   0  0  0  0  0  0  0  0  0  0  0  0
   14.1391   -4.0274    2.6954 C   0  0  0  0  0  0  0  0  0  0  0  0
   15.1974   -3.9755    1.7776 C   0  0  0  0  0  0  0  0  0  0  0  0
   15.1712   -3.2399    0.6167 C   0  0  0  0  0  0  0  0  0  0  0  0
   13.9863   -2.5265    0.4108 C   0  0  0  0  0  0  0  0  0  0  0  0
   13.5899   -1.6594   -0.6965 C   0  0  0  0  0  0  0  0  0  0  0  0
   14.3808   -1.3292   -1.7666 C   0  0  0  0  0  0  0  0  0  0  0  0
   14.0122   -0.4991   -2.8463 C   0  0  0  0  0  0  0  0  0  0  0  0
   13.8011    0.1580   -3.7651 N   0  0  0  0  0  0  0  0  0  0  0  0
   15.7089   -1.7719   -1.9452 C   0  0  0  0  0  0  0  0  0  0  0  0
   16.7926   -2.0846   -2.1598 N   0  0  0  0  0  0  0  0  0  0  0  0
   16.0577   -4.9044    2.5966 C   0  0  0  0  0  0  0  0  0  0  0  0
   17.2033   -4.2789    3.4302 C   0  0  0  0  0  0  0  0  0  0  0  0
   16.7873   -2.8612    3.7356 C   0  0  0  0  0  0  0  0  0  0  0  0
   15.7861   -2.9111    4.6040 C   0  0  0  0  0  0  0  0  0  0  0  0
   15.5066   -4.3636    4.9014 C   0  0  0  0  0  0  0  0  0  0  0  0
   16.9265   -4.9412    4.7894 C   0  0  0  0  0  0  0  0  0  0  0  0
   14.8786   -4.9626    3.6185 C   0  0  0  0  0  0  0  0  0  0  0  0
  -11.7255   -2.2533   -0.7483 H   0  0  0  0  0  0  0  0  0  0  0  0
  -11.7016   -2.7976    5.4887 H   0  0  0  0  0  0  0  0  0  0  0  0
  -15.3309   -4.6660    2.4902 H   0  0  0  0  0  0  0  0  0  0  0  0
  -15.2728   -6.3230    5.4959 H   0  0  0  0  0  0  0  0  0  0  0  0
  -17.4131   -5.0984    5.8411 H   0  0  0  0  0  0  0  0  0  0  0  0
  -16.9652   -2.6131    5.1635 H   0  0  0  0  0  0  0  0  0  0  0  0
  -15.0867   -1.6387    6.7692 H   0  0  0  0  0  0  0  0  0  0  0  0
  -14.3781   -3.5240    8.4382 H   0  0  0  0  0  0  0  0  0  0  0  0
  -15.9681   -5.6599    8.0425 H   0  0  0  0  0  0  0  0  0  0  0  0
  -16.9374   -4.1844    8.2812 H   0  0  0  0  0  0  0  0  0  0  0  0
  -13.4492   -5.3792    7.0608 H   0  0  0  0  0  0  0  0  0  0  0  0
   -9.6278   -0.3077    1.9189 H   0  0  0  0  0  0  0  0  0  0  0  0
   -5.6191    2.0351    6.1655 H   0  0  0  0  0  0  0  0  0  0  0  0
   -7.2065    1.5617    6.7765 H   0  0  0  0  0  0  0  0  0  0  0  0
   -6.5413    3.8094    7.6105 H   0  0  0  0  0  0  0  0  0  0  0  0
   -6.4658    4.4130    5.9501 H   0  0  0  0  0  0  0  0  0  0  0  0
   -8.0058    3.9011    6.6330 H   0  0  0  0  0  0  0  0  0  0  0  0
   -6.3963   -2.2881   -7.3417 H   0  0  0  0  0  0  0  0  0  0  0  0
   -7.8968   -2.8779   -6.6158 H   0  0  0  0  0  0  0  0  0  0  0  0
   -5.1066   -3.8923   -5.8853 H   0  0  0  0  0  0  0  0  0  0  0  0
   -6.2734   -4.7370   -6.9124 H   0  0  0  0  0  0  0  0  0  0  0  0
   -6.6279   -4.4693   -5.2026 H   0  0  0  0  0  0  0  0  0  0  0  0
   -4.1574    0.7043   -2.5419 H   0  0  0  0  0  0  0  0  0  0  0  0
   -3.0141    4.5919   -0.0700 H   0  0  0  0  0  0  0  0  0  0  0  0
   -5.0074    5.7153    0.7867 H   0  0  0  0  0  0  0  0  0  0  0  0
   -7.2492    4.5665    1.4338 H   0  0  0  0  0  0  0  0  0  0  0  0
   -7.2640    6.3537    1.3273 H   0  0  0  0  0  0  0  0  0  0  0  0
   -8.4371    5.5140    2.3624 H   0  0  0  0  0  0  0  0  0  0  0  0
   -4.3095    4.0234    4.6482 H   0  0  0  0  0  0  0  0  0  0  0  0
   -2.3037    2.8846    3.7875 H   0  0  0  0  0  0  0  0  0  0  0  0
   -0.2985    0.5312    1.6068 H   0  0  0  0  0  0  0  0  0  0  0  0
    1.8212    0.1318    2.8099 H   0  0  0  0  0  0  0  0  0  0  0  0
    5.5014    3.2295    4.1470 H   0  0  0  0  0  0  0  0  0  0  0  0
    4.2420    3.8698    3.0659 H   0  0  0  0  0  0  0  0  0  0  0  0
    4.1199    4.1083    4.8376 H   0  0  0  0  0  0  0  0  0  0  0  0
    1.9114    4.2442    3.9846 H   0  0  0  0  0  0  0  0  0  0  0  0
   -0.1921    4.6352    2.7896 H   0  0  0  0  0  0  0  0  0  0  0  0
   -0.0968    1.8461   -6.3100 H   0  0  0  0  0  0  0  0  0  0  0  0
   -1.7977    0.3047   -7.1300 H   0  0  0  0  0  0  0  0  0  0  0  0
   -3.7497   -0.8412   -7.7328 H   0  0  0  0  0  0  0  0  0  0  0  0
   -3.8368   -2.5907   -8.0353 H   0  0  0  0  0  0  0  0  0  0  0  0
   -2.2793   -1.7534   -8.2083 H   0  0  0  0  0  0  0  0  0  0  0  0
   -1.2455   -2.1516   -3.6703 H   0  0  0  0  0  0  0  0  0  0  0  0
    0.4751   -0.5893   -2.8443 H   0  0  0  0  0  0  0  0  0  0  0  0
    1.9055    4.2411   -3.9458 H   0  0  0  0  0  0  0  0  0  0  0  0
    3.4636    5.3549   -5.4485 H   0  0  0  0  0  0  0  0  0  0  0  0
    4.3798    6.5393   -7.2618 H   0  0  0  0  0  0  0  0  0  0  0  0
    5.6136    5.9413   -6.1021 H   0  0  0  0  0  0  0  0  0  0  0  0
    6.0814    6.3760   -7.7573 H   0  0  0  0  0  0  0  0  0  0  0  0
    4.0741    1.6776   -7.5475 H   0  0  0  0  0  0  0  0  0  0  0  0
    2.4868    0.5535   -6.0298 H   0  0  0  0  0  0  0  0  0  0  0  0
    3.7108    1.4544    0.2048 H   0  0  0  0  0  0  0  0  0  0  0  0
    7.2440   -1.4672    5.0518 H   0  0  0  0  0  0  0  0  0  0  0  0
    5.5158   -1.3608    5.4275 H   0  0  0  0  0  0  0  0  0  0  0  0
    5.7440    1.0884    5.7851 H   0  0  0  0  0  0  0  0  0  0  0  0
    7.4584    1.0035    5.3526 H   0  0  0  0  0  0  0  0  0  0  0  0
    6.8737    0.2108    6.8204 H   0  0  0  0  0  0  0  0  0  0  0  0
    9.0061    3.0344   -8.3576 H   0  0  0  0  0  0  0  0  0  0  0  0
    8.8257    1.2760   -8.2314 H   0  0  0  0  0  0  0  0  0  0  0  0
   11.2130    1.8793   -8.5139 H   0  0  0  0  0  0  0  0  0  0  0  0
   10.9531    1.1480   -6.9271 H   0  0  0  0  0  0  0  0  0  0  0  0
   11.1479    2.8971   -7.0733 H   0  0  0  0  0  0  0  0  0  0  0  0
   10.0029    0.8966   -3.1127 H   0  0  0  0  0  0  0  0  0  0  0  0
   11.9147   -0.1709   -2.2299 H   0  0  0  0  0  0  0  0  0  0  0  0
   12.1243   -3.3519    3.1872 H   0  0  0  0  0  0  0  0  0  0  0  0
   15.9925   -3.2181   -0.0797 H   0  0  0  0  0  0  0  0  0  0  0  0
   16.3571   -5.8301    2.1093 H   0  0  0  0  0  0  0  0  0  0  0  0
   18.1939   -4.4068    3.0025 H   0  0  0  0  0  0  0  0  0  0  0  0
   17.2127   -1.9971    3.2598 H   0  0  0  0  0  0  0  0  0  0  0  0
   15.2072   -2.0967    4.9988 H   0  0  0  0  0  0  0  0  0  0  0  0
   14.9527   -4.5694    5.8136 H   0  0  0  0  0  0  0  0  0  0  0  0
   16.9508   -6.0295    4.7548 H   0  0  0  0  0  0  0  0  0  0  0  0
   17.5898   -4.5832    5.5752 H   0  0  0  0  0  0  0  0  0  0  0  0
   14.4069   -5.9268    3.7981 H   0  0  0  0  0  0  0  0  0  0  0  0
  1  2  2  0  0  0  0
  2  3  1  0  0  0  0
  3  4  2  0  0  0  0
  3  5  1  0  0  0  0
  5  6  2  0  0  0  0
  6  7  1  0  0  0  0
  7  8  2  0  0  0  0
  8  9  1  0  0  0  0
  9 10  2  0  0  0  0
 10 11  1  0  0  0  0
 11 12  2  0  0  0  0
 12 13  1  0  0  0  0
 13 14  3  0  0  0  0
 12 15  1  0  0  0  0
 15 16  3  0  0  0  0
  8 17  1  0  0  0  0
 17 18  1  0  0  0  0
 18 19  1  0  0  0  0
 19 20  2  0  0  0  0
 20 21  1  0  0  0  0
 21 22  1  0  0  0  0
 21 23  1  0  0  0  0
  1 24  1  0  0  0  0
 24 25  2  0  0  0  0
 25 26  1  0  0  0  0
 26 27  2  0  0  0  0
 27 28  1  0  0  0  0
 28 29  1  0  0  0  0
 29 30  1  0  0  0  0
 30 31  1  0  0  0  0
 31 32  1  0  0  0  0
 30 33  2  0  0  0  0
 33 34  1  0  0  0  0
 33 35  1  0  0  0  0
 35 36  1  0  0  0  0
 27 37  1  0  0  0  0
 37 38  2  0  0  0  0
 38 39  1  0  0  0  0
 39 40  1  0  0  0  0
 40 41  1  0  0  0  0
 41 42  1  0  0  0  0
 42 43  1  0  0  0  0
 43 44  1  0  0  0  0
 42 45  2  0  0  0  0
 45 46  1  0  0  0  0
 46 47  1  0  0  0  0
 45 48  1  0  0  0  0
 39 49  2  0  0  0  0
 49 50  1  0  0  0  0
 38 51  1  0  0  0  0
 51 52  2  0  0  0  0
 52 53  1  0  0  0  0
 52 54  1  0  0  0  0
 54 55  2  0  0  0  0
 55 56  1  0  0  0  0
 56 57  1  0  0  0  0
 57 58  2  0  0  0  0
 58 59  1  0  0  0  0
 59 60  2  0  0  0  0
 60 61  1  0  0  0  0
 61 62  1  0  0  0  0
 60 63  1  0  0  0  0
 63 64  2  0  0  0  0
 56 65  1  0  0  0  0
 65 66  2  0  0  0  0
 66 67  1  0  0  0  0
 67 68  2  0  0  0  0
 68 69  1  0  0  0  0
 69 70  1  0  0  0  0
 68 71  1  0  0  0  0
 71 72  2  0  0  0  0
 55 73  1  0  0  0  0
 73 74  1  0  0  0  0
 74 75  1  0  0  0  0
 75 76  2  0  0  0  0
 76 77  1  0  0  0  0
 77 78  1  0  0  0  0
 78 79  2  0  0  0  0
 79 80  1  0  0  0  0
 80 81  2  0  0  0  0
 81 82  1  0  0  0  0
 82 83  1  0  0  0  0
 81 84  1  0  0  0  0
 84 85  2  0  0  0  0
 77 86  1  0  0  0  0
 86 87  2  0  0  0  0
 87 88  1  0  0  0  0
 88 89  2  0  0  0  0
 89 90  1  0  0  0  0
 90 91  1  0  0  0  0
 89 92  1  0  0  0  0
 92 93  2  0  0  0  0
 76 94  1  0  0  0  0
 94 95  1  0  0  0  0
 75 96  1  0  0  0  0
 96 97  2  0  0  0  0
 97 98  1  0  0  0  0
 98 99  2  0  0  0  0
 99100  1  0  0  0  0
100101  1  0  0  0  0
101102  1  0  0  0  0
102103  1  0  0  0  0
103104  1  0  0  0  0
102105  2  0  0  0  0
105106  1  0  0  0  0
105107  1  0  0  0  0
107108  1  0  0  0  0
 99109  1  0  0  0  0
109110  2  0  0  0  0
110111  1  0  0  0  0
111112  1  0  0  0  0
112113  1  0  0  0  0
113114  1  0  0  0  0
114115  1  0  0  0  0
115116  1  0  0  0  0
114117  2  0  0  0  0
117118  1  0  0  0  0
118119  1  0  0  0  0
117120  1  0  0  0  0
111121  2  0  0  0  0
121122  1  0  0  0  0
110123  1  0  0  0  0
123124  2  0  0  0  0
124125  1  0  0  0  0
124126  1  0  0  0  0
126127  2  0  0  0  0
127128  1  0  0  0  0
128129  2  0  0  0  0
128130  1  0  0  0  0
130131  2  0  0  0  0
131132  1  0  0  0  0
132133  2  0  0  0  0
133134  1  0  0  0  0
134135  2  0  0  0  0
135136  1  0  0  0  0
136137  2  0  0  0  0
137138  1  0  0  0  0
138139  3  0  0  0  0
137140  1  0  0  0  0
140141  3  0  0  0  0
133142  1  0  0  0  0
142143  1  0  0  0  0
143144  1  0  0  0  0
144145  2  0  0  0  0
145146  1  0  0  0  0
146147  1  0  0  0  0
146148  1  0  0  0  0
 11  2  1  0  0  0  0
 23 17  1  0  0  0  0
 50 24  1  0  0  0  0
 95 54  1  0  0  0  0
122 96  1  0  0  0  0
136127  1  0  0  0  0
148142  1  0  0  0  0
 10  5  1  0  0  0  0
 22 18  1  0  0  0  0
 49 26  1  0  0  0  0
 64 57  1  0  0  0  0
 72 65  1  0  0  0  0
 94 73  2  0  0  0  0
121 98  1  0  0  0  0
135130  1  0  0  0  0
147143  1  0  0  0  0
 23  7  1  0  0  0  0
 35 28  2  0  0  0  0
 53 37  1  0  0  0  0
 85 78  1  0  0  0  0
 93 86  1  0  0  0  0
107100  2  0  0  0  0
125109  1  0  0  0  0
148132  1  0  0  0  0
 46 40  2  0  0  0  0
118112  2  0  0  0  0
  1149  1  0  0  0  0
  6150  1  0  0  0  0
  9151  1  0  0  0  0
 17152  1  0  0  0  0
 18153  1  0  0  0  0
 19154  1  0  0  0  0
 20155  1  0  0  0  0
 21156  1  0  0  0  0
 22157  1  0  0  0  0
 22158  1  0  0  0  0
 23159  1  0  0  0  0
 25160  1  0  0  0  0
 31161  1  0  0  0  0
 31162  1  0  0  0  0
 32163  1  0  0  0  0
 32164  1  0  0  0  0
 32165  1  0  0  0  0
 43166  1  0  0  0  0
 43167  1  0  0  0  0
 44168  1  0  0  0  0
 44169  1  0  0  0  0
 44170  1  0  0  0  0
 51171  1  0  0  0  0
 58172  1  0  0  0  0
 59173  1  0  0  0  0
 62174  1  0  0  0  0
 62175  1  0  0  0  0
 62176  1  0  0  0  0
 63177  1  0  0  0  0
 64178  1  0  0  0  0
 66179  1  0  0  0  0
 67180  1  0  0  0  0
 70181  1  0  0  0  0
 70182  1  0  0  0  0
 70183  1  0  0  0  0
 71184  1  0  0  0  0
 72185  1  0  0  0  0
 79186  1  0  0  0  0
 80187  1  0  0  0  0
 83188  1  0  0  0  0
 83189  1  0  0  0  0
 83190  1  0  0  0  0
 84191  1  0  0  0  0
 85192  1  0  0  0  0
 87193  1  0  0  0  0
 88194  1  0  0  0  0
 91195  1  0  0  0  0
 91196  1  0  0  0  0
 91197  1  0  0  0  0
 92198  1  0  0  0  0
 93199  1  0  0  0  0
 97200  1  0  0  0  0
103201  1  0  0  0  0
103202  1  0  0  0  0
104203  1  0  0  0  0
104204  1  0  0  0  0
104205  1  0  0  0  0
115206  1  0  0  0  0
115207  1  0  0  0  0
116208  1  0  0  0  0
116209  1  0  0  0  0
116210  1  0  0  0  0
123211  1  0  0  0  0
126212  1  0  0  0  0
131213  1  0  0  0  0
134214  1  0  0  0  0
142215  1  0  0  0  0
143216  1  0  0  0  0
144217  1  0  0  0  0
145218  1  0  0  0  0
146219  1  0  0  0  0
147220  1  0  0  0  0
147221  1  0  0  0  0
148222  1  0  0  0  0
M  END
