194

C         -3.54060       -8.56700        0.68180
C         -4.13820       -8.86260       -0.51610
C         -4.02290       -8.06610       -1.73940
O         -3.22960       -7.16620       -1.96490
C         -5.05500       -8.57480       -2.65790
C         -5.41010       -8.05200       -3.89730
C         -6.45560       -8.70550       -4.50390
C         -7.07400       -9.82810       -3.93870
C         -6.72470      -10.36330       -2.72130
C         -5.68880       -9.68860       -2.07080
C         -5.09060       -9.92500       -0.75740
C         -5.37270      -10.98420        0.06800
C         -4.76610      -11.22710        1.31730
N         -4.31850      -11.50000        2.34000
C         -6.29590      -12.00660       -0.23190
N         -7.02780      -12.87440       -0.40660
C         -8.03620       -9.97830       -5.09180
C         -9.50260       -9.53660       -4.86600
C         -9.46340       -8.50270       -3.76880
C         -8.89110       -7.41240       -4.26110
C         -8.54080       -7.68650       -5.70380
C         -9.69520       -8.62570       -6.08860
C         -7.37080       -8.70410       -5.70130
C         -2.70460       -7.49670        1.02630
C         -2.37500       -7.22140        2.35160
C         -1.61240       -6.07960        2.52500
S         -1.13850       -5.45000        4.09530
C         -1.37260       -6.89650        5.20480
C         -0.65810       -6.61790        6.51260
C         -1.31700       -5.43810        1.30810
S         -2.01530       -6.29830       -0.03480
C         -0.55540       -4.26020        1.12660
C         -0.35900       -3.47270       -0.01450
N         -0.89920       -3.62150       -1.28220
C         -0.02440       -3.29700       -2.34180
C         -0.38310       -2.37430       -3.32430
C          0.50400       -2.05300       -4.32570
C          1.76920       -2.63890       -4.36760
S          2.81380       -2.14470       -5.69860
C          4.36850       -3.03020       -5.39190
C          2.12980       -3.55610       -3.38960
C          1.23700       -3.88060       -2.38680
C         -2.24490       -3.84570       -1.55170
C         -3.23760       -3.60810       -0.59860
C         -4.56210       -3.84770       -0.89730
C         -4.92850       -4.31030       -2.15600
S         -6.64370       -4.60930       -2.46240
C         -6.76820       -4.35850       -4.26250
C         -3.94660       -4.54210       -3.11000
C         -2.62240       -4.32140       -2.80820
C          0.53010       -2.40320        0.25560
S          1.11190       -1.06170       -0.66860
C          1.94990       -0.41100        0.73830
C          1.81730       -1.22900        1.85180
N          2.28850       -0.98480        3.13500
C          1.43450       -1.37060        4.18660
C          1.89290       -2.14730        5.24980
C          1.01210       -2.59910        6.20700
C         -0.34180       -2.29050        6.12070
S         -1.40970       -2.95990        7.35810
C         -3.00180       -3.06250        6.48630
C         -0.79570       -1.47600        5.09290
C          0.08780       -1.01920        4.13610
C          3.64280       -0.77170        3.41100
C          4.00060       -0.03160        4.54040
C          5.32390        0.10900        4.88730
C          6.32280       -0.48360        4.11550
S          7.97410       -0.33270        4.71600
C          8.89780       -1.54430        3.73290
C          5.97630       -1.16310        2.95560
C          4.64600       -1.30970        2.60930
C          0.99490       -2.34650        1.55530
S          0.35940       -3.63860        2.50570
C          2.48770        0.90540        0.60260
C          3.53540        1.53520        1.20700
C          3.65770        2.90080        0.85250
C          4.64430        3.80730        1.28050
C          5.84410        3.39270        1.98100
C          6.49790        4.02030        2.99930
C          7.76960        3.47820        3.30240
C          8.64310        3.98000        4.40600
C          8.17720        3.41980        5.75080
C          8.06660        2.43450        2.47700
Cl         9.54090        1.57510        2.40860
S          6.78920        2.06080        1.36360
C          4.47570        5.13410        0.89820
C          3.43140        5.56850        0.03870
C          2.51400        4.63210       -0.49320
C          1.53630        4.98830       -1.49650
C          0.28290        4.46860       -1.67240
C         -0.39720        4.95300       -2.81030
C         -1.75390        4.48140       -3.22470
C         -1.66230        3.09550       -3.86580
C          0.37430        5.84350       -3.50180
S          1.91780        6.11780       -2.76960
Cl        -0.05180        6.66580       -4.93880
C          2.63430        3.32680       -0.03070
S          1.61190        1.98970       -0.47120
C          3.46170        6.95960       -0.17420
C          4.50510        7.59610        0.45100
S          5.50450        6.45420        1.35290
C          4.89810        8.95280        0.51690
C          4.37160       10.08070       -0.04420
C          3.22010       10.21850       -0.97030
O          2.41150        9.37990       -1.31250
C          3.22380       11.62310       -1.41430
C          2.35190       12.20130       -2.33460
C          2.58700       13.53450       -2.56590
C          3.62300       14.23890       -1.93650
C          4.48940       13.68020       -1.02820
C          4.25770       12.32590       -0.76640
C          4.94200       11.40960        0.14080
C          5.90360       11.77700        1.04550
C          6.52970       10.94110        1.99580
N          7.08520       10.35870        2.81580
C          6.39480       13.09190        1.19640
N          6.84250       14.13250        1.38260
C          3.27660       15.52990       -2.63510
C          2.52120       16.60830       -1.81970
C          1.75550       15.87500       -0.74640
C          0.77180       15.20810       -1.33520
C          0.85430       15.47890       -2.81730
C          1.37970       16.92320       -2.79960
C          2.11910       14.74660       -3.33100
H         -3.78760       -9.20240        1.52400
H         -4.88250       -7.20510       -4.30650
H         -7.21710      -11.22170       -2.29590
H         -7.95930      -10.90670       -5.65400
H        -10.20650      -10.35370       -4.73410
H         -9.78960       -8.68310       -2.76150
H         -8.64360       -6.50790       -3.73800
H         -8.37750       -6.81440       -6.33290
H        -10.66240       -8.12510       -6.09220
H         -9.54140       -9.13570       -7.03870
H         -6.89640       -8.78870       -6.67760
H         -2.73250       -7.84150        3.15310
H         -2.44180       -7.03680        5.36380
H         -0.94920       -7.76440        4.70060
H         -1.05190       -5.72060        6.98400
H          0.40570       -6.47390        6.33970
H         -0.79370       -7.45760        7.19050
H         -1.35500       -1.90590       -3.28740
H          0.23510       -1.33360       -5.08360
H          4.20500       -4.10250       -5.44660
H          4.77670       -2.73860       -4.42870
H          5.04110       -2.72070       -6.18590
H          3.09830       -4.02910       -3.39700
H          1.51660       -4.59640       -1.62750
H         -2.96780       -3.22860        0.37570
H         -5.32680       -3.67290       -0.15560
H         -6.44510       -5.24910       -4.79400
H         -7.81730       -4.16970       -4.46860
H         -6.17490       -3.49440       -4.54410
H         -4.20300       -4.91270       -4.08920
H         -1.86730       -4.54350       -3.54540
H          2.93570       -2.42120        5.30360
H          1.35950       -3.22020        7.01790
H         -2.83310       -3.47720        5.49700
H         -3.47050       -2.08420        6.43200
H         -3.62240       -3.73100        7.07480
H         -1.83450       -1.19470        5.02680
H         -0.26860       -0.39680        3.32800
H          3.22720        0.41170        5.14890
H          5.60270        0.66610        5.76820
H          8.42080       -2.51680        3.81230
H          9.89060       -1.57950        4.17080
H          8.96650       -1.21810        2.69920
H          6.73010       -1.59790        2.31950
H          4.38080       -1.85930        1.71800
H          4.21120        1.05060        1.88420
H          6.08460        4.85530        3.53560
H          8.59880        5.07050        4.42700
H          9.67540        3.67840        4.22380
H          7.15100        3.71920        5.95120
H          8.22500        2.33320        5.74250
H          8.81110        3.79120        6.55180
H         -0.17330        3.78180       -0.98320
H         -2.39980        4.43380       -2.34560
H         -2.18680        5.18710       -3.93460
H         -1.21850        2.38450       -3.17260
H         -1.04360        3.13470       -4.75910
H         -2.65230        2.74270       -4.14410
H          2.73200        7.49770       -0.74930
H          5.78970        9.09420        1.11660
H          1.57420       11.61700       -2.80100
H          5.28320       14.23700       -0.55960
H          4.05540       15.95490       -3.26500
H          3.13940       17.43760       -1.48670
H          2.03460       15.87070        0.29100
H          0.06450       14.53450       -0.88790
H         -0.04660       15.28060       -3.39220
H          0.65750       17.62890       -2.39190
H          1.72570       17.27120       -3.77190
H          2.13810       14.66430       -4.41610
