214

C          8.31520        2.56860        6.67410
C          9.04990        3.68430        6.95630
C          8.68050        5.07950        6.65140
O          7.60020        5.50450        6.29250
C          9.90040        5.87830        6.86510
C         10.06210        7.23910        6.61250
C         11.32870        7.70730        6.86540
C         12.35860        6.88410        7.34090
C         12.20890        5.54410        7.60710
C         10.92720        5.04500        7.35190
C         10.40170        3.68880        7.48810
C         11.06720        2.63260        8.05440
C         10.54440        1.33510        8.23840
N         10.19930        0.25720        8.43570
C         12.37790        2.70040        8.57130
N         13.43950        2.67880        9.00850
C         13.36470        8.00820        7.34260
C         14.37800        8.02540        6.17830
C         14.89410        9.44620        6.16860
C         13.91890       10.22670        5.72080
C         12.72740        9.34640        5.42010
C         13.44970        8.07430        4.95770
C         12.21590        8.92630        6.81470
C          7.04990        2.43340        6.06440
C          6.55930        1.19740        5.68350
C          5.33070        1.25100        5.00840
C          4.61110        0.17740        4.43710
C          5.02620       -1.21460        4.63430
C          5.12640       -2.09670        3.56470
C          5.50080       -3.41450        3.75150
C          5.77690       -3.88740        5.03070
O          6.12510       -5.16160        5.35130
C          6.36690       -6.10740        4.33040
C          7.71870       -5.90680        3.65140
C          5.67250       -3.00600        6.11040
C          5.30780       -1.69400        5.91490
C          3.50110        0.51800        3.68710
C          3.02830        1.85060        3.57400
C          3.68330        2.90930        4.22800
C          3.11690        4.26120        4.22740
C          3.89040        5.38090        3.94610
C          3.34630        6.65180        3.96520
C          2.00360        6.83300        4.28210
O          1.35740        8.02630        4.36280
C          2.03050        9.21950        4.01730
C          2.14640        9.41090        2.50750
C          1.22350        5.71010        4.57150
C          1.76830        4.44760        4.54150
C          4.86310        2.58870        4.88640
S          5.95200        3.72730        5.63000
C          1.91450        1.93900        2.70830
C          1.52020        0.73680        2.18900
S          2.48990       -0.59320        2.79110
C          0.47510        0.48040        1.23850
C         -0.24350        1.46450        0.57320
F          0.02720        2.76830        0.75390
C         -1.28600        1.16010       -0.30470
F         -1.92370        2.18350       -0.90290
C         -1.67610       -0.13750       -0.58310
C         -0.89950       -1.17450       -0.00330
N         -1.18850       -2.45340       -0.28290
C         -0.51530       -3.41590        0.29870
C         -0.93090       -4.81020       -0.05220
C         -2.02510       -5.29030        0.90450
C          0.49870       -3.11080        1.24940
N          0.78680       -1.86120        1.52010
C          0.13210       -0.86420        0.91320
C          1.31800       -4.14190        1.96230
C          2.57990       -4.45620        1.15540
C         -2.85280       -0.44770       -1.35470
C         -4.11960        0.10130       -1.20620
N         -4.49200        0.98500       -0.21160
C         -5.49990        1.92680       -0.45910
C         -5.62060        2.53300       -1.70940
C         -6.63390        3.43440       -1.94570
C         -7.54110        3.76000       -0.93940
S         -8.79870        4.92330       -1.36460
C         -9.81820        5.03670        0.13350
C         -7.40900        3.17620        0.31360
C         -6.39860        2.26480        0.54810
C         -3.81550        0.98610        1.01910
C         -3.45490       -0.21250        1.63100
C         -2.64450       -0.21950        2.74930
C         -2.18820        0.97850        3.28450
S         -1.05200        1.08980        4.62970
C         -0.49620       -0.61980        4.87640
C         -2.62640        2.18140        2.73310
C         -3.43150        2.18780        1.61570
C         -5.01170       -0.46210       -2.15360
S         -6.67860       -0.24380       -2.55500
C         -6.55400       -1.40970       -3.86700
C         -5.27970       -1.96200       -3.95350
N         -4.90150       -3.02880       -4.76540
C         -4.71320       -2.80230       -6.14550
C         -5.27480       -3.66080       -7.08570
C         -5.11480       -3.40660       -8.43070
C         -4.38070       -2.29940       -8.85540
S         -4.23750       -2.06740      -10.59940
C         -3.40110       -0.46540      -10.76500
C         -3.80700       -1.45310       -7.91920
C         -3.98080       -1.70150       -6.57070
C         -4.30350       -4.12970       -4.15190
C         -3.32380       -4.87760       -4.80030
C         -2.73120       -5.95900       -4.17750
C         -3.10640       -6.31420       -2.89040
S         -2.38900       -7.65450       -1.98560
C         -1.41370       -8.54700       -3.22870
C         -4.09600       -5.57930       -2.24110
C         -4.69090       -4.50630       -2.86280
C         -4.42670       -1.42330       -2.96400
S         -2.77810       -1.72020       -2.54820
C         -7.74430       -1.81590       -4.52980
C         -7.89870       -1.95300       -5.87610
C         -7.12230       -1.17690       -6.87150
O         -6.21010       -0.40840       -6.64630
C         -7.80160       -1.39370       -8.16190
C         -7.45010       -0.85420       -9.39660
C         -8.28390       -1.21460      -10.42740
C         -9.41590       -2.01940      -10.23890
C         -9.78000       -2.55400       -9.02660
C         -8.92330       -2.22670       -7.97170
C         -8.98300       -2.61460       -6.56780
C         -9.83460       -3.53280       -6.00960
C         -9.75370       -3.96270       -4.66860
N         -9.72170       -4.37660       -3.59780
C        -10.86330       -4.19730       -6.70660
N        -11.72050       -4.76670       -7.21620
C         -9.82190       -1.92750      -11.68920
C         -9.56810       -3.15690      -12.59380
C         -8.41630       -3.90770      -11.97250
C         -7.32120       -3.17980      -12.14300
C         -7.71130       -1.92550      -12.88470
C         -8.84510       -2.47420      -13.76590
C         -8.54190       -1.05950      -11.90430
H          8.77860        1.61220        6.88800
H          9.24090        7.83500        6.24620
H         13.01150        4.92580        7.97260
H         13.81770        8.23980        8.30450
H         15.12210        7.23430        6.21100
H         15.86400        9.73450        6.52890
H         13.91150       11.29730        5.63250
H         11.96790        9.75900        4.76140
H         12.80060        7.20630        4.85790
H         13.99820        8.22700        4.02960
H         11.90150        9.77060        7.42540
H          7.10400        0.28520        5.85480
H          4.93470       -1.74280        2.56320
H          5.57230       -4.05750        2.88840
H          6.35160       -7.07140        4.84660
H          5.55380       -6.09950        3.59330
H          7.88030       -6.69060        2.91640
H          7.76550       -4.94050        3.15510
H          8.51170       -5.94890        4.39370
H          5.88280       -3.38330        7.09870
H          5.21300       -1.03340        6.76410
H          4.93080        5.26310        3.68420
H          3.98700        7.48850        3.73610
H          1.41050       10.01330        4.44400
H          3.01740        9.26040        4.49430
H          2.62030       10.36500        2.29350
H          2.73490        8.61420        2.05890
H          1.15640        9.39870        2.05870
H          0.18610        5.86080        4.82550
H          1.15330        3.59500        4.79030
H          1.44840        2.87600        2.47110
H         -1.33560       -4.79660       -1.06480
H         -0.08170       -5.49140       -0.01610
H         -2.33960       -6.29240        0.62570
H         -2.88270       -4.62480        0.84610
H         -1.66900       -5.30700        1.93270
H          1.61630       -3.72960        2.92720
H          0.74050       -5.05190        2.12180
H          3.17350       -5.20470        1.67400
H          2.32750       -4.83550        0.16730
H          3.17480       -3.55400        1.04080
H         -4.90750        2.30530       -2.48680
H         -6.73160        3.90320       -2.91260
H        -10.62270        5.72260       -0.11310
H         -9.23210        5.43790        0.95520
H        -10.22750        4.06080        0.37750
H         -8.08910        3.41410        1.11530
H         -6.30520        1.80590        1.52140
H         -3.78750       -1.14960        1.20890
H         -2.36940       -1.16580        3.18740
H          0.31400       -0.56140        5.59680
H         -0.12500       -1.02940        3.94130
H         -1.30480       -1.22200        5.28110
H         -2.29470        3.11060        3.17000
H         -3.72840        3.12310        1.16620
H         -5.84490       -4.51560       -6.75260
H         -5.56560       -4.05470       -9.16730
H         -3.38490       -0.25350      -11.82970
H         -2.38430       -0.53220      -10.38880
H         -3.96460        0.30230      -10.24320
H         -3.23350       -0.59130       -8.21790
H         -3.54690       -1.03470       -5.84180
H         -3.01070       -4.60330       -5.79640
H         -1.96760       -6.50530       -4.70750
H         -1.06170       -9.44750       -2.73500
H         -0.56570       -7.94590       -3.54470
H         -2.04690       -8.81000       -4.07080
H         -4.39800       -5.86740       -1.24630
H         -5.46960       -3.95780       -2.35500
H         -8.58960       -2.01060       -3.87880
H         -6.59050       -0.21080       -9.49400
H        -10.65800       -3.16390       -8.89120
H        -10.78670       -1.46090      -11.87850
H        -10.45550       -3.74060      -12.82370
H         -8.52450       -4.83460      -11.44020
H         -6.32730       -3.37190      -11.78590
H         -6.90240       -1.39450      -13.37930
H         -8.49170       -3.18330      -14.51290
H         -9.43700       -1.69670      -14.24740
H         -8.66870       -0.03970      -12.26370
