159

C         -5.42940        0.00890       -4.66850
C         -4.87080        0.05460       -5.91760
C         -3.44410       -0.08990       -6.22660
O         -2.52030       -0.19990       -5.43550
C         -3.33730       -0.07920       -7.69460
C         -2.17930       -0.22510       -8.45540
C         -2.38460       -0.14800       -9.81160
C         -3.65270        0.04890      -10.37380
C         -4.80600        0.17780       -9.63670
C         -4.61830        0.11020       -8.25280
C         -5.59220        0.20430       -7.16700
C         -6.93770        0.41660       -7.32520
C         -7.88510        0.52580       -6.28590
N         -8.72230        0.63070       -5.50570
C         -7.58370        0.56840       -8.57040
N         -8.18110        0.70070       -9.54200
C         -3.11760        0.03980      -11.78370
C         -2.97690        1.41390      -12.47270
C         -2.00930        1.15310      -13.60450
C         -0.80790        0.96630      -13.07320
C         -0.94320        1.09780      -11.57320
C         -2.05110        2.15650      -11.50050
C         -1.70310       -0.17990      -11.15680
C         -4.82270       -0.10970       -3.40780
C         -5.57070       -0.18050       -2.23620
C         -4.81170       -0.26660       -1.07390
S         -5.44480       -0.32650        0.55510
C         -7.16930        0.26000        0.33600
C         -7.73830        0.54600        1.71270
C         -3.44050       -0.25960       -1.34610
S         -3.11840       -0.16480       -3.05100
C         -2.32840       -0.28700       -0.45710
C         -2.15920       -0.86100        0.79090
N         -3.10670       -1.63940        1.48440
C         -3.03500       -3.02200        1.19180
C         -2.65610       -3.94340        2.16840
C         -2.57470       -5.28350        1.86440
C         -2.85190       -5.73530        0.57510
S         -2.71350       -7.47560        0.30870
C         -3.23800       -7.69970       -1.41450
C         -3.20050       -4.81880       -0.40620
C         -3.28980       -3.47390       -0.09650
C         -3.59590       -1.19140        2.71030
C         -4.55770       -1.94050        3.39430
C         -5.11580       -1.46860        4.55940
C         -4.74460       -0.22890        5.07440
S         -5.54260        0.27980        6.56980
C         -4.62200        1.76460        7.06420
C         -3.81650        0.53520        4.38620
C         -3.25260        0.05930        3.21740
C         -0.83920       -0.67900        1.25920
S         -0.01050       -1.17120        2.69320
C          1.47330       -0.44520        2.09810
C          1.30810        0.20400        0.88140
N          2.27210        0.97670        0.26200
C          3.15690        1.75420        1.02520
C          4.48050        1.91430        0.61530
C          5.35930        2.65290        1.37520
C          4.93990        3.24650        2.56390
S          6.14570        4.18530        3.44960
C          5.35760        4.50640        5.05270
C          3.62170        3.09780        2.97240
C          2.73990        2.36210        2.20590
C          2.25210        1.09490       -1.13530
C          1.94560       -0.00890       -1.92670
C          1.84490        0.11250       -3.29900
C          2.06790        1.34100       -3.90320
S          1.95620        1.61110       -5.64190
C          0.99240        0.19090       -6.23410
C          2.42290        2.43720       -3.11900
C          2.50790        2.32040       -1.75070
C         -0.01320        0.03200        0.40100
S         -0.85640        0.48580       -1.03570
C          2.68790       -0.55920        2.84070
C          3.95500       -0.72370        2.34750
C          4.94790       -0.74420        3.34470
S          6.63350       -1.02340        2.89070
C          7.14450       -2.33800        4.05570
C          6.25800       -3.56280        3.96450
C          4.44790       -0.58210        4.61680
S          2.70930       -0.46460        4.57740
C          5.11650       -0.56480        5.90460
C          4.62560       -1.35250        6.93170
C          5.27410       -1.42660        8.15930
C          6.43180       -0.70790        8.38330
C          7.12220       -0.82650        9.67650
O          6.72400       -1.54910       10.56830
N          8.27090       -0.06910        9.83420
C          8.95930       -0.16750       11.11750
C          8.42870        0.86550       12.10320
C          8.79980        0.81030        8.90380
O          9.80090        1.45100        9.15290
C          8.09160        0.91250        7.61670
C          8.56520        1.77210        6.64700
C          7.88300        1.91060        5.43780
C          6.75300        1.17420        5.18660
C          6.26640        0.24800        6.13070
C          6.93270        0.14530        7.37930
H         -6.50950        0.06470       -4.61160
H         -1.22430       -0.38820       -7.98280
H         -5.77460        0.31700      -10.08600
H         -3.52220       -0.72700      -12.44130
H         -3.91810        1.89040      -12.73250
H         -2.29890        1.07970      -14.63620
H          0.10690        0.70570      -13.57230
H         -0.03050        1.28840      -11.01480
H         -1.72700        3.11810      -11.89470
H         -2.46960        2.29430      -10.50520
H         -1.16320       -1.09420      -11.39610
H         -6.64530       -0.16560       -2.25700
H         -7.14300        1.16020       -0.27730
H         -7.73770       -0.52220       -0.16690
H         -7.71120       -0.34990        2.32910
H         -8.76880        0.88270        1.62650
H         -7.15630        1.31770        2.21120
H         -2.42340       -3.59950        3.16510
H         -2.28540       -5.99790        2.61990
H         -4.25260       -7.33410       -1.54300
H         -3.20680       -8.77040       -1.59140
H         -2.54740       -7.19600       -2.08470
H         -3.40920       -5.13310       -1.41610
H         -3.56440       -2.76970       -0.86600
H         -4.87860       -2.89010        2.99550
H         -5.85780       -2.05310        5.08170
H         -3.56290        1.53400        7.13040
H         -5.00460        2.03450        8.04350
H         -4.80710        2.57310        6.36250
H         -3.52430        1.51120        4.73950
H         -2.55220        0.68680        2.68800
H          4.81550        1.44980       -0.29970
H          6.38520        2.76930        1.06260
H          4.52970        5.19930        4.93300
H          6.12680        4.95810        5.67130
H          5.03240        3.56980        5.49650
H          3.26360        3.55740        3.87950
H          1.71370        2.26340        2.52770
H          1.78490       -0.97150       -1.46320
H          1.59140       -0.75760       -3.88200
H          1.56940       -0.72500       -6.14170
H          0.05380        0.12810       -5.68910
H          0.81020        0.39920       -7.28430
H          2.60990        3.38610       -3.59760
H          2.75560        3.18070       -1.14740
H          4.17970       -0.86170        1.30660
H          8.16490       -2.56500        3.74820
H          7.16090       -1.92340        5.06280
H          6.24630       -3.95040        2.94830
H          5.23720       -3.32300        4.25600
H          6.63290       -4.33680        4.63080
H          3.73630       -1.94210        6.76210
H          4.89470       -2.06000        8.94670
H          8.79400       -1.17670       11.49880
H         10.02200       -0.00320       10.93090
H          8.95440        0.77290       13.04930
H          8.58310        1.86900       11.71330
H          7.36640        0.70800       12.27570
H          9.45730        2.34430        6.85220
H          8.23960        2.61040        4.69820
H          6.22220        1.31010        4.25750
