
  xtb     02042216533D
 energy: -286.743206044022 gnorm: 0.000583757427 xtb: 6.4.1 (unknown)
168185  0     0  0            999 V2000
   -2.9742    3.5945    6.2225 C   0  0  0  0  0  0  0  0  0  0  0  0
   -4.3146    3.3129    6.3033 C   0  0  0  0  0  0  0  0  0  0  0  0
   -5.1541    2.8857    5.1810 C   0  0  0  0  0  0  0  0  0  0  0  0
   -4.8135    2.7347    4.0184 O   0  0  0  0  0  0  0  0  0  0  0  0
   -6.5143    2.7276    5.7166 C   0  0  0  0  0  0  0  0  0  0  0  0
   -7.6512    2.3301    5.0177 C   0  0  0  0  0  0  0  0  0  0  0  0
   -8.7907    2.2847    5.7842 C   0  0  0  0  0  0  0  0  0  0  0  0
   -8.7987    2.6127    7.1461 C   0  0  0  0  0  0  0  0  0  0  0  0
   -7.6818    2.9990    7.8490 C   0  0  0  0  0  0  0  0  0  0  0  0
   -6.5116    3.0515    7.0883 C   0  0  0  0  0  0  0  0  0  0  0  0
   -5.1486    3.4055    7.4814 C   0  0  0  0  0  0  0  0  0  0  0  0
   -4.7442    3.7053    8.7583 C   0  0  0  0  0  0  0  0  0  0  0  0
   -3.4175    3.9651    9.1554 C   0  0  0  0  0  0  0  0  0  0  0  0
   -2.3618    4.1604    9.5665 N   0  0  0  0  0  0  0  0  0  0  0  0
   -5.5987    3.7639    9.8779 C   0  0  0  0  0  0  0  0  0  0  0  0
   -6.2247    3.8340   10.8383 N   0  0  0  0  0  0  0  0  0  0  0  0
  -10.2822    2.3748    7.2764 C   0  0  0  0  0  0  0  0  0  0  0  0
  -11.2084    3.6156    7.3202 C   0  0  0  0  0  0  0  0  0  0  0  0
  -10.4886    4.7159    6.5806 C   0  0  0  0  0  0  0  0  0  0  0  0
  -10.4817    4.4007    5.2923 C   0  0  0  0  0  0  0  0  0  0  0  0
  -11.1968    3.0812    5.1377 C   0  0  0  0  0  0  0  0  0  0  0  0
  -12.2414    3.2065    6.2581 C   0  0  0  0  0  0  0  0  0  0  0  0
  -10.2727    2.0050    5.7596 C   0  0  0  0  0  0  0  0  0  0  0  0
   -2.0749    3.3228    5.1833 C   0  0  0  0  0  0  0  0  0  0  0  0
   -0.7006    3.5225    5.3033 C   0  0  0  0  0  0  0  0  0  0  0  0
    0.0399    2.9699    4.2740 C   0  0  0  0  0  0  0  0  0  0  0  0
    1.8097    3.0483    4.2237 S   0  0  0  0  0  0  0  0  0  0  0  0
    2.0337    4.5912    3.2602 C   0  0  0  0  0  0  0  0  0  0  0  0
    1.6633    5.8291    4.0480 C   0  0  0  0  0  0  0  0  0  0  0  0
   -0.7459    2.2747    3.3496 C   0  0  0  0  0  0  0  0  0  0  0  0
   -2.4354    2.4988    3.6857 S   0  0  0  0  0  0  0  0  0  0  0  0
   -0.2881    1.4714    2.2781 C   0  0  0  0  0  0  0  0  0  0  0  0
   -0.9051    0.3955    1.6300 C   0  0  0  0  0  0  0  0  0  0  0  0
   -2.0816   -0.2384    1.9758 N   0  0  0  0  0  0  0  0  0  0  0  0
   -2.5358   -0.3348    3.2926 C   0  0  0  0  0  0  0  0  0  0  0  0
   -1.6450   -0.4106    4.3624 C   0  0  0  0  0  0  0  0  0  0  0  0
   -2.0980   -0.3233    5.6638 C   0  0  0  0  0  0  0  0  0  0  0  0
   -3.4564   -0.1864    5.9185 C   0  0  0  0  0  0  0  0  0  0  0  0
   -4.1391    0.0823    7.5248 S   0  0  0  0  0  0  0  0  0  0  0  0
   -2.6963    0.5444    8.5238 C   0  0  0  0  0  0  0  0  0  0  0  0
   -4.3587   -0.2349    4.8580 C   0  0  0  0  0  0  0  0  0  0  0  0
   -3.9072   -0.3012    3.5611 C   0  0  0  0  0  0  0  0  0  0  0  0
   -2.8508   -0.7975    0.9380 C   0  0  0  0  0  0  0  0  0  0  0  0
   -3.3869   -2.0741    1.0678 C   0  0  0  0  0  0  0  0  0  0  0  0
   -4.1182   -2.6375    0.0405 C   0  0  0  0  0  0  0  0  0  0  0  0
   -4.3190   -1.9314   -1.1387 C   0  0  0  0  0  0  0  0  0  0  0  0
   -5.2178   -2.5488   -2.5244 S   0  0  0  0  0  0  0  0  0  0  0  0
   -5.6573   -4.2436   -2.0457 C   0  0  0  0  0  0  0  0  0  0  0  0
   -3.7943   -0.6460   -1.2661 C   0  0  0  0  0  0  0  0  0  0  0  0
   -3.0725   -0.0823   -0.2390 C   0  0  0  0  0  0  0  0  0  0  0  0
   -0.1208   -0.0405    0.5322 C   0  0  0  0  0  0  0  0  0  0  0  0
   -0.2709   -1.3223   -0.6244 S   0  0  0  0  0  0  0  0  0  0  0  0
    1.2288   -0.8349   -1.3913 C   0  0  0  0  0  0  0  0  0  0  0  0
    1.8441    0.2193   -0.7395 C   0  0  0  0  0  0  0  0  0  0  0  0
    3.0806    0.7513   -1.0731 N   0  0  0  0  0  0  0  0  0  0  0  0
    4.0912   -0.0895   -1.5735 C   0  0  0  0  0  0  0  0  0  0  0  0
    4.3102   -1.3445   -1.0165 C   0  0  0  0  0  0  0  0  0  0  0  0
    5.2781   -2.1852   -1.5293 C   0  0  0  0  0  0  0  0  0  0  0  0
    6.0426   -1.7786   -2.6122 C   0  0  0  0  0  0  0  0  0  0  0  0
    7.2944   -2.7775   -3.3595 S   0  0  0  0  0  0  0  0  0  0  0  0
    7.1521   -4.3772   -2.5113 C   0  0  0  0  0  0  0  0  0  0  0  0
    5.8436   -0.5133   -3.1618 C   0  0  0  0  0  0  0  0  0  0  0  0
    4.8818    0.3261   -2.6444 C   0  0  0  0  0  0  0  0  0  0  0  0
    3.4050    2.0642   -0.7024 C   0  0  0  0  0  0  0  0  0  0  0  0
    4.6715    2.3564   -0.2021 C   0  0  0  0  0  0  0  0  0  0  0  0
    4.9941    3.6325    0.2145 C   0  0  0  0  0  0  0  0  0  0  0  0
    4.0516    4.6488    0.1381 C   0  0  0  0  0  0  0  0  0  0  0  0
    4.3210    6.3040    0.6929 S   0  0  0  0  0  0  0  0  0  0  0  0
    6.0643    6.3201    1.1975 C   0  0  0  0  0  0  0  0  0  0  0  0
    2.7938    4.3712   -0.3896 C   0  0  0  0  0  0  0  0  0  0  0  0
    2.4734    3.0987   -0.8066 C   0  0  0  0  0  0  0  0  0  0  0  0
    1.0560    0.6653    0.3512 C   0  0  0  0  0  0  0  0  0  0  0  0
    1.2928    1.8402    1.5882 S   0  0  0  0  0  0  0  0  0  0  0  0
    1.7688   -1.5869   -2.5117 C   0  0  0  0  0  0  0  0  0  0  0  0
    2.0240   -2.9612   -2.3710 C   0  0  0  0  0  0  0  0  0  0  0  0
    2.8237   -3.6496   -3.2498 C   0  0  0  0  0  0  0  0  0  0  0  0
    3.4135   -3.0088   -4.3549 C   0  0  0  0  0  0  0  0  0  0  0  0
    2.9765   -1.6997   -4.6261 C   0  0  0  0  0  0  0  0  0  0  0  0
    3.2685   -0.8095   -5.7250 C   0  0  0  0  0  0  0  0  0  0  0  0
    3.7941   -1.1910   -6.9214 C   0  0  0  0  0  0  0  0  0  0  0  0
    4.2747   -0.4216   -8.0200 C   0  0  0  0  0  0  0  0  0  0  0  0
    4.5073    0.9864   -8.0867 C   0  0  0  0  0  0  0  0  0  0  0  0
    5.0512    1.3700   -9.2595 C   0  0  0  0  0  0  0  0  0  0  0  0
    5.3087    0.0388  -10.3327 S   0  0  0  0  0  0  0  0  0  0  0  0
    4.6780   -1.0436   -9.1864 C   0  0  0  0  0  0  0  0  0  0  0  0
    2.6305    0.4814   -5.3729 C   0  0  0  0  0  0  0  0  0  0  0  0
    2.5933    1.5316   -5.9805 O   0  0  0  0  0  0  0  0  0  0  0  0
    1.9537    0.2781   -4.1852 N   0  0  0  0  0  0  0  0  0  0  0  0
    0.9493    1.2144   -3.7422 C   0  0  0  0  0  0  0  0  0  0  0  0
   -0.4611    0.6810   -3.9775 C   0  0  0  0  0  0  0  0  0  0  0  0
    2.1711   -1.0003   -3.7087 C   0  0  0  0  0  0  0  0  0  0  0  0
    4.5400   -3.5211   -5.0772 C   0  0  0  0  0  0  0  0  0  0  0  0
    5.0448   -4.7725   -5.2489 C   0  0  0  0  0  0  0  0  0  0  0  0
    4.4768   -6.0915   -4.8470 C   0  0  0  0  0  0  0  0  0  0  0  0
    3.4019   -6.3304   -4.3403 O   0  0  0  0  0  0  0  0  0  0  0  0
    5.5075   -7.0734   -5.2091 C   0  0  0  0  0  0  0  0  0  0  0  0
    6.5766   -6.4222   -5.8102 C   0  0  0  0  0  0  0  0  0  0  0  0
    7.8608   -7.4769   -6.2823 S   0  0  0  0  0  0  0  0  0  0  0  0
    6.9597   -8.8272   -5.6647 C   0  0  0  0  0  0  0  0  0  0  0  0
    7.2041  -10.2106   -5.5897 C   0  0  0  0  0  0  0  0  0  0  0  0
    6.1623  -10.8579   -5.0025 C   0  0  0  0  0  0  0  0  0  0  0  0
    4.8625   -9.8201   -4.5261 S   0  0  0  0  0  0  0  0  0  0  0  0
    5.7215   -8.4539   -5.1254 C   0  0  0  0  0  0  0  0  0  0  0  0
    6.3352   -5.0119   -5.8994 C   0  0  0  0  0  0  0  0  0  0  0  0
    7.1905   -4.1189   -6.4956 C   0  0  0  0  0  0  0  0  0  0  0  0
    6.9926   -2.7387   -6.6875 C   0  0  0  0  0  0  0  0  0  0  0  0
    6.9045   -1.6182   -6.9282 N   0  0  0  0  0  0  0  0  0  0  0  0
    8.4176   -4.5618   -7.0336 C   0  0  0  0  0  0  0  0  0  0  0  0
    9.4156   -4.9148   -7.4769 N   0  0  0  0  0  0  0  0  0  0  0  0
   -2.5022    4.0323    7.0941 H   0  0  0  0  0  0  0  0  0  0  0  0
   -7.6001    2.0889    3.9672 H   0  0  0  0  0  0  0  0  0  0  0  0
   -7.7064    3.2461    8.8970 H   0  0  0  0  0  0  0  0  0  0  0  0
  -10.5828    1.6081    7.9876 H   0  0  0  0  0  0  0  0  0  0  0  0
  -11.5799    3.8664    8.3101 H   0  0  0  0  0  0  0  0  0  0  0  0
  -10.0225    5.5555    7.0621 H   0  0  0  0  0  0  0  0  0  0  0  0
  -10.0081    4.9240    4.4823 H   0  0  0  0  0  0  0  0  0  0  0  0
  -11.5582    2.8448    4.1402 H   0  0  0  0  0  0  0  0  0  0  0  0
  -12.7495    2.2701    6.4848 H   0  0  0  0  0  0  0  0  0  0  0  0
  -12.9764    3.9860    6.0630 H   0  0  0  0  0  0  0  0  0  0  0  0
  -10.5648    0.9944    5.4804 H   0  0  0  0  0  0  0  0  0  0  0  0
   -0.2557    4.0151    6.1500 H   0  0  0  0  0  0  0  0  0  0  0  0
    3.0905    4.5867    2.9988 H   0  0  0  0  0  0  0  0  0  0  0  0
    1.4454    4.5001    2.3479 H   0  0  0  0  0  0  0  0  0  0  0  0
    1.8701    6.7132    3.4484 H   0  0  0  0  0  0  0  0  0  0  0  0
    0.6053    5.8215    4.3034 H   0  0  0  0  0  0  0  0  0  0  0  0
    2.2435    5.8842    4.9661 H   0  0  0  0  0  0  0  0  0  0  0  0
   -0.5849   -0.4962    4.1755 H   0  0  0  0  0  0  0  0  0  0  0  0
   -1.3799   -0.3488    6.4675 H   0  0  0  0  0  0  0  0  0  0  0  0
   -2.0587   -0.3193    8.6880 H   0  0  0  0  0  0  0  0  0  0  0  0
   -2.1546    1.3480    8.0324 H   0  0  0  0  0  0  0  0  0  0  0  0
   -3.0902    0.8912    9.4743 H   0  0  0  0  0  0  0  0  0  0  0  0
   -5.4161   -0.1716    5.0649 H   0  0  0  0  0  0  0  0  0  0  0  0
   -4.6111   -0.2678    2.7447 H   0  0  0  0  0  0  0  0  0  0  0  0
   -3.2233   -2.6297    1.9794 H   0  0  0  0  0  0  0  0  0  0  0  0
   -4.5162   -3.6306    0.1709 H   0  0  0  0  0  0  0  0  0  0  0  0
   -6.1818   -4.6604   -2.8999 H   0  0  0  0  0  0  0  0  0  0  0  0
   -6.3153   -4.2299   -1.1817 H   0  0  0  0  0  0  0  0  0  0  0  0
   -4.7565   -4.8180   -1.8502 H   0  0  0  0  0  0  0  0  0  0  0  0
   -3.9652   -0.0983   -2.1800 H   0  0  0  0  0  0  0  0  0  0  0  0
   -2.6763    0.9174   -0.3374 H   0  0  0  0  0  0  0  0  0  0  0  0
    3.7199   -1.6640   -0.1705 H   0  0  0  0  0  0  0  0  0  0  0  0
    5.4242   -3.1498   -1.0716 H   0  0  0  0  0  0  0  0  0  0  0  0
    7.8670   -5.0316   -3.0017 H   0  0  0  0  0  0  0  0  0  0  0  0
    6.1460   -4.7713   -2.6274 H   0  0  0  0  0  0  0  0  0  0  0  0
    7.4166   -4.2703   -1.4636 H   0  0  0  0  0  0  0  0  0  0  0  0
    6.4432   -0.2058   -4.0051 H   0  0  0  0  0  0  0  0  0  0  0  0
    4.7255    1.3045   -3.0734 H   0  0  0  0  0  0  0  0  0  0  0  0
    5.4067    1.5695   -0.1228 H   0  0  0  0  0  0  0  0  0  0  0  0
    5.9800    3.8134    0.6109 H   0  0  0  0  0  0  0  0  0  0  0  0
    6.2167    5.6505    2.0391 H   0  0  0  0  0  0  0  0  0  0  0  0
    6.2713    7.3423    1.4990 H   0  0  0  0  0  0  0  0  0  0  0  0
    6.6947    6.0486    0.3558 H   0  0  0  0  0  0  0  0  0  0  0  0
    2.0691    5.1672   -0.4668 H   0  0  0  0  0  0  0  0  0  0  0  0
    1.4905    2.9106   -1.2106 H   0  0  0  0  0  0  0  0  0  0  0  0
    1.6392   -3.4621   -1.4950 H   0  0  0  0  0  0  0  0  0  0  0  0
    3.0507   -4.6826   -3.0521 H   0  0  0  0  0  0  0  0  0  0  0  0
    3.8796   -2.2611   -7.0812 H   0  0  0  0  0  0  0  0  0  0  0  0
    4.2583    1.6605   -7.2905 H   0  0  0  0  0  0  0  0  0  0  0  0
    5.3289    2.3552   -9.5767 H   0  0  0  0  0  0  0  0  0  0  0  0
    4.6306   -2.0912   -9.4127 H   0  0  0  0  0  0  0  0  0  0  0  0
    1.1117    2.1230   -4.3290 H   0  0  0  0  0  0  0  0  0  0  0  0
    1.0926    1.4435   -2.6866 H   0  0  0  0  0  0  0  0  0  0  0  0
   -0.6326   -0.2306   -3.4091 H   0  0  0  0  0  0  0  0  0  0  0  0
   -1.1903    1.4246   -3.6675 H   0  0  0  0  0  0  0  0  0  0  0  0
   -0.6112    0.4653   -5.0328 H   0  0  0  0  0  0  0  0  0  0  0  0
    5.1464   -2.7274   -5.4977 H   0  0  0  0  0  0  0  0  0  0  0  0
    8.0946  -10.6916   -5.9486 H   0  0  0  0  0  0  0  0  0  0  0  0
    6.0734  -11.9095   -4.8143 H   0  0  0  0  0  0  0  0  0  0  0  0
  1  2  2  0  0  0  0
  2  3  1  0  0  0  0
  3  4  2  0  0  0  0
  3  5  1  0  0  0  0
  5  6  2  0  0  0  0
  6  7  1  0  0  0  0
  7  8  2  0  0  0  0
  8  9  1  0  0  0  0
  9 10  2  0  0  0  0
 10 11  1  0  0  0  0
 11 12  2  0  0  0  0
 12 13  1  0  0  0  0
 13 14  3  0  0  0  0
 12 15  1  0  0  0  0
 15 16  3  0  0  0  0
  8 17  1  0  0  0  0
 17 18  1  0  0  0  0
 18 19  1  0  0  0  0
 19 20  2  0  0  0  0
 20 21  1  0  0  0  0
 21 22  1  0  0  0  0
 21 23  1  0  0  0  0
  1 24  1  0  0  0  0
 24 25  2  0  0  0  0
 25 26  1  0  0  0  0
 26 27  1  0  0  0  0
 27 28  1  0  0  0  0
 28 29  1  0  0  0  0
 26 30  2  0  0  0  0
 30 31  1  0  0  0  0
 30 32  1  0  0  0  0
 32 33  2  0  0  0  0
 33 34  1  0  0  0  0
 34 35  1  0  0  0  0
 35 36  2  0  0  0  0
 36 37  1  0  0  0  0
 37 38  2  0  0  0  0
 38 39  1  0  0  0  0
 39 40  1  0  0  0  0
 38 41  1  0  0  0  0
 41 42  2  0  0  0  0
 34 43  1  0  0  0  0
 43 44  2  0  0  0  0
 44 45  1  0  0  0  0
 45 46  2  0  0  0  0
 46 47  1  0  0  0  0
 47 48  1  0  0  0  0
 46 49  1  0  0  0  0
 49 50  2  0  0  0  0
 33 51  1  0  0  0  0
 51 52  1  0  0  0  0
 52 53  1  0  0  0  0
 53 54  2  0  0  0  0
 54 55  1  0  0  0  0
 55 56  1  0  0  0  0
 56 57  2  0  0  0  0
 57 58  1  0  0  0  0
 58 59  2  0  0  0  0
 59 60  1  0  0  0  0
 60 61  1  0  0  0  0
 59 62  1  0  0  0  0
 62 63  2  0  0  0  0
 55 64  1  0  0  0  0
 64 65  2  0  0  0  0
 65 66  1  0  0  0  0
 66 67  2  0  0  0  0
 67 68  1  0  0  0  0
 68 69  1  0  0  0  0
 67 70  1  0  0  0  0
 70 71  2  0  0  0  0
 54 72  1  0  0  0  0
 72 73  1  0  0  0  0
 53 74  1  0  0  0  0
 74 75  2  0  0  0  0
 75 76  1  0  0  0  0
 76 77  2  0  0  0  0
 77 78  1  0  0  0  0
 78 79  1  0  0  0  0
 79 80  2  0  0  0  0
 80 81  1  0  0  0  0
 81 82  1  0  0  0  0
 82 83  2  0  0  0  0
 83 84  1  0  0  0  0
 84 85  1  0  0  0  0
 79 86  1  0  0  0  0
 86 87  2  0  0  0  0
 86 88  1  0  0  0  0
 88 89  1  0  0  0  0
 89 90  1  0  0  0  0
 88 91  1  0  0  0  0
 77 92  1  0  0  0  0
 92 93  2  0  0  0  0
 93 94  1  0  0  0  0
 94 95  2  0  0  0  0
 94 96  1  0  0  0  0
 96 97  2  0  0  0  0
 97 98  1  0  0  0  0
 98 99  1  0  0  0  0
 99100  1  0  0  0  0
100101  2  0  0  0  0
101102  1  0  0  0  0
102103  1  0  0  0  0
 97104  1  0  0  0  0
104105  2  0  0  0  0
105106  1  0  0  0  0
106107  3  0  0  0  0
105108  1  0  0  0  0
108109  3  0  0  0  0
 11  2  1  0  0  0  0
 23 17  1  0  0  0  0
 31 24  1  0  0  0  0
 73 32  1  0  0  0  0
 91 74  1  0  0  0  0
104 93  1  0  0  0  0
 10  5  1  0  0  0  0
 22 18  1  0  0  0  0
 42 35  1  0  0  0  0
 50 43  1  0  0  0  0
 72 51  2  0  0  0  0
 91 78  2  0  0  0  0
103 96  1  0  0  0  0
 23  7  1  0  0  0  0
 63 56  1  0  0  0  0
 71 64  1  0  0  0  0
 85 81  2  0  0  0  0
103 99  2  0  0  0  0
  1110  1  0  0  0  0
  6111  1  0  0  0  0
  9112  1  0  0  0  0
 17113  1  0  0  0  0
 18114  1  0  0  0  0
 19115  1  0  0  0  0
 20116  1  0  0  0  0
 21117  1  0  0  0  0
 22118  1  0  0  0  0
 22119  1  0  0  0  0
 23120  1  0  0  0  0
 25121  1  0  0  0  0
 28122  1  0  0  0  0
 28123  1  0  0  0  0
 29124  1  0  0  0  0
 29125  1  0  0  0  0
 29126  1  0  0  0  0
 36127  1  0  0  0  0
 37128  1  0  0  0  0
 40129  1  0  0  0  0
 40130  1  0  0  0  0
 40131  1  0  0  0  0
 41132  1  0  0  0  0
 42133  1  0  0  0  0
 44134  1  0  0  0  0
 45135  1  0  0  0  0
 48136  1  0  0  0  0
 48137  1  0  0  0  0
 48138  1  0  0  0  0
 49139  1  0  0  0  0
 50140  1  0  0  0  0
 57141  1  0  0  0  0
 58142  1  0  0  0  0
 61143  1  0  0  0  0
 61144  1  0  0  0  0
 61145  1  0  0  0  0
 62146  1  0  0  0  0
 63147  1  0  0  0  0
 65148  1  0  0  0  0
 66149  1  0  0  0  0
 69150  1  0  0  0  0
 69151  1  0  0  0  0
 69152  1  0  0  0  0
 70153  1  0  0  0  0
 71154  1  0  0  0  0
 75155  1  0  0  0  0
 76156  1  0  0  0  0
 80157  1  0  0  0  0
 82158  1  0  0  0  0
 83159  1  0  0  0  0
 85160  1  0  0  0  0
 89161  1  0  0  0  0
 89162  1  0  0  0  0
 90163  1  0  0  0  0
 90164  1  0  0  0  0
 90165  1  0  0  0  0
 92166  1  0  0  0  0
100167  1  0  0  0  0
101168  1  0  0  0  0
M  END
