170

C         -2.43580        2.57230        6.30570
C         -3.50630        2.12500        7.00770
C         -4.15550        0.79470        6.88580
O         -3.78600       -0.16380        6.23850
C         -5.41030        0.88980        7.65460
C         -6.36330       -0.11330        7.82720
C         -7.46090        0.27300        8.55670
C         -7.60850        1.56700        9.07510
C         -6.67340        2.56160        8.92510
C         -5.54110        2.18500        8.19420
C         -4.34780        2.95140        7.86200
C         -4.03000        4.19080        8.34680
C         -2.81580        4.87330        8.11320
N         -1.85510        5.49280        8.00410
C         -4.85860        4.95100        9.19980
N         -5.47960        5.62380        9.89240
C         -8.94920        1.25360        9.69140
C         -8.96700        1.01610       11.21620
C        -10.26400        0.27620       11.45140
C        -10.12330       -0.95000       10.96420
C         -8.72840       -1.05960       10.39160
C         -7.97230       -0.14280       11.36170
C         -8.78260       -0.19020        9.11740
C         -1.56010        1.82830        5.45110
C         -1.10580        2.47010        4.27360
N         -1.22300        3.74130        3.87070
N         -0.56540        3.78490        2.74470
C         -0.35870        5.02530        2.04980
C         -1.05500        5.04410        0.69480
N         -0.03870        2.66580        2.33070
C         -0.36030        1.77940        3.28310
C         -0.02920        0.41100        3.42620
C         -0.30170       -0.13210        4.67570
C         -1.03750        0.55480        5.66340
Cl        -1.19840       -0.18760        7.19760
Cl         0.20940       -1.74060        5.02110
C          0.52420       -0.29480        2.30430
C          0.12220       -0.13020        0.98410
N         -0.99260        0.56010        0.55340
C         -2.12840        0.72770        1.35290
C         -2.85660        1.91540        1.27810
C         -3.92320        2.13810        2.12080
C         -4.29790        1.17260        3.04880
S         -5.64370        1.55640        4.13240
C         -6.38840       -0.07930        4.39270
C         -3.61010       -0.03290        3.09680
C         -2.54300       -0.25520        2.25040
C         -0.95410        1.12880       -0.73030
C          0.17430        1.83030       -1.15040
C          0.24780        2.31490       -2.44110
C         -0.80620        2.10830       -3.31910
S         -0.68060        2.69730       -4.99080
C         -0.92230        1.13050       -5.88830
C         -1.95810        1.46620       -2.88410
C         -2.03160        0.97220       -1.59930
C          0.95780       -0.87040        0.11180
S          1.07130       -1.03810       -1.60410
C          2.43340       -2.14100       -1.43450
C          2.78860       -2.34030       -0.10320
N          3.83100       -3.11320        0.37990
C          3.59810       -3.74740        1.61820
C          4.48160       -3.61080        2.68320
C          4.19700       -4.18330        3.90740
C          3.01780       -4.89510        4.08710
S          2.53690       -5.64130        5.60960
C          3.69220       -4.93670        6.81970
C          2.14240       -5.05380        3.01400
C          2.42940       -4.48890        1.79250
C          5.11960       -3.06750       -0.15290
C          5.98960       -4.13700        0.05570
C          7.28290       -4.10470       -0.42770
C          7.72960       -3.00430       -1.14720
S          9.36610       -2.83560       -1.78860
C         10.11680       -4.46410       -1.50440
C          6.85620       -1.94350       -1.37940
C          5.57080       -1.96970       -0.88770
C          1.93240       -1.61240        0.75920
S          1.83900       -1.43800        2.47550
C          2.98570       -2.67360       -2.62770
C          3.76030       -3.80870       -2.79600
C          4.06830       -4.04630       -4.12790
S          4.97640       -5.45240       -4.67920
C          6.60370       -5.07450       -3.93010
C          7.23490       -3.86880       -4.59440
C          3.55110       -3.09280       -5.01830
S          2.62140       -1.90400       -4.14520
C          3.86650       -3.08400       -6.38100
C          3.47920       -2.21740       -7.36990
C          2.46600       -1.16590       -7.24770
O          1.87440       -0.81850       -6.23730
C          2.27130       -0.62150       -8.60260
C          1.39440        0.38960       -8.98730
C          1.42160        0.67480      -10.33120
C          2.25780        0.00130      -11.23080
C          3.13420       -0.99270      -10.86410
C          3.12790       -1.29280       -9.49970
C          3.93730       -2.24580       -8.74300
C          4.99900       -2.95870       -9.23860
C          5.88470       -3.74380       -8.47200
N          6.68380       -4.36330       -7.92570
C          5.40180       -2.95480      -10.58990
N          5.78380       -3.00660      -11.67180
C          1.77050        0.80540      -12.40980
C          2.68900        1.93490      -12.93810
C          3.53440        2.38180      -11.77110
C          2.74370        3.02080      -10.91930
C          1.34910        3.01750      -11.49500
C          1.67510        3.08870      -12.99530
C          0.83970        1.55740      -11.40670
H         -2.25160        3.63950        6.27180
H         -6.21690       -1.10050        7.41700
H         -6.80070        3.55290        9.32650
H         -9.78420        1.85920        9.34460
H         -8.79350        1.90450       11.81690
H        -11.13990        0.72330       11.88360
H        -10.85810       -1.73160       10.90780
H         -8.33840       -2.06300       10.24260
H         -7.95190       -0.54280       12.37410
H         -6.95920        0.09930       11.04580
H         -9.50830       -0.54840        8.38910
H         -0.74420        5.81070        2.70160
H          0.71830        5.15590        1.91230
H         -2.13260        4.97570        0.81960
H         -0.70840        4.21490        0.08200
H         -0.82520        5.97400        0.18240
H         -2.56990        2.66560        0.55840
H         -4.47040        3.06720        2.07590
H         -5.73400       -0.68540        5.01140
H         -6.56120       -0.54740        3.42850
H         -7.33040        0.09630        4.90270
H         -3.88290       -0.79550        3.80670
H         -2.02150       -1.19930        2.29260
H          0.98850        1.98010       -0.45680
H          1.12380        2.84570       -2.77940
H         -0.02480        0.52340       -5.79830
H         -1.78210        0.60450       -5.48770
H         -1.10650        1.39870       -6.92410
H         -2.79590        1.34390       -3.55400
H         -2.91700        0.45400       -1.26200
H          5.38890       -3.03930        2.55510
H          4.89760       -4.05440        4.71640
H          3.33680       -5.26880        7.79030
H          3.66010       -3.85270        6.76480
H          4.69630       -5.31410        6.64880
H          1.23480       -5.61950        3.15620
H          1.74530       -4.60430        0.96460
H          5.64930       -5.00080        0.60780
H          7.92910       -4.94620       -0.23620
H         10.22820       -4.64590       -0.43940
H          9.51690       -5.23550       -1.97840
H         11.09540       -4.41810       -1.97220
H          7.20600       -1.09050       -1.94020
H          4.91520       -1.12980       -1.05770
H          4.05030       -4.46640       -1.99780
H          6.45520       -4.92540       -2.86060
H          7.19120       -5.97570       -4.09990
H          8.23480       -3.70390       -4.20040
H          6.64160       -2.97530       -4.40520
H          7.30380       -4.02380       -5.66910
H          4.52700       -3.89650       -6.66390
H          0.77120        0.88890       -8.26340
H          3.77170       -1.50110      -11.56790
H          1.30350        0.23990      -13.21370
H          3.22350        1.69100      -13.85220
H          4.57630        2.14410      -11.66150
H          2.99190        3.42390       -9.95500
H          0.66320        3.75980      -11.09530
H          0.81880        2.88260      -13.63610
H          2.13020        4.03530      -13.28280
H         -0.23590        1.48330      -11.55600
