256

C          0.61970        4.30220      -10.21370
C          1.82190        3.92960      -10.73830
C          2.79810        2.98620      -10.13440
O          2.63100        2.20250       -9.22500
C          4.07230        3.23530      -10.83370
C          5.29920        2.63780      -10.55420
C          6.32250        3.05500      -11.37000
C          6.14270        4.00690      -12.38350
C          4.93940        4.60790      -12.66580
C          3.88140        4.18860      -11.85330
C          2.47800        4.58680      -11.85620
C          1.86990        5.37460      -12.79740
C          2.53680        5.97420      -13.88600
N          3.01570        6.49300      -14.79140
C          0.48850        5.66120      -12.84160
N         -0.62200        5.92910      -12.95900
C          7.58870        3.94430      -12.80750
C          7.92660        3.14990      -14.09330
C          6.84650        2.10820      -14.24950
C          7.01420        1.20470      -13.29320
C          8.21090        1.61900      -12.47290
C          9.07320        2.27380      -13.56370
C          7.78750        2.88140      -11.68130
C         -0.08650        3.70070       -9.14380
C         -0.07320        2.41650       -8.66700
C         -0.88440        2.22290       -7.52900
C         -1.05130        1.03610       -6.79070
C         -0.30880       -0.19200       -7.09320
C         -0.95680       -1.42470       -7.12330
C         -0.24690       -2.58470       -7.36580
C          1.12570       -2.54940       -7.58030
C          1.90190       -3.81260       -7.81560
C          2.45310       -4.36690       -6.50020
C          1.77060       -1.31830       -7.53430
C          1.07010       -0.15220       -7.29590
C         -1.88030        1.11780       -5.68530
C         -2.50450        2.31630       -5.26230
C         -2.38290        3.48810       -6.02660
C         -3.09460        4.71380       -5.64330
C         -2.45210        5.94630       -5.58550
C         -3.14600        7.08660       -5.23160
C         -4.50220        7.03470       -4.93670
C         -5.24630        8.26910       -4.51790
C         -5.20580        8.42850       -2.99650
C         -5.14460        5.80390       -4.99760
C         -4.45430        4.65920       -5.34300
C         -1.56370        3.40960       -7.14240
S         -1.20220        4.71880       -8.23260
C         -3.07450        2.18620       -3.96820
C         -2.91600        0.94940       -3.42860
S         -2.13860       -0.16910       -4.53840
C         -3.05120        0.55280       -2.05580
C         -2.42990        1.17910       -0.99110
N         -1.71360        2.36800       -1.04510
C         -1.63940        3.11800        0.13500
C         -2.78570        3.27210        0.91660
C         -2.70800        3.86710        2.15780
C         -1.48320        4.31050        2.63390
S         -1.34430        4.93610        4.29210
C         -1.98340        3.49590        5.20300
C         -0.35660        4.24490        1.82650
C         -0.43320        3.65580        0.58130
C         -0.83730        2.61570       -2.11470
C         -0.12070        1.57410       -2.70480
C          0.67870        1.81120       -3.79890
C          0.80610        3.09990       -4.31460
S          1.84180        3.26140       -5.73310
C          1.83980        5.03800       -6.09300
C          0.13260        4.14750       -3.70130
C         -0.68740        3.90430       -2.61560
C         -2.51250        0.37800        0.17310
S         -1.81460        0.53060        1.73850
C         -2.30460       -1.12380        2.12680
C         -3.09930       -1.69240        1.14260
N         -3.79470       -2.88110        1.22150
C         -4.35640       -3.36390        2.40940
C         -4.81490       -4.67890        2.47410
C         -5.34050       -5.19990        3.63860
C         -5.41030       -4.41900        4.78270
S         -5.99110       -4.99500        6.34470
C         -6.40200       -6.73650        6.04800
C         -5.00290       -3.08960        4.71380
C         -4.49830       -2.56500        3.54520
C         -4.07330       -3.52690       -0.00510
C         -5.37610       -3.83930       -0.37710
C         -5.63380       -4.45170       -1.58840
C         -4.58910       -4.75360       -2.45290
S         -4.79470       -5.52530       -4.02460
C         -6.59540       -5.63100       -4.23150
C         -3.28250       -4.43890       -2.08470
C         -3.02720       -3.83080       -0.87590
C         -3.15990       -0.83300        0.00660
S         -3.72540       -1.00860       -1.62140
C         -1.61050       -1.67520        3.25170
C         -0.90500       -2.86100        3.34920
N         -0.95170       -3.92370        2.42280
C         -1.63470       -5.08470        2.80100
C         -1.92870       -5.34350        4.14240
C         -2.58980       -6.49300        4.51380
C         -2.99050       -7.42040        3.55990
S         -3.84880       -8.86060        4.13330
C         -3.69730      -10.01840        2.74380
C         -2.75960       -7.14780        2.22050
C         -2.10320       -5.99190        1.84840
C         -0.21220       -3.82720        1.23610
C          0.05580       -2.59250        0.64300
C          0.62540       -2.50870       -0.61400
C          0.97000       -3.65960       -1.30590
S          1.57100       -3.67040       -2.96780
C          1.08960       -2.03630       -3.59510
C          0.86150       -4.88480       -0.65130
C          0.29840       -4.96590        0.60240
C         -0.05560       -2.85280        4.47960
S          1.13860       -3.93220        5.10680
C          1.52760       -2.80960        6.40500
C          0.75470       -1.64840        6.34040
N          0.95400       -0.49140        7.08670
C          1.28990        0.68120        6.40640
C          1.99140        0.61670        5.19910
C          2.33640        1.76830        4.53070
C          2.01040        3.01820        5.05370
S          2.54570        4.42200        4.12950
C          2.13230        5.83480        5.18920
C          1.30990        3.08990        6.24950
C          0.94640        1.93310        6.91210
C          0.58660       -0.46340        8.44280
C          1.43950        0.07730        9.40220
C          1.08120        0.05640       10.73170
C         -0.13860       -0.49440       11.12420
S         -0.49510       -0.47990       12.85350
C         -1.97890       -1.51490       13.00110
C         -0.99710       -1.01560       10.16890
C         -0.63030       -1.00660        8.83620
C         -0.11930       -1.69180        5.23420
S         -1.24920       -0.56950        4.56900
C          2.70930       -3.03310        7.15500
C          2.87050       -2.82620        8.49450
C          1.78590       -2.98980        9.48800
O          0.61750       -3.22820        9.25880
C          2.45080       -2.98120       10.80520
C          1.84790       -3.12190       12.05220
C          2.72320       -3.07510       13.11050
C          4.10770       -2.93840       12.94200
C          4.71990       -2.81360       11.71820
C          3.84180       -2.82930       10.63120
C          4.12150       -2.70680        9.20590
C          5.32950       -2.40140        8.63100
C          6.53790       -2.25280        9.33920
N          7.55470       -2.13140        9.85920
C          5.49590       -2.14960        7.25340
N          5.68460       -1.89720        6.14880
C          4.37640       -3.00420       14.42480
C          4.70840       -1.68280       15.15890
C          4.06510       -0.57780       14.35770
C          2.75180       -0.68000       14.51050
C          2.48310       -1.85490       15.41730
C          3.71770       -1.77970       16.33010
C          2.83170       -3.13260       14.61330
H          0.16310        5.20760      -10.59750
H          5.39340        1.91400       -9.75970
H          4.81860        5.34490      -13.44210
H          8.14800        4.87490      -12.73520
H          8.12800        3.76680      -14.96480
H          6.06190        2.16490      -14.98110
H          6.39710        0.35530      -13.06560
H          8.67200        0.84160      -11.86940
H          9.91100        2.84710      -13.16890
H          9.43220        1.55880      -14.30230
H          8.47870        3.11580      -10.87400
H          0.48010        1.62450       -9.13250
H         -2.02710       -1.47140       -6.98340
H         -0.76730       -3.53130       -7.39450
H          1.25560       -4.56160       -8.27750
H          2.73250       -3.61120       -8.49570
H          3.11640       -3.64520       -6.02880
H          1.64420       -4.58790       -5.80790
H          3.01240       -5.28190       -6.67950
H          2.83840       -1.26950       -7.69160
H          1.59550        0.78920       -7.24870
H         -1.39760        6.01230       -5.80610
H         -2.62780        8.03410       -5.18890
H         -4.79670        9.14810       -4.98390
H         -6.28600        8.20310       -4.84480
H         -4.17740        8.50910       -2.65090
H         -5.66190        7.56750       -2.51280
H         -5.74490        9.32290       -2.69340
H         -6.20150        5.74390       -4.77910
H         -4.97400        3.71410       -5.40740
H         -3.53320        3.00220       -3.43950
H         -3.73290        2.90280        0.55070
H         -3.59790        3.97200        2.75990
H         -1.42100        2.61360        4.91080
H         -1.83100        3.70380        6.25670
H         -3.04170        3.36380        5.00100
H          0.58670        4.61710        2.19430
H          0.45150        3.56580       -0.03070
H         -0.20510        0.57590       -2.30150
H          1.21500        1.00230       -4.27160
H          0.83640        5.36880       -6.34420
H          2.48850        5.15710       -6.95570
H          2.24080        5.59100       -5.24860
H          0.22610        5.15790       -4.06360
H         -1.22480        4.72010       -2.15500
H         -4.75380       -5.31190        1.60380
H         -5.68080       -6.22200        3.64020
H         -6.72780       -7.12590        7.00750
H         -5.52370       -7.27810        5.70850
H         -7.21210       -6.80810        5.32800
H         -5.09190       -2.46640        5.59050
H         -4.23040       -1.52110        3.51840
H         -6.19330       -3.59520        0.28560
H         -6.65530       -4.67790       -1.84770
H         -7.02160       -6.29380       -3.48400
H         -6.75070       -6.04760       -5.22180
H         -7.03170       -4.63800       -4.17640
H         -2.47230       -4.67240       -2.75810
H         -2.01520       -3.57570       -0.60270
H         -1.64940       -4.64700        4.91480
H         -2.79430       -6.68030        5.55680
H         -4.35270       -9.72140        1.92980
H         -4.00570      -10.98550        3.12840
H         -2.66170      -10.05810        2.41990
H         -3.10380       -7.81740        1.44780
H         -1.98350       -5.78500        0.79650
H         -0.18120       -1.67510        1.15260
H          0.78850       -1.53220       -1.04180
H          1.71210       -1.26570       -3.14910
H          0.03630       -1.86390       -3.39290
H          1.25320       -2.06550       -4.66820
H          1.21940       -5.77630       -1.14260
H          0.24890       -5.92250        1.09810
H          2.28380       -0.34050        4.79450
H          2.88150        1.71320        3.60110
H          1.05330        5.92360        5.28070
H          2.61170        5.71920        6.15680
H          2.53170        6.70690        4.68080
H          1.02810        4.04100        6.67140
H          0.38870        2.00280        7.83430
H          2.38820        0.49450        9.09690
H          1.74920        0.45080       11.48250
H         -2.14150       -1.64350       14.06670
H         -2.83390       -1.01250       12.55760
H         -1.80360       -2.47890       12.53280
H         -1.94740       -1.44410       10.44110
H         -1.29180       -1.42980        8.09610
H          3.55200       -3.39820        6.57770
H          0.78140       -3.25260       12.14000
H          5.78690       -2.72150       11.59880
H          4.99850       -3.83340       14.75610
H          5.75980       -1.55200       15.40090
H          4.61300        0.10740       13.73750
H          1.97510       -0.09960       14.04940
H          1.50630       -1.87450       15.89300
H          3.72180       -0.89110       16.95950
H          3.85870       -2.66740       16.94550
H          2.44750       -4.03450       15.08660
