
  xtb     02052203243D
 energy: -290.064594521931 gnorm: 0.000493512945 xtb: 6.4.1 (unknown)
177193  0     0  0            999 V2000
    1.0329   -3.2755    6.5284 C   0  0  0  0  0  0  0  0  0  0  0  0
    2.3088   -2.8074    6.6875 C   0  0  0  0  0  0  0  0  0  0  0  0
    2.9207   -1.7070    5.9361 C   0  0  0  0  0  0  0  0  0  0  0  0
    2.4282   -1.0640    5.0224 O   0  0  0  0  0  0  0  0  0  0  0  0
    4.2570   -1.5022    6.5169 C   0  0  0  0  0  0  0  0  0  0  0  0
    5.1924   -0.5365    6.1502 C   0  0  0  0  0  0  0  0  0  0  0  0
    6.3480   -0.5670    6.8929 C   0  0  0  0  0  0  0  0  0  0  0  0
    6.5611   -1.4949    7.9211 C   0  0  0  0  0  0  0  0  0  0  0  0
    5.6509   -2.4582    8.2869 C   0  0  0  0  0  0  0  0  0  0  0  0
    4.4645   -2.4417    7.5475 C   0  0  0  0  0  0  0  0  0  0  0  0
    3.2794   -3.2913    7.6498 C   0  0  0  0  0  0  0  0  0  0  0  0
    3.1474   -4.3753    8.4780 C   0  0  0  0  0  0  0  0  0  0  0  0
    4.1383   -4.8179    9.3794 C   0  0  0  0  0  0  0  0  0  0  0  0
    4.8935   -5.2354   10.1369 N   0  0  0  0  0  0  0  0  0  0  0  0
    2.0266   -5.2278    8.5515 C   0  0  0  0  0  0  0  0  0  0  0  0
    1.1676   -5.9796    8.6841 N   0  0  0  0  0  0  0  0  0  0  0  0
    7.9249   -0.9402    8.2485 C   0  0  0  0  0  0  0  0  0  0  0  0
    8.0212   -0.0464    9.5031 C   0  0  0  0  0  0  0  0  0  0  0  0
    9.3085    0.7205    9.3028 C   0  0  0  0  0  0  0  0  0  0  0  0
    9.1070    1.5999    8.3299 C   0  0  0  0  0  0  0  0  0  0  0  0
    7.6799    1.4424    7.8562 C   0  0  0  0  0  0  0  0  0  0  0  0
    7.0047    1.0559    9.1785 C   0  0  0  0  0  0  0  0  0  0  0  0
    7.6873    0.0951    7.1025 C   0  0  0  0  0  0  0  0  0  0  0  0
    0.0641   -2.9368    5.5712 C   0  0  0  0  0  0  0  0  0  0  0  0
   -1.1863   -3.5426    5.5270 C   0  0  0  0  0  0  0  0  0  0  0  0
   -1.9472   -3.1872    4.4202 C   0  0  0  0  0  0  0  0  0  0  0  0
   -3.5879   -3.7840    4.1685 S   0  0  0  0  0  0  0  0  0  0  0  0
   -4.4770   -2.2239    3.8075 C   0  0  0  0  0  0  0  0  0  0  0  0
   -4.3806   -1.2338    4.9499 C   0  0  0  0  0  0  0  0  0  0  0  0
   -1.2742   -2.3121    3.5768 C   0  0  0  0  0  0  0  0  0  0  0  0
    0.2577   -1.8336    4.2327 S   0  0  0  0  0  0  0  0  0  0  0  0
   -1.6402   -1.8922    2.2634 C   0  0  0  0  0  0  0  0  0  0  0  0
   -2.0429   -2.7025    1.2076 C   0  0  0  0  0  0  0  0  0  0  0  0
   -2.0988   -4.0830    1.2694 N   0  0  0  0  0  0  0  0  0  0  0  0
   -1.1395   -4.7579    2.0465 C   0  0  0  0  0  0  0  0  0  0  0  0
   -1.4948   -5.8305    2.8577 C   0  0  0  0  0  0  0  0  0  0  0  0
   -0.5801   -6.3806    3.7365 C   0  0  0  0  0  0  0  0  0  0  0  0
    0.7081   -5.8691    3.8137 C   0  0  0  0  0  0  0  0  0  0  0  0
    1.9247   -6.3866    4.9847 S   0  0  0  0  0  0  0  0  0  0  0  0
    1.0942   -7.6853    5.9384 C   0  0  0  0  0  0  0  0  0  0  0  0
    1.0924   -4.8560    2.9375 C   0  0  0  0  0  0  0  0  0  0  0  0
    0.1828   -4.3113    2.0607 C   0  0  0  0  0  0  0  0  0  0  0  0
   -3.0619   -4.7788    0.5366 C   0  0  0  0  0  0  0  0  0  0  0  0
   -2.7782   -6.0380    0.0056 C   0  0  0  0  0  0  0  0  0  0  0  0
   -3.7280   -6.7104   -0.7278 C   0  0  0  0  0  0  0  0  0  0  0  0
   -4.9810   -6.1437   -0.9578 C   0  0  0  0  0  0  0  0  0  0  0  0
   -6.1094   -7.1005   -1.9211 S   0  0  0  0  0  0  0  0  0  0  0  0
   -7.5483   -6.0112   -2.1193 C   0  0  0  0  0  0  0  0  0  0  0  0
   -5.2705   -4.8957   -0.4257 C   0  0  0  0  0  0  0  0  0  0  0  0
   -4.3197   -4.2239    0.3177 C   0  0  0  0  0  0  0  0  0  0  0  0
   -2.2282   -1.9299    0.0325 C   0  0  0  0  0  0  0  0  0  0  0  0
   -2.7543   -2.2684   -1.5812 S   0  0  0  0  0  0  0  0  0  0  0  0
   -2.4217   -0.6097   -2.0621 C   0  0  0  0  0  0  0  0  0  0  0  0
   -1.9953    0.1713   -1.0049 C   0  0  0  0  0  0  0  0  0  0  0  0
   -1.7808    1.5357   -1.0509 N   0  0  0  0  0  0  0  0  0  0  0  0
   -0.7336    2.0439   -0.2802 C   0  0  0  0  0  0  0  0  0  0  0  0
   -0.8240    3.2800    0.3593 C   0  0  0  0  0  0  0  0  0  0  0  0
    0.1854    3.6962    1.2012 C   0  0  0  0  0  0  0  0  0  0  0  0
    1.2945    2.8865    1.4332 C   0  0  0  0  0  0  0  0  0  0  0  0
    2.5137    3.4693    2.5716 S   0  0  0  0  0  0  0  0  0  0  0  0
    3.3077    1.9378    3.1445 C   0  0  0  0  0  0  0  0  0  0  0  0
    1.4157    1.6811    0.7559 C   0  0  0  0  0  0  0  0  0  0  0  0
    0.4150    1.2716   -0.0989 C   0  0  0  0  0  0  0  0  0  0  0  0
   -2.6514    2.3426   -1.7959 C   0  0  0  0  0  0  0  0  0  0  0  0
   -4.0104    2.0269   -1.8487 C   0  0  0  0  0  0  0  0  0  0  0  0
   -4.8754    2.7860   -2.6011 C   0  0  0  0  0  0  0  0  0  0  0  0
   -4.4109    3.8882   -3.3155 C   0  0  0  0  0  0  0  0  0  0  0  0
   -5.6150    4.8010   -4.2210 S   0  0  0  0  0  0  0  0  0  0  0  0
   -4.6140    5.8373   -5.3217 C   0  0  0  0  0  0  0  0  0  0  0  0
   -3.0657    4.2224   -3.2489 C   0  0  0  0  0  0  0  0  0  0  0  0
   -2.1969    3.4527   -2.4996 C   0  0  0  0  0  0  0  0  0  0  0  0
   -1.8894   -0.5951    0.1824 C   0  0  0  0  0  0  0  0  0  0  0  0
   -1.3788   -0.2234    1.7889 S   0  0  0  0  0  0  0  0  0  0  0  0
   -2.6058   -0.2154   -3.4361 C   0  0  0  0  0  0  0  0  0  0  0  0
   -3.7005   -0.6539   -4.1634 C   0  0  0  0  0  0  0  0  0  0  0  0
   -3.9158   -0.2560   -5.4757 C   0  0  0  0  0  0  0  0  0  0  0  0
   -3.0332    0.5851   -6.1351 C   0  0  0  0  0  0  0  0  0  0  0  0
   -1.8408    0.9644   -5.4500 C   0  0  0  0  0  0  0  0  0  0  0  0
   -0.8663    1.5930   -6.1219 N   0  0  0  0  0  0  0  0  0  0  0  0
    0.2472    1.9170   -5.5120 C   0  0  0  0  0  0  0  0  0  0  0  0
    1.2703    2.5685   -6.3374 C   0  0  0  0  0  0  0  0  0  0  0  0
    1.4350    2.1370   -7.6530 C   0  0  0  0  0  0  0  0  0  0  0  0
    2.3755    2.7307   -8.4719 C   0  0  0  0  0  0  0  0  0  0  0  0
    3.1515    3.7737   -7.9925 C   0  0  0  0  0  0  0  0  0  0  0  0
    2.9777    4.2225   -6.6937 C   0  0  0  0  0  0  0  0  0  0  0  0
    2.0453    3.6248   -5.8657 C   0  0  0  0  0  0  0  0  0  0  0  0
    0.4342    1.5782   -4.1358 C   0  0  0  0  0  0  0  0  0  0  0  0
   -0.4848    0.9184   -3.4786 N   0  0  0  0  0  0  0  0  0  0  0  0
   -1.6362    0.5923   -4.0978 C   0  0  0  0  0  0  0  0  0  0  0  0
    1.7239    1.8471   -3.4694 C   0  0  0  0  0  0  0  0  0  0  0  0
    2.8691    1.2073   -3.9361 C   0  0  0  0  0  0  0  0  0  0  0  0
    4.0917    1.4471   -3.3383 C   0  0  0  0  0  0  0  0  0  0  0  0
    4.1868    2.3352   -2.2790 C   0  0  0  0  0  0  0  0  0  0  0  0
    3.0535    2.9814   -1.8177 C   0  0  0  0  0  0  0  0  0  0  0  0
    1.8259    2.7359   -2.4067 C   0  0  0  0  0  0  0  0  0  0  0  0
   -3.2140    0.9432   -7.5103 C   0  0  0  0  0  0  0  0  0  0  0  0
   -2.6939    2.0345   -8.1298 C   0  0  0  0  0  0  0  0  0  0  0  0
   -2.6585    2.0290   -9.5964 C   0  0  0  0  0  0  0  0  0  0  0  0
   -3.3231    1.2870  -10.2879 O   0  0  0  0  0  0  0  0  0  0  0  0
   -1.7241    2.8876  -10.1602 N   0  0  0  0  0  0  0  0  0  0  0  0
   -1.5486    2.8014  -11.6060 C   0  0  0  0  0  0  0  0  0  0  0  0
   -2.3864    3.8498  -12.3252 C   0  0  0  0  0  0  0  0  0  0  0  0
   -0.9945    3.7998   -9.4491 C   0  0  0  0  0  0  0  0  0  0  0  0
    0.1882    4.6890  -10.1805 S   0  0  0  0  0  0  0  0  0  0  0  0
   -1.2978    3.9948   -8.1323 N   0  0  0  0  0  0  0  0  0  0  0  0
   -0.7052    5.1246   -7.4282 C   0  0  0  0  0  0  0  0  0  0  0  0
   -1.4134    6.4309   -7.7654 C   0  0  0  0  0  0  0  0  0  0  0  0
   -2.2056    3.2178   -7.4218 C   0  0  0  0  0  0  0  0  0  0  0  0
   -2.6181    3.5940   -6.3411 O   0  0  0  0  0  0  0  0  0  0  0  0
    0.7013   -4.0485    7.2103 H   0  0  0  0  0  0  0  0  0  0  0  0
    4.9881    0.1547    5.3474 H   0  0  0  0  0  0  0  0  0  0  0  0
    5.8329   -3.1648    9.0790 H   0  0  0  0  0  0  0  0  0  0  0  0
    8.7552   -1.6376    8.1576 H   0  0  0  0  0  0  0  0  0  0  0  0
    7.9064   -0.5729   10.4465 H   0  0  0  0  0  0  0  0  0  0  0  0
   10.2188    0.5134    9.8339 H   0  0  0  0  0  0  0  0  0  0  0  0
    9.8154    2.2744    7.8859 H   0  0  0  0  0  0  0  0  0  0  0  0
    7.2546    2.2737    7.3004 H   0  0  0  0  0  0  0  0  0  0  0  0
    5.9824    0.6989    9.0675 H   0  0  0  0  0  0  0  0  0  0  0  0
    7.0303    1.8660    9.9054 H   0  0  0  0  0  0  0  0  0  0  0  0
    8.3604    0.0893    6.2472 H   0  0  0  0  0  0  0  0  0  0  0  0
   -1.5271   -4.2352    6.2758 H   0  0  0  0  0  0  0  0  0  0  0  0
   -4.0772   -1.8077    2.8837 H   0  0  0  0  0  0  0  0  0  0  0  0
   -5.5055   -2.5442    3.6446 H   0  0  0  0  0  0  0  0  0  0  0  0
   -4.9786   -0.3530    4.7252 H   0  0  0  0  0  0  0  0  0  0  0  0
   -4.7461   -1.6798    5.8721 H   0  0  0  0  0  0  0  0  0  0  0  0
   -3.3492   -0.9199    5.1002 H   0  0  0  0  0  0  0  0  0  0  0  0
   -2.5049   -6.2091    2.8302 H   0  0  0  0  0  0  0  0  0  0  0  0
   -0.8977   -7.1884    4.3751 H   0  0  0  0  0  0  0  0  0  0  0  0
    0.2394   -7.2702    6.4633 H   0  0  0  0  0  0  0  0  0  0  0  0
    0.8078   -8.5009    5.2811 H   0  0  0  0  0  0  0  0  0  0  0  0
    1.8267   -8.0306    6.6612 H   0  0  0  0  0  0  0  0  0  0  0  0
    2.1068   -4.4887    2.9695 H   0  0  0  0  0  0  0  0  0  0  0  0
    0.4866   -3.5131    1.3995 H   0  0  0  0  0  0  0  0  0  0  0  0
   -1.8056   -6.4781    0.1660 H   0  0  0  0  0  0  0  0  0  0  0  0
   -3.5089   -7.6824   -1.1425 H   0  0  0  0  0  0  0  0  0  0  0  0
   -8.2377   -6.5523   -2.7598 H   0  0  0  0  0  0  0  0  0  0  0  0
   -7.2468   -5.0852   -2.6000 H   0  0  0  0  0  0  0  0  0  0  0  0
   -8.0123   -5.8249   -1.1550 H   0  0  0  0  0  0  0  0  0  0  0  0
   -6.2343   -4.4357   -0.5715 H   0  0  0  0  0  0  0  0  0  0  0  0
   -4.5638   -3.2626    0.7445 H   0  0  0  0  0  0  0  0  0  0  0  0
   -1.6982    3.8968    0.2132 H   0  0  0  0  0  0  0  0  0  0  0  0
    0.1115    4.6446    1.7111 H   0  0  0  0  0  0  0  0  0  0  0  0
    3.9751    1.5483    2.3806 H   0  0  0  0  0  0  0  0  0  0  0  0
    3.8821    2.2241    4.0206 H   0  0  0  0  0  0  0  0  0  0  0  0
    2.5525    1.2063    3.4180 H   0  0  0  0  0  0  0  0  0  0  0  0
    2.2859    1.0579    0.8830 H   0  0  0  0  0  0  0  0  0  0  0  0
    0.5225    0.3474   -0.6461 H   0  0  0  0  0  0  0  0  0  0  0  0
   -4.3846    1.1812   -1.2908 H   0  0  0  0  0  0  0  0  0  0  0  0
   -5.9256    2.5401   -2.6398 H   0  0  0  0  0  0  0  0  0  0  0  0
   -5.3011    6.2408   -6.0592 H   0  0  0  0  0  0  0  0  0  0  0  0
   -3.8707    5.2042   -5.7967 H   0  0  0  0  0  0  0  0  0  0  0  0
   -4.1549    6.6480   -4.7624 H   0  0  0  0  0  0  0  0  0  0  0  0
   -2.6791    5.0734   -3.7844 H   0  0  0  0  0  0  0  0  0  0  0  0
   -1.1506    3.7165   -2.4638 H   0  0  0  0  0  0  0  0  0  0  0  0
   -4.4175   -1.3019   -3.6802 H   0  0  0  0  0  0  0  0  0  0  0  0
   -4.8097   -0.5815   -5.9870 H   0  0  0  0  0  0  0  0  0  0  0  0
    0.8195    1.3258   -8.0153 H   0  0  0  0  0  0  0  0  0  0  0  0
    2.5002    2.3875   -9.4879 H   0  0  0  0  0  0  0  0  0  0  0  0
    3.8803    4.2431   -8.6354 H   0  0  0  0  0  0  0  0  0  0  0  0
    3.5690    5.0464   -6.3227 H   0  0  0  0  0  0  0  0  0  0  0  0
    1.9022    3.9960   -4.8624 H   0  0  0  0  0  0  0  0  0  0  0  0
    2.7949    0.5166   -4.7640 H   0  0  0  0  0  0  0  0  0  0  0  0
    4.9738    0.9421   -3.7034 H   0  0  0  0  0  0  0  0  0  0  0  0
    5.1444    2.5255   -1.8174 H   0  0  0  0  0  0  0  0  0  0  0  0
    3.1197    3.6785   -0.9956 H   0  0  0  0  0  0  0  0  0  0  0  0
    0.9481    3.2496   -2.0478 H   0  0  0  0  0  0  0  0  0  0  0  0
   -3.7215    0.2237   -8.1436 H   0  0  0  0  0  0  0  0  0  0  0  0
   -1.8676    1.8001  -11.9001 H   0  0  0  0  0  0  0  0  0  0  0  0
   -0.4895    2.9358  -11.8316 H   0  0  0  0  0  0  0  0  0  0  0  0
   -2.2562    3.7443  -13.3982 H   0  0  0  0  0  0  0  0  0  0  0  0
   -2.0755    4.8503  -12.0339 H   0  0  0  0  0  0  0  0  0  0  0  0
   -3.4388    3.7181  -12.0854 H   0  0  0  0  0  0  0  0  0  0  0  0
    0.3511    5.1818   -7.6972 H   0  0  0  0  0  0  0  0  0  0  0  0
   -0.7978    4.9068   -6.3630 H   0  0  0  0  0  0  0  0  0  0  0  0
   -1.2942    6.6655   -8.8203 H   0  0  0  0  0  0  0  0  0  0  0  0
   -0.9806    7.2379   -7.1815 H   0  0  0  0  0  0  0  0  0  0  0  0
   -2.4741    6.3602   -7.5356 H   0  0  0  0  0  0  0  0  0  0  0  0
  1  2  2  0  0  0  0
  2  3  1  0  0  0  0
  3  4  2  0  0  0  0
  3  5  1  0  0  0  0
  5  6  2  0  0  0  0
  6  7  1  0  0  0  0
  7  8  2  0  0  0  0
  8  9  1  0  0  0  0
  9 10  2  0  0  0  0
 10 11  1  0  0  0  0
 11 12  2  0  0  0  0
 12 13  1  0  0  0  0
 13 14  3  0  0  0  0
 12 15  1  0  0  0  0
 15 16  3  0  0  0  0
  8 17  1  0  0  0  0
 17 18  1  0  0  0  0
 18 19  1  0  0  0  0
 19 20  2  0  0  0  0
 20 21  1  0  0  0  0
 21 22  1  0  0  0  0
 21 23  1  0  0  0  0
  1 24  1  0  0  0  0
 24 25  2  0  0  0  0
 25 26  1  0  0  0  0
 26 27  1  0  0  0  0
 27 28  1  0  0  0  0
 28 29  1  0  0  0  0
 26 30  2  0  0  0  0
 30 31  1  0  0  0  0
 30 32  1  0  0  0  0
 32 33  2  0  0  0  0
 33 34  1  0  0  0  0
 34 35  1  0  0  0  0
 35 36  2  0  0  0  0
 36 37  1  0  0  0  0
 37 38  2  0  0  0  0
 38 39  1  0  0  0  0
 39 40  1  0  0  0  0
 38 41  1  0  0  0  0
 41 42  2  0  0  0  0
 34 43  1  0  0  0  0
 43 44  2  0  0  0  0
 44 45  1  0  0  0  0
 45 46  2  0  0  0  0
 46 47  1  0  0  0  0
 47 48  1  0  0  0  0
 46 49  1  0  0  0  0
 49 50  2  0  0  0  0
 33 51  1  0  0  0  0
 51 52  1  0  0  0  0
 52 53  1  0  0  0  0
 53 54  2  0  0  0  0
 54 55  1  0  0  0  0
 55 56  1  0  0  0  0
 56 57  2  0  0  0  0
 57 58  1  0  0  0  0
 58 59  2  0  0  0  0
 59 60  1  0  0  0  0
 60 61  1  0  0  0  0
 59 62  1  0  0  0  0
 62 63  2  0  0  0  0
 55 64  1  0  0  0  0
 64 65  2  0  0  0  0
 65 66  1  0  0  0  0
 66 67  2  0  0  0  0
 67 68  1  0  0  0  0
 68 69  1  0  0  0  0
 67 70  1  0  0  0  0
 70 71  2  0  0  0  0
 54 72  1  0  0  0  0
 72 73  1  0  0  0  0
 53 74  1  0  0  0  0
 74 75  2  0  0  0  0
 75 76  1  0  0  0  0
 76 77  2  0  0  0  0
 77 78  1  0  0  0  0
 78 79  2  0  0  0  0
 79 80  1  0  0  0  0
 80 81  1  0  0  0  0
 81 82  2  0  0  0  0
 82 83  1  0  0  0  0
 83 84  2  0  0  0  0
 84 85  1  0  0  0  0
 85 86  2  0  0  0  0
 80 87  2  0  0  0  0
 87 88  1  0  0  0  0
 88 89  2  0  0  0  0
 87 90  1  0  0  0  0
 90 91  2  0  0  0  0
 91 92  1  0  0  0  0
 92 93  2  0  0  0  0
 93 94  1  0  0  0  0
 94 95  2  0  0  0  0
 77 96  1  0  0  0  0
 96 97  2  0  0  0  0
 97 98  1  0  0  0  0
 98 99  2  0  0  0  0
 98100  1  0  0  0  0
100101  1  0  0  0  0
101102  1  0  0  0  0
100103  1  0  0  0  0
103104  2  0  0  0  0
103105  1  0  0  0  0
105106  1  0  0  0  0
106107  1  0  0  0  0
105108  1  0  0  0  0
108109  2  0  0  0  0
 11  2  1  0  0  0  0
 23 17  1  0  0  0  0
 31 24  1  0  0  0  0
 73 32  1  0  0  0  0
 89 74  1  0  0  0  0
 95 90  1  0  0  0  0
108 97  1  0  0  0  0
 10  5  1  0  0  0  0
 22 18  1  0  0  0  0
 42 35  1  0  0  0  0
 50 43  1  0  0  0  0
 72 51  2  0  0  0  0
 89 78  1  0  0  0  0
 23  7  1  0  0  0  0
 63 56  1  0  0  0  0
 71 64  1  0  0  0  0
 86 81  1  0  0  0  0
  1110  1  0  0  0  0
  6111  1  0  0  0  0
  9112  1  0  0  0  0
 17113  1  0  0  0  0
 18114  1  0  0  0  0
 19115  1  0  0  0  0
 20116  1  0  0  0  0
 21117  1  0  0  0  0
 22118  1  0  0  0  0
 22119  1  0  0  0  0
 23120  1  0  0  0  0
 25121  1  0  0  0  0
 28122  1  0  0  0  0
 28123  1  0  0  0  0
 29124  1  0  0  0  0
 29125  1  0  0  0  0
 29126  1  0  0  0  0
 36127  1  0  0  0  0
 37128  1  0  0  0  0
 40129  1  0  0  0  0
 40130  1  0  0  0  0
 40131  1  0  0  0  0
 41132  1  0  0  0  0
 42133  1  0  0  0  0
 44134  1  0  0  0  0
 45135  1  0  0  0  0
 48136  1  0  0  0  0
 48137  1  0  0  0  0
 48138  1  0  0  0  0
 49139  1  0  0  0  0
 50140  1  0  0  0  0
 57141  1  0  0  0  0
 58142  1  0  0  0  0
 61143  1  0  0  0  0
 61144  1  0  0  0  0
 61145  1  0  0  0  0
 62146  1  0  0  0  0
 63147  1  0  0  0  0
 65148  1  0  0  0  0
 66149  1  0  0  0  0
 69150  1  0  0  0  0
 69151  1  0  0  0  0
 69152  1  0  0  0  0
 70153  1  0  0  0  0
 71154  1  0  0  0  0
 75155  1  0  0  0  0
 76156  1  0  0  0  0
 82157  1  0  0  0  0
 83158  1  0  0  0  0
 84159  1  0  0  0  0
 85160  1  0  0  0  0
 86161  1  0  0  0  0
 91162  1  0  0  0  0
 92163  1  0  0  0  0
 93164  1  0  0  0  0
 94165  1  0  0  0  0
 95166  1  0  0  0  0
 96167  1  0  0  0  0
101168  1  0  0  0  0
101169  1  0  0  0  0
102170  1  0  0  0  0
102171  1  0  0  0  0
102172  1  0  0  0  0
106173  1  0  0  0  0
106174  1  0  0  0  0
107175  1  0  0  0  0
107176  1  0  0  0  0
107177  1  0  0  0  0
M  END
