156

C          8.47260        0.90610        0.75820
C          8.49860        0.82830       -0.59930
C          9.78660        0.65460       -1.32250
O         10.89820        0.73000       -0.84900
C          9.41880        0.34360       -2.71860
C         10.28640        0.11270       -3.78500
C          9.65940       -0.04800       -4.99750
C          8.26520       -0.00180       -5.14300
C          7.39620        0.19770       -4.09780
C          8.01500        0.38960       -2.85790
C          7.43540        0.81200       -1.58650
C          6.18560        1.36120       -1.44540
C          5.15650        1.25810       -2.39780
N          4.25750        1.15860       -3.10660
C          5.80250        2.15440       -0.34520
N          5.48090        2.89330        0.47290
C          8.33770       -0.13640       -6.64500
C          7.98620       -1.49470       -7.29570
C          8.25990       -2.54620       -6.25090
C          9.57450       -2.61960       -6.08880
C         10.21350       -1.62540       -7.02680
C          9.21760       -1.67970       -8.19690
C          9.88820       -0.21440       -6.47860
C          7.33900        0.74970        1.60230
C          7.04900        1.42750        2.76090
C          5.77610        1.13280        3.28050
S          5.04600        1.98840        4.62140
C          5.97470        3.56140        4.68010
C          5.69350        4.44240        3.47920
C          5.11230        0.14770        2.55240
S          6.05070       -0.35070        1.18480
C          3.77920       -0.36250        2.66340
C          3.00640       -0.39320        3.81580
F          3.56060       -0.20350        5.02410
C          1.63770       -0.70060        3.79030
F          0.99020       -0.69340        4.97050
C          0.95580       -1.01130        2.63100
C          1.73860       -1.08760        1.44860
N          1.16050       -1.28970        0.26070
C          1.88520       -1.47520       -0.81530
C          1.17750       -1.47770       -2.09150
C          1.77470       -1.02680       -3.26540
C          1.08130       -1.03000       -4.46000
C         -0.23380       -1.48670       -4.52830
O         -1.00870       -1.54410       -5.63210
C         -0.44760       -1.27630       -6.90260
C          0.42780       -2.41990       -7.40570
C         -0.82870       -1.90280       -3.32600
C         -0.15510       -1.89440       -2.12990
F         -2.10790       -2.32910       -3.35320
C          3.30700       -1.64270       -0.68100
N          3.87570       -1.22840        0.43340
C          3.14120       -0.86420        1.48600
C          4.14060       -2.36820       -1.63590
C          5.52160       -2.18610       -1.65560
C          6.34690       -2.95950       -2.44520
C          5.82280       -3.96140       -3.25850
O          6.53260       -4.79290       -4.05560
C          7.89750       -5.03900       -3.75910
C          8.07070       -5.83720       -2.47250
C          4.42760       -4.10920       -3.26020
F          3.88090       -5.05850       -4.04610
C          3.59810       -3.35070       -2.46920
C         -0.49000       -1.23190        2.57690
C         -1.34260       -0.36350        3.24790
C         -2.70910       -0.54330        3.10290
N         -3.74340        0.19830        3.61060
C         -3.62110        1.34650        4.47000
C         -3.58840        0.94320        5.94310
C         -4.92450       -0.34440        3.17120
C         -4.64990       -1.46980        2.34990
C         -3.22890       -1.59800        2.30730
C         -2.35990       -2.47850        1.66960
C         -1.00490       -2.28730        1.80500
C         -5.70260       -2.18840        1.78660
C         -6.98830       -1.76910        2.02240
C         -7.26430       -0.61950        2.79780
C         -6.22010        0.07420        3.41120
C         -8.63930       -0.22580        2.93260
C         -9.16550        1.01940        3.07930
C         -8.47930        2.32370        2.87520
O         -7.29110        2.56270        2.83510
C         -9.55870        3.31060        2.67810
C         -9.40060        4.65690        2.35490
C        -10.58300        5.34270        2.22060
C        -11.83490        4.73560        2.39410
C        -12.00530        3.41140        2.71870
C        -10.81250        2.69500        2.86010
C        -10.59260        1.29290        3.19060
C        -11.54760        0.40970        3.61680
C        -12.91990        0.71490        3.73300
N        -14.04810        0.89600        3.84550
C        -11.29270       -0.91080        4.04690
N        -11.17020       -1.98340        4.43820
C        -12.58320        6.00860        2.08870
C        -13.22670        6.14850        0.68680
C        -12.41700        5.28260       -0.24620
C        -11.23310        5.85830       -0.40800
C        -11.22090        7.12400        0.41310
C        -12.69670        7.53720        0.29540
C        -11.18940        6.68560        1.89840
H          9.43270        1.06360        1.24050
H         11.35500        0.10740       -3.63670
H          6.32640        0.22760       -4.21930
H          7.93340        0.70750       -7.20090
H          7.00870       -1.53180       -7.76880
H          7.48340       -3.07280       -5.72980
H         10.13150       -3.21970       -5.39260
H         11.26340       -1.78930       -7.25470
H          9.35220       -0.87590       -8.91940
H          9.22230       -2.64000       -8.71010
H         10.49150        0.55780       -6.95220
H          7.71180        2.16670        3.17080
H          7.03420        3.34220        4.80270
H          5.61250        4.02470        5.59860
H          4.63760        4.69910        3.44260
H          5.95020        3.93980        2.54970
H          6.27260        5.36090        3.55240
H          2.78130       -0.63860       -3.24460
H          1.57790       -0.66110       -5.34240
H          0.10810       -0.33100       -6.88840
H         -1.31580       -1.15650       -7.55590
H         -0.14930       -3.34080       -7.42940
H          1.28710       -2.57060       -6.75670
H          0.77810       -2.19740       -8.40970
H         -0.65080       -2.21220       -1.22710
H          5.95680       -1.43490       -1.02170
H          7.41090       -2.78400       -2.41560
H          8.25230       -5.61600       -4.61640
H          8.46370       -4.10190       -3.71330
H          7.50380       -6.76300       -2.53220
H          9.12080       -6.07490       -2.32870
H          7.71700       -5.26850       -1.61510
H          2.54070       -3.55970       -2.48240
H         -0.94250        0.44700        3.83650
H         -4.46720        2.01020        4.27500
H         -2.70350        1.87950        4.20770
H         -3.50010        1.82600        6.57040
H         -2.74030        0.29040        6.13700
H         -4.50020        0.41400        6.21050
H         -2.74740       -3.29110        1.07410
H         -0.31340       -2.96320        1.32760
H         -5.50650       -3.05660        1.17650
H         -7.81690       -2.30640        1.58520
H         -6.42940        0.90020        4.06750
H         -9.34570       -1.04200        2.82380
H         -8.41790        5.08400        2.22900
H        -12.97370        2.95670        2.84460
H        -13.22900        6.38360        2.88030
H        -14.30280        5.99890        0.66760
H        -12.75670        4.34060       -0.63520
H        -10.38600        5.49310       -0.95870
H        -10.47100        7.86340        0.14440
H        -12.97420        7.82360       -0.71800
H        -12.98430        8.32370        0.99180
H        -10.92430        7.50260        2.56680
