181

C          0.83930        9.15510       -1.16610
C          0.84310        9.77610        0.03400
C          0.41240        9.14700        1.31740
O          0.03730        8.01090        1.50060
C          0.41900       10.23380        2.31180
C          0.07980       10.12490        3.65990
C          0.14890       11.30840        4.35290
C          0.51930       12.51870        3.74840
C          0.85540       12.64150        2.42220
C          0.79850       11.44470        1.69740
C          1.09160       11.18830        0.29260
C          1.58190       12.09690       -0.60490
C          1.93680       11.80980       -1.94140
N          2.26660       11.66470       -3.03130
C          1.83020       13.45590       -0.31460
N          2.05210       14.56970       -0.14780
C          0.35760       13.29950        5.02850
C         -0.92450       14.14880        5.16180
C         -1.03950       14.39710        6.64860
C         -1.38450       13.25200        7.22350
C         -1.50920       12.21050        6.13490
C         -2.02040       13.08950        4.98620
C         -0.05020       11.95040        5.70320
C          0.71490        7.72760       -1.33770
C          1.43730        6.81950       -0.53550
N          2.34580        7.02780        0.42590
N          2.66660        5.83120        0.82530
C          3.65610        5.62340        1.84300
C          5.04020        5.48370        1.21580
N          2.08340        4.83020        0.23090
C          1.28190        5.40910       -0.67550
C          0.41330        4.86030       -1.63320
C         -0.22410        5.76320       -2.45720
C         -0.07770        7.15970       -2.32380
Cl        -0.98250        8.18560       -3.36880
Cl        -1.21680        5.15840       -3.71970
C          0.16830        3.41330       -1.71400
C          1.16490        2.53170       -2.09210
O          2.35030        3.09080       -2.44190
C          3.57250        2.45750       -2.07660
C          3.59480        2.01260       -0.62040
C          0.89280        1.12990       -2.18600
O          1.87070        0.30000       -2.69090
C          1.66550       -0.11370       -4.03790
C          1.80040        1.02150       -5.04570
C         -0.30950        0.59410       -1.76570
C         -1.29470        1.47840       -1.27940
C         -1.07960        2.89670       -1.32550
N         -2.12680        3.57630       -0.85250
S         -3.24090        2.52550       -0.36250
N         -2.47490        1.16720       -0.74420
C         -0.54730       -0.85240       -1.75050
C         -1.22050       -1.63180       -2.66360
N         -1.78090       -1.13940       -3.83940
C         -2.70610       -0.07420       -3.69120
C         -3.85790       -0.27200       -2.93530
C         -4.73380        0.76940       -2.72890
C         -4.45860        2.03000       -3.25480
S         -5.59390        3.31960       -2.84150
C         -4.62610        4.83400       -3.08980
C         -3.32900        2.21970       -4.03970
C         -2.45880        1.16730       -4.25930
C         -1.69280       -1.84800       -5.03400
C         -0.64160       -2.73540       -5.26240
C         -0.55300       -3.44120       -6.44620
C         -1.50970       -3.26720       -7.43460
S         -1.49080       -4.11960       -8.98360
C         -0.33480       -5.49070       -8.69530
C         -2.54380       -2.35810       -7.22640
C         -2.63820       -1.65930       -6.04420
C         -1.24780       -2.98750       -2.24820
S         -1.88790       -4.42960       -2.93490
C         -1.33130       -5.37130       -1.54070
C         -0.60700       -4.58090       -0.62580
N          0.11140       -4.99910        0.46030
C          0.65550       -6.27690        0.60550
C          0.72420       -6.85270        1.87830
C          1.20530       -8.12970        2.04170
C          1.62720       -8.87750        0.94220
S          2.12030      -10.53510        1.26920
C          2.62920      -11.18410       -0.34560
C          1.61820       -8.28940       -0.31700
C          1.13950       -7.00360       -0.48050
C          0.32370       -4.07470        1.50850
C          1.60500       -3.86850        2.00480
C          1.82350       -2.95960        3.02210
C          0.75720       -2.24700        3.55510
S          0.91240       -1.05100        4.84100
C          2.67910       -1.07950        5.26140
C         -0.53140       -2.46790        3.06890
C         -0.74940       -3.37350        2.05570
C         -0.61200       -3.22410       -1.03920
S          0.04550       -1.75980       -0.38450
C         -1.62860       -6.73610       -1.57130
C         -1.64960       -7.59470       -0.49470
C         -1.93890       -7.18950        0.89040
O         -2.19780       -6.06910        1.29050
C         -1.98680       -8.44480        1.67060
C         -2.19000       -8.57770        3.04060
C         -2.13640       -9.87560        3.49180
C         -1.92810      -10.96730        2.64050
C         -1.73870      -10.85180        1.28390
C         -1.76360       -9.53800        0.81060
C         -1.53560       -9.02510       -0.53700
C         -1.09350       -9.75460       -1.61530
C         -0.67980       -9.18420       -2.83490
N         -0.26860       -8.79030       -3.83350
C         -0.89260      -11.14630       -1.61390
N         -0.67750      -12.27360       -1.68110
C         -1.99530      -11.96570        3.77020
C         -0.65110      -12.54930        4.25280
C         -0.95880      -13.08110        5.63350
C         -1.13250      -12.03980        6.43740
C         -0.94840      -10.78660        5.61200
C          0.11870      -11.27640        4.62450
C         -2.20950      -10.74540        4.72210
H          0.91490        9.73360       -2.07830
H         -0.20320        9.17330        4.08210
H          1.13630       13.57930        1.97310
H          1.24740       13.81420        5.38570
H         -0.96150       15.02110        4.51520
H         -0.81180       15.33530        7.11930
H         -1.50240       13.04270        8.27050
H         -2.07940       11.31720        6.37510
H         -3.01350       13.48880        5.18470
H         -2.01310       12.59880        4.01470
H          0.56980       11.56280        6.50950
H          3.62230        6.48520        2.51160
H          3.38670        4.71510        2.38520
H          5.05950        4.63870        0.53220
H          5.78250        5.32400        1.99250
H          5.29580        6.38670        0.66710
H          3.78710        1.60950       -2.73400
H          4.31650        3.24020       -2.25320
H          3.19730        2.80710        0.00830
H          4.61570        1.78410       -0.32570
H          2.98720        1.12100       -0.48640
H          2.43380       -0.87200       -4.20650
H          0.67870       -0.57430       -4.14110
H          1.63720        0.63020       -6.04640
H          2.78970        1.47010       -4.99920
H          1.06240        1.79680       -4.84780
H         -4.05100       -1.24200       -2.50320
H         -5.62510        0.62980       -2.13700
H         -4.45470        5.00950       -4.14760
H         -3.69050        4.75730       -2.54320
H         -5.23030        5.63730       -2.67990
H         -3.11030        3.18210       -4.47250
H         -1.57670        1.31300       -4.86510
H          0.12280       -2.87730       -4.51300
H          0.27330       -4.11990       -6.58280
H         -0.61190       -6.01660       -7.78670
H          0.68510       -5.12010       -8.64210
H         -0.43990       -6.14880       -9.55220
H         -3.28140       -2.21530       -8.00110
H         -3.45490       -0.97040       -5.89100
H          0.36860       -6.29630        2.73160
H          1.24040       -8.57440        3.02420
H          2.97840      -12.19380       -0.15330
H          1.78080      -11.21740       -1.02250
H          3.43950      -10.58370       -0.74840
H          1.96770       -8.82450       -1.18550
H          1.13820       -6.56620       -1.46760
H          2.43520       -4.42020        1.58840
H          2.82900       -2.81480        3.38220
H          2.79780       -0.36310        6.06840
H          3.27120       -0.77070        4.40490
H          2.96340       -2.06990        5.60420
H         -1.35570       -1.92240        3.50140
H         -1.74570       -3.57070        1.69320
H         -1.88200       -7.13090       -2.54840
H         -2.35820       -7.71290        3.66360
H         -1.58550      -11.69930        0.63650
H         -2.78450      -12.71170        3.69810
H         -0.17550      -13.23390        3.55640
H         -1.06930      -14.12430        5.86500
H         -1.41820      -12.03940        7.47320
H         -0.74520       -9.86810        6.15660
H          1.06590      -11.49550        5.11440
H          0.29220      -10.61160        3.78110
H         -3.13260      -10.68590        5.29630
