
  xtb     02042217243D
 energy: -299.295378495904 gnorm: 0.000783427454 xtb: 6.4.1 (unknown)
184204  0     0  0            999 V2000
    7.2436   -1.8249    1.3101 C   0  0  0  0  0  0  0  0  0  0  0  0
    7.8139   -0.6638    0.8496 C   0  0  0  0  0  0  0  0  0  0  0  0
    7.1186    0.3683    0.0848 C   0  0  0  0  0  0  0  0  0  0  0  0
    5.9769    0.3303   -0.3536 O   0  0  0  0  0  0  0  0  0  0  0  0
    8.0687    1.4813   -0.0740 C   0  0  0  0  0  0  0  0  0  0  0  0
    7.8338    2.7099   -0.6877 C   0  0  0  0  0  0  0  0  0  0  0  0
    8.9238    3.5458   -0.7023 C   0  0  0  0  0  0  0  0  0  0  0  0
   10.1570    3.1898   -0.1419 C   0  0  0  0  0  0  0  0  0  0  0  0
   10.3972    1.9880    0.4822 C   0  0  0  0  0  0  0  0  0  0  0  0
    9.3016    1.1202    0.5062 C   0  0  0  0  0  0  0  0  0  0  0  0
    9.1719   -0.2203    1.0800 C   0  0  0  0  0  0  0  0  0  0  0  0
   10.1764   -0.9160    1.7034 C   0  0  0  0  0  0  0  0  0  0  0  0
   11.4881   -0.4323    1.8872 C   0  0  0  0  0  0  0  0  0  0  0  0
   12.5727   -0.1055    2.0778 N   0  0  0  0  0  0  0  0  0  0  0  0
   10.0699   -2.2149    2.2435 C   0  0  0  0  0  0  0  0  0  0  0  0
   10.0872   -3.2663    2.7066 N   0  0  0  0  0  0  0  0  0  0  0  0
   10.8014    4.4974   -0.5302 C   0  0  0  0  0  0  0  0  0  0  0  0
   11.7353    4.4660   -1.7587 C   0  0  0  0  0  0  0  0  0  0  0  0
   11.8246    5.9145   -2.1819 C   0  0  0  0  0  0  0  0  0  0  0  0
   10.6558    6.2534   -2.7107 C   0  0  0  0  0  0  0  0  0  0  0  0
    9.7567    5.0395   -2.6535 C   0  0  0  0  0  0  0  0  0  0  0  0
   10.7982    3.9303   -2.8491 C   0  0  0  0  0  0  0  0  0  0  0  0
    9.4247    4.8954   -1.1530 C   0  0  0  0  0  0  0  0  0  0  0  0
    5.9443   -2.3064    1.1327 C   0  0  0  0  0  0  0  0  0  0  0  0
    4.6421   -1.6222    0.1927 S   0  0  0  0  0  0  0  0  0  0  0  0
    3.5648   -2.9304    0.6137 C   0  0  0  0  0  0  0  0  0  0  0  0
    4.1893   -3.8511    1.4387 C   0  0  0  0  0  0  0  0  0  0  0  0
    5.5109   -3.4950    1.7373 C   0  0  0  0  0  0  0  0  0  0  0  0
    6.3137   -4.2238    2.5471 O   0  0  0  0  0  0  0  0  0  0  0  0
    5.6120   -5.2371    3.2429 C   0  0  0  0  0  0  0  0  0  0  0  0
    4.6287   -5.9396    2.3089 C   0  0  0  0  0  0  0  0  0  0  0  0
    3.6443   -5.0331    1.8503 O   0  0  0  0  0  0  0  0  0  0  0  0
    2.2371   -2.8530    0.0949 C   0  0  0  0  0  0  0  0  0  0  0  0
    0.9972   -2.9599    0.7056 C   0  0  0  0  0  0  0  0  0  0  0  0
    0.7389   -3.2928    2.0365 N   0  0  0  0  0  0  0  0  0  0  0  0
   -0.0659   -2.3950    2.7529 C   0  0  0  0  0  0  0  0  0  0  0  0
    0.0976   -1.0235    2.5646 C   0  0  0  0  0  0  0  0  0  0  0  0
   -0.7216   -0.1144    3.2048 C   0  0  0  0  0  0  0  0  0  0  0  0
   -1.7115   -0.5623    4.0680 C   0  0  0  0  0  0  0  0  0  0  0  0
   -2.8265    0.5050    4.9282 S   0  0  0  0  0  0  0  0  0  0  0  0
   -2.1297    2.1645    4.6868 C   0  0  0  0  0  0  0  0  0  0  0  0
   -1.8683   -1.9308    4.2755 C   0  0  0  0  0  0  0  0  0  0  0  0
   -1.0633   -2.8375    3.6228 C   0  0  0  0  0  0  0  0  0  0  0  0
    0.9763   -4.5851    2.5046 C   0  0  0  0  0  0  0  0  0  0  0  0
    1.2999   -4.8004    3.8448 C   0  0  0  0  0  0  0  0  0  0  0  0
    1.5488   -6.0743    4.3006 C   0  0  0  0  0  0  0  0  0  0  0  0
    1.4855   -7.1617    3.4305 C   0  0  0  0  0  0  0  0  0  0  0  0
    1.8737   -8.7428    4.1248 S   0  0  0  0  0  0  0  0  0  0  0  0
    1.5380   -9.9093    2.7753 C   0  0  0  0  0  0  0  0  0  0  0  0
    1.1587   -6.9537    2.0985 C   0  0  0  0  0  0  0  0  0  0  0  0
    0.9029   -5.6755    1.6432 C   0  0  0  0  0  0  0  0  0  0  0  0
   -0.0285   -2.4967   -0.1534 C   0  0  0  0  0  0  0  0  0  0  0  0
   -1.7333   -2.3191    0.0392 S   0  0  0  0  0  0  0  0  0  0  0  0
   -1.8479   -1.5381   -1.5312 C   0  0  0  0  0  0  0  0  0  0  0  0
   -0.6368   -1.5025   -2.1972 C   0  0  0  0  0  0  0  0  0  0  0  0
   -0.4373   -1.0246   -3.4813 N   0  0  0  0  0  0  0  0  0  0  0  0
    0.8367   -0.5254   -3.8088 C   0  0  0  0  0  0  0  0  0  0  0  0
    1.4945    0.3378   -2.9376 C   0  0  0  0  0  0  0  0  0  0  0  0
    2.7769    0.7757   -3.2087 C   0  0  0  0  0  0  0  0  0  0  0  0
    3.4157    0.3632   -4.3690 C   0  0  0  0  0  0  0  0  0  0  0  0
    5.0557    0.8316   -4.8125 S   0  0  0  0  0  0  0  0  0  0  0  0
    5.6785    1.6774   -3.3338 C   0  0  0  0  0  0  0  0  0  0  0  0
    2.7447   -0.4698   -5.2641 C   0  0  0  0  0  0  0  0  0  0  0  0
    1.4728   -0.9148   -4.9873 C   0  0  0  0  0  0  0  0  0  0  0  0
   -1.4178   -1.1457   -4.4706 C   0  0  0  0  0  0  0  0  0  0  0  0
   -1.4833   -0.2035   -5.4987 C   0  0  0  0  0  0  0  0  0  0  0  0
   -2.4484   -0.3018   -6.4746 C   0  0  0  0  0  0  0  0  0  0  0  0
   -3.3878   -1.3301   -6.4411 C   0  0  0  0  0  0  0  0  0  0  0  0
   -4.6018   -1.3266   -7.7246 S   0  0  0  0  0  0  0  0  0  0  0  0
   -5.6867   -2.7195   -7.3030 C   0  0  0  0  0  0  0  0  0  0  0  0
   -3.3209   -2.2764   -5.4288 C   0  0  0  0  0  0  0  0  0  0  0  0
   -2.3404   -2.1880   -4.4604 C   0  0  0  0  0  0  0  0  0  0  0  0
    0.3986   -2.0473   -1.3909 C   0  0  0  0  0  0  0  0  0  0  0  0
    2.1111   -2.2254   -1.5461 S   0  0  0  0  0  0  0  0  0  0  0  0
   -3.1098   -0.8894   -1.8235 C   0  0  0  0  0  0  0  0  0  0  0  0
   -3.1453    0.4010   -2.3636 C   0  0  0  0  0  0  0  0  0  0  0  0
   -4.3012    1.1482   -2.3110 C   0  0  0  0  0  0  0  0  0  0  0  0
   -4.5613    2.9923   -2.6669 Si  0  0  0  0  0  4  0  0  0  0  0  0
   -4.8505    3.3909   -4.5139 C   0  0  0  0  0  0  0  0  0  0  0  0
   -3.9021    2.6417   -5.4449 C   0  0  0  0  0  0  0  0  0  0  0  0
   -3.2684    4.1182   -1.8295 C   0  0  0  0  0  0  0  0  0  0  0  0
   -1.9366    4.1707   -2.5711 C   0  0  0  0  0  0  0  0  0  0  0  0
   -6.1951    2.8939   -1.7135 C   0  0  0  0  0  0  0  0  0  0  0  0
   -6.5213    1.5545   -1.4458 C   0  0  0  0  0  0  0  0  0  0  0  0
   -5.4671    0.5946   -1.7492 C   0  0  0  0  0  0  0  0  0  0  0  0
   -5.4733   -0.7377   -1.3520 C   0  0  0  0  0  0  0  0  0  0  0  0
   -4.3007   -1.4622   -1.3727 C   0  0  0  0  0  0  0  0  0  0  0  0
   -7.7165    1.2603   -0.7977 C   0  0  0  0  0  0  0  0  0  0  0  0
   -8.4756    2.2812   -0.2630 C   0  0  0  0  0  0  0  0  0  0  0  0
   -8.0547    3.6104   -0.3658 C   0  0  0  0  0  0  0  0  0  0  0  0
   -6.9659    3.9060   -1.1834 C   0  0  0  0  0  0  0  0  0  0  0  0
   -8.6896    4.5430    0.5651 C   0  0  0  0  0  0  0  0  0  0  0  0
   -8.0861    4.9727    1.6905 C   0  0  0  0  0  0  0  0  0  0  0  0
   -8.9063    5.2601    2.9101 C   0  0  0  0  0  0  0  0  0  0  0  0
  -10.0033    5.7581    2.9559 O   0  0  0  0  0  0  0  0  0  0  0  0
   -8.1155    4.6787    4.0165 C   0  0  0  0  0  0  0  0  0  0  0  0
   -8.5270    4.4783    5.3342 C   0  0  0  0  0  0  0  0  0  0  0  0
   -7.5942    3.8516    6.1262 C   0  0  0  0  0  0  0  0  0  0  0  0
   -6.3370    3.4502    5.6512 C   0  0  0  0  0  0  0  0  0  0  0  0
   -5.9125    3.6432    4.3595 C   0  0  0  0  0  0  0  0  0  0  0  0
   -6.8467    4.2803    3.5388 C   0  0  0  0  0  0  0  0  0  0  0  0
   -6.7293    4.7040    2.1503 C   0  0  0  0  0  0  0  0  0  0  0  0
   -5.5603    4.9978    1.5075 C   0  0  0  0  0  0  0  0  0  0  0  0
   -4.2908    4.6026    1.9745 C   0  0  0  0  0  0  0  0  0  0  0  0
   -3.2374    4.2602    2.2784 N   0  0  0  0  0  0  0  0  0  0  0  0
   -5.4693    5.8806    0.4114 C   0  0  0  0  0  0  0  0  0  0  0  0
   -5.3100    6.6942   -0.3822 N   0  0  0  0  0  0  0  0  0  0  0  0
   -5.9272    2.8710    6.9803 C   0  0  0  0  0  0  0  0  0  0  0  0
   -5.9771    1.3334    7.1028 C   0  0  0  0  0  0  0  0  0  0  0  0
   -6.0011    1.0927    8.5947 C   0  0  0  0  0  0  0  0  0  0  0  0
   -7.1920    1.4658    9.0456 C   0  0  0  0  0  0  0  0  0  0  0  0
   -7.9948    1.9655    7.8654 C   0  0  0  0  0  0  0  0  0  0  0  0
   -7.4463    1.0457    6.7667 C   0  0  0  0  0  0  0  0  0  0  0  0
   -7.3291    3.3127    7.5109 C   0  0  0  0  0  0  0  0  0  0  0  0
    7.8506   -2.4815    1.9220 H   0  0  0  0  0  0  0  0  0  0  0  0
    6.8662    2.9501   -1.0984 H   0  0  0  0  0  0  0  0  0  0  0  0
   11.3484    1.7364    0.9199 H   0  0  0  0  0  0  0  0  0  0  0  0
   11.1957    5.0953    0.2892 H   0  0  0  0  0  0  0  0  0  0  0  0
   12.6743    3.9423   -1.6028 H   0  0  0  0  0  0  0  0  0  0  0  0
   12.6816    6.5384   -2.0083 H   0  0  0  0  0  0  0  0  0  0  0  0
   10.3412    7.2168   -3.0669 H   0  0  0  0  0  0  0  0  0  0  0  0
    8.8934    5.0390   -3.3139 H   0  0  0  0  0  0  0  0  0  0  0  0
   11.2546    3.9640   -3.8369 H   0  0  0  0  0  0  0  0  0  0  0  0
   10.4212    2.9275   -2.6566 H   0  0  0  0  0  0  0  0  0  0  0  0
    8.8997    5.7585   -0.7476 H   0  0  0  0  0  0  0  0  0  0  0  0
    5.0581   -4.7951    4.0814 H   0  0  0  0  0  0  0  0  0  0  0  0
    6.3668   -5.9268    3.6206 H   0  0  0  0  0  0  0  0  0  0  0  0
    4.0915   -6.7321    2.8293 H   0  0  0  0  0  0  0  0  0  0  0  0
    5.1776   -6.3564    1.4533 H   0  0  0  0  0  0  0  0  0  0  0  0
    0.8707   -0.6654    1.9002 H   0  0  0  0  0  0  0  0  0  0  0  0
   -0.5796    0.9379    3.0177 H   0  0  0  0  0  0  0  0  0  0  0  0
   -2.6893    2.8163    5.3512 H   0  0  0  0  0  0  0  0  0  0  0  0
   -2.2610    2.4911    3.6589 H   0  0  0  0  0  0  0  0  0  0  0  0
   -1.0822    2.1626    4.9724 H   0  0  0  0  0  0  0  0  0  0  0  0
   -2.6430   -2.2753    4.9434 H   0  0  0  0  0  0  0  0  0  0  0  0
   -1.2133   -3.8958    3.7728 H   0  0  0  0  0  0  0  0  0  0  0  0
    1.3624   -3.9593    4.5191 H   0  0  0  0  0  0  0  0  0  0  0  0
    1.8085   -6.2453    5.3346 H   0  0  0  0  0  0  0  0  0  0  0  0
    0.5049   -9.8143    2.4546 H   0  0  0  0  0  0  0  0  0  0  0  0
    2.2255   -9.7389    1.9517 H   0  0  0  0  0  0  0  0  0  0  0  0
    1.7051  -10.8962    3.1954 H   0  0  0  0  0  0  0  0  0  0  0  0
    1.0992   -7.7757    1.4033 H   0  0  0  0  0  0  0  0  0  0  0  0
    0.6511   -5.5181    0.6050 H   0  0  0  0  0  0  0  0  0  0  0  0
    1.0000    0.6626   -2.0334 H   0  0  0  0  0  0  0  0  0  0  0  0
    3.2650    1.4258   -2.5020 H   0  0  0  0  0  0  0  0  0  0  0  0
    6.7297    1.8679   -3.5314 H   0  0  0  0  0  0  0  0  0  0  0  0
    5.1522    2.6191   -3.1999 H   0  0  0  0  0  0  0  0  0  0  0  0
    5.5716    1.0327   -2.4650 H   0  0  0  0  0  0  0  0  0  0  0  0
    3.2457   -0.7782   -6.1688 H   0  0  0  0  0  0  0  0  0  0  0  0
    0.9670   -1.5784   -5.6725 H   0  0  0  0  0  0  0  0  0  0  0  0
   -0.7716    0.6079   -5.5258 H   0  0  0  0  0  0  0  0  0  0  0  0
   -2.4947    0.4261   -7.2696 H   0  0  0  0  0  0  0  0  0  0  0  0
   -5.1343   -3.6531   -7.3561 H   0  0  0  0  0  0  0  0  0  0  0  0
   -6.1156   -2.5683   -6.3167 H   0  0  0  0  0  0  0  0  0  0  0  0
   -6.4723   -2.7148   -8.0522 H   0  0  0  0  0  0  0  0  0  0  0  0
   -4.0191   -3.0965   -5.3835 H   0  0  0  0  0  0  0  0  0  0  0  0
   -2.2897   -2.9451   -3.6930 H   0  0  0  0  0  0  0  0  0  0  0  0
   -2.2369    0.8443   -2.7419 H   0  0  0  0  0  0  0  0  0  0  0  0
   -4.7379    4.4643   -4.6712 H   0  0  0  0  0  0  0  0  0  0  0  0
   -5.8774    3.1427   -4.7863 H   0  0  0  0  0  0  0  0  0  0  0  0
   -4.0190    1.5678   -5.3243 H   0  0  0  0  0  0  0  0  0  0  0  0
   -2.8664    2.8924   -5.2312 H   0  0  0  0  0  0  0  0  0  0  0  0
   -4.1063    2.8933   -6.4840 H   0  0  0  0  0  0  0  0  0  0  0  0
   -3.0932    3.7813   -0.8055 H   0  0  0  0  0  0  0  0  0  0  0  0
   -3.6693    5.1301   -1.7577 H   0  0  0  0  0  0  0  0  0  0  0  0
   -1.2330    4.8146   -2.0465 H   0  0  0  0  0  0  0  0  0  0  0  0
   -2.0722    4.5655   -3.5748 H   0  0  0  0  0  0  0  0  0  0  0  0
   -1.4955    3.1798   -2.6492 H   0  0  0  0  0  0  0  0  0  0  0  0
   -6.3716   -1.1951   -0.9648 H   0  0  0  0  0  0  0  0  0  0  0  0
   -4.2848   -2.4732   -0.9907 H   0  0  0  0  0  0  0  0  0  0  0  0
   -8.0353    0.2381   -0.6593 H   0  0  0  0  0  0  0  0  0  0  0  0
   -9.3624    2.0503    0.3101 H   0  0  0  0  0  0  0  0  0  0  0  0
   -6.7206    4.9334   -1.3906 H   0  0  0  0  0  0  0  0  0  0  0  0
   -9.7619    4.6879    0.4942 H   0  0  0  0  0  0  0  0  0  0  0  0
   -9.5009    4.8023    5.6662 H   0  0  0  0  0  0  0  0  0  0  0  0
   -4.9540    3.3155    3.9935 H   0  0  0  0  0  0  0  0  0  0  0  0
   -5.0386    3.3055    7.4339 H   0  0  0  0  0  0  0  0  0  0  0  0
   -5.2166    0.8084    6.5317 H   0  0  0  0  0  0  0  0  0  0  0  0
   -5.1578    0.7377    9.1570 H   0  0  0  0  0  0  0  0  0  0  0  0
   -7.5432    1.4862   10.0605 H   0  0  0  0  0  0  0  0  0  0  0  0
   -9.0733    2.0097    7.9913 H   0  0  0  0  0  0  0  0  0  0  0  0
   -7.7354    1.3347    5.7580 H   0  0  0  0  0  0  0  0  0  0  0  0
   -7.7087    0.0029    6.9353 H   0  0  0  0  0  0  0  0  0  0  0  0
   -7.3766    4.0374    8.3214 H   0  0  0  0  0  0  0  0  0  0  0  0
  1  2  2  0  0  0  0
  2  3  1  0  0  0  0
  3  4  2  0  0  0  0
  3  5  1  0  0  0  0
  5  6  2  0  0  0  0
  6  7  1  0  0  0  0
  7  8  2  0  0  0  0
  8  9  1  0  0  0  0
  9 10  2  0  0  0  0
 10 11  1  0  0  0  0
 11 12  2  0  0  0  0
 12 13  1  0  0  0  0
 13 14  3  0  0  0  0
 12 15  1  0  0  0  0
 15 16  3  0  0  0  0
  8 17  1  0  0  0  0
 17 18  1  0  0  0  0
 18 19  1  0  0  0  0
 19 20  2  0  0  0  0
 20 21  1  0  0  0  0
 21 22  1  0  0  0  0
 21 23  1  0  0  0  0
  1 24  1  0  0  0  0
 24 25  1  0  0  0  0
 25 26  1  0  0  0  0
 26 27  2  0  0  0  0
 27 28  1  0  0  0  0
 28 29  1  0  0  0  0
 29 30  1  0  0  0  0
 30 31  1  0  0  0  0
 31 32  1  0  0  0  0
 26 33  1  0  0  0  0
 33 34  2  0  0  0  0
 34 35  1  0  0  0  0
 35 36  1  0  0  0  0
 36 37  2  0  0  0  0
 37 38  1  0  0  0  0
 38 39  2  0  0  0  0
 39 40  1  0  0  0  0
 40 41  1  0  0  0  0
 39 42  1  0  0  0  0
 42 43  2  0  0  0  0
 35 44  1  0  0  0  0
 44 45  2  0  0  0  0
 45 46  1  0  0  0  0
 46 47  2  0  0  0  0
 47 48  1  0  0  0  0
 48 49  1  0  0  0  0
 47 50  1  0  0  0  0
 50 51  2  0  0  0  0
 34 52  1  0  0  0  0
 52 53  1  0  0  0  0
 53 54  1  0  0  0  0
 54 55  2  0  0  0  0
 55 56  1  0  0  0  0
 56 57  1  0  0  0  0
 57 58  2  0  0  0  0
 58 59  1  0  0  0  0
 59 60  2  0  0  0  0
 60 61  1  0  0  0  0
 61 62  1  0  0  0  0
 60 63  1  0  0  0  0
 63 64  2  0  0  0  0
 56 65  1  0  0  0  0
 65 66  2  0  0  0  0
 66 67  1  0  0  0  0
 67 68  2  0  0  0  0
 68 69  1  0  0  0  0
 69 70  1  0  0  0  0
 68 71  1  0  0  0  0
 71 72  2  0  0  0  0
 55 73  1  0  0  0  0
 73 74  1  0  0  0  0
 54 75  1  0  0  0  0
 75 76  2  0  0  0  0
 76 77  1  0  0  0  0
 77 78  1  0  0  0  0
 78 79  1  0  0  0  0
 79 80  1  0  0  0  0
 78 81  1  0  0  0  0
 81 82  1  0  0  0  0
 78 83  1  0  0  0  0
 83 84  2  0  0  0  0
 84 85  1  0  0  0  0
 85 86  1  0  0  0  0
 86 87  2  0  0  0  0
 84 88  1  0  0  0  0
 88 89  2  0  0  0  0
 89 90  1  0  0  0  0
 90 91  2  0  0  0  0
 90 92  1  0  0  0  0
 92 93  2  0  0  0  0
 93 94  1  0  0  0  0
 94 95  2  0  0  0  0
 94 96  1  0  0  0  0
 96 97  2  0  0  0  0
 97 98  1  0  0  0  0
 98 99  2  0  0  0  0
 99100  1  0  0  0  0
100101  2  0  0  0  0
101102  1  0  0  0  0
102103  2  0  0  0  0
103104  1  0  0  0  0
104105  3  0  0  0  0
103106  1  0  0  0  0
106107  3  0  0  0  0
 99108  1  0  0  0  0
108109  1  0  0  0  0
109110  1  0  0  0  0
110111  2  0  0  0  0
111112  1  0  0  0  0
112113  1  0  0  0  0
112114  1  0  0  0  0
 11  2  1  0  0  0  0
 23 17  1  0  0  0  0
 28 24  2  0  0  0  0
 74 33  1  0  0  0  0
 87 75  1  0  0  0  0
102 93  1  0  0  0  0
114108  1  0  0  0  0
 10  5  1  0  0  0  0
 22 18  1  0  0  0  0
 32 27  1  0  0  0  0
 43 36  1  0  0  0  0
 51 44  1  0  0  0  0
 73 52  2  0  0  0  0
 85 77  2  0  0  0  0
101 96  1  0  0  0  0
113109  1  0  0  0  0
 23  7  1  0  0  0  0
 64 57  1  0  0  0  0
 72 65  1  0  0  0  0
 91 83  1  0  0  0  0
114 98  1  0  0  0  0
  1115  1  0  0  0  0
  6116  1  0  0  0  0
  9117  1  0  0  0  0
 17118  1  0  0  0  0
 18119  1  0  0  0  0
 19120  1  0  0  0  0
 20121  1  0  0  0  0
 21122  1  0  0  0  0
 22123  1  0  0  0  0
 22124  1  0  0  0  0
 23125  1  0  0  0  0
 30126  1  0  0  0  0
 30127  1  0  0  0  0
 31128  1  0  0  0  0
 31129  1  0  0  0  0
 37130  1  0  0  0  0
 38131  1  0  0  0  0
 41132  1  0  0  0  0
 41133  1  0  0  0  0
 41134  1  0  0  0  0
 42135  1  0  0  0  0
 43136  1  0  0  0  0
 45137  1  0  0  0  0
 46138  1  0  0  0  0
 49139  1  0  0  0  0
 49140  1  0  0  0  0
 49141  1  0  0  0  0
 50142  1  0  0  0  0
 51143  1  0  0  0  0
 58144  1  0  0  0  0
 59145  1  0  0  0  0
 62146  1  0  0  0  0
 62147  1  0  0  0  0
 62148  1  0  0  0  0
 63149  1  0  0  0  0
 64150  1  0  0  0  0
 66151  1  0  0  0  0
 67152  1  0  0  0  0
 70153  1  0  0  0  0
 70154  1  0  0  0  0
 70155  1  0  0  0  0
 71156  1  0  0  0  0
 72157  1  0  0  0  0
 76158  1  0  0  0  0
 79159  1  0  0  0  0
 79160  1  0  0  0  0
 80161  1  0  0  0  0
 80162  1  0  0  0  0
 80163  1  0  0  0  0
 81164  1  0  0  0  0
 81165  1  0  0  0  0
 82166  1  0  0  0  0
 82167  1  0  0  0  0
 82168  1  0  0  0  0
 86169  1  0  0  0  0
 87170  1  0  0  0  0
 88171  1  0  0  0  0
 89172  1  0  0  0  0
 91173  1  0  0  0  0
 92174  1  0  0  0  0
 97175  1  0  0  0  0
100176  1  0  0  0  0
108177  1  0  0  0  0
109178  1  0  0  0  0
110179  1  0  0  0  0
111180  1  0  0  0  0
112181  1  0  0  0  0
113182  1  0  0  0  0
113183  1  0  0  0  0
114184  1  0  0  0  0
M  END
