246

C          9.67970        1.46290        3.82520
C          8.81740        2.26450        4.50730
C          7.36650        1.98950        4.68180
O          6.80210        0.92010        4.75300
C          6.72800        3.31820        4.69970
C          5.36320        3.58080        4.61440
C          5.05510        4.91850        4.56350
C          6.03100        5.92430        4.60530
C          7.38010        5.67900        4.71520
C          7.71620        4.32240        4.75520
C          9.02500        3.67840        4.77960
C         10.22960        4.27030        5.03930
C         11.44450        3.55390        5.10040
N         12.45470        3.01460        5.17770
C         10.39120        5.64140        5.32480
N         10.57160        6.74980        5.56240
C          5.01100        7.02580        4.45400
C          4.86470        7.68380        3.05880
C          5.29250        6.65180        2.04460
C          4.36660        5.70230        2.01670
C          3.29570        6.07400        3.01190
C          3.33800        7.60610        2.89520
C          3.92450        5.90490        4.41820
C          9.31730        0.19030        3.30060
C          8.53680       -0.80400        3.81960
C          8.01840       -1.68320        2.84140
C          6.99780       -2.64660        3.03030
C          6.77360       -3.25130        4.31430
C          7.70760       -3.45970        5.29740
C          7.22110       -4.16260        6.41920
C          8.09550       -4.53310        7.57870
C          8.83830       -5.84100        7.30030
C          5.90410       -4.50830        6.28450
C          5.01170       -5.20920        7.25250
C          4.29520       -4.20720        8.16160
S          5.25020       -3.95420        4.77620
C          6.24110       -2.92410        1.89640
C          6.59660       -2.50290        0.58990
C          7.79020       -1.77960        0.37820
C          8.31580       -1.42000       -0.91930
C          9.63790       -1.27280       -1.23970
C          9.87450       -0.86310       -2.57120
C         11.25690       -0.69430       -3.12380
C         11.80330       -2.02870       -3.63390
C          8.71750       -0.69770       -3.27710
S          7.32610       -1.03740       -2.29910
C          8.52400       -0.23980       -4.68330
C          8.27600        1.26970       -4.74190
C          8.42250       -1.32510        1.53440
S          9.61900       -0.05730        1.57720
C          5.58910       -2.82180       -0.34760
C          4.48430       -3.41220        0.19700
S          4.69250       -3.71500        1.90990
C          3.20840       -3.50220       -0.43580
C          2.07880       -4.26530       -0.15880
N          2.02260       -5.36430        0.67010
C          3.17190       -6.08540        1.02410
C          4.16970       -6.36320        0.09030
C          5.35310       -6.94050        0.49520
C          5.55700       -7.26750        1.83360
S          7.14220       -7.90080        2.28850
C          7.23660       -7.49940        4.05890
C          4.52790       -7.08390        2.74650
C          3.34710       -6.49480        2.34450
C          0.81130       -5.69020        1.31000
C          0.04240       -4.71450        1.94300
C         -1.14440       -5.05780        2.55200
C         -1.58310       -6.38030        2.55020
S         -3.12310       -6.69520        3.35290
C         -3.34290       -8.49050        3.19560
C         -0.80800       -7.35780        1.93970
C          0.37960       -7.01190        1.32580
C          0.95020       -3.75020       -0.85280
S         -0.75260       -4.09330       -0.86670
C         -1.07000       -2.64130       -1.79990
C          0.08850       -1.97290       -2.13190
N          0.14540       -0.76000       -2.84890
C          0.29930        0.43120       -2.14450
C          0.31080        1.65140       -2.82160
C          0.47950        2.83850       -2.13920
C          0.62320        2.83590       -0.75830
S          0.86910        4.31260        0.19520
C          1.76810        5.38400       -0.96710
C          0.54460        1.63230       -0.06970
C          0.38340        0.44540       -0.75120
C          0.63430       -0.91180       -4.16500
C          1.80910       -0.30170       -4.58990
C          2.27730       -0.49360       -5.87570
C          1.58220       -1.31400       -6.75340
S          2.07980       -1.63690       -8.41720
C          3.60350       -0.66960       -8.61630
C          0.41680       -1.94540       -6.32320
C         -0.05140       -1.74900       -5.04310
C          1.22530       -2.62740       -1.61960
S          2.89690       -2.22590       -1.61280
C         -2.40200       -2.20020       -2.03160
C         -3.56170       -2.89640       -1.85480
C         -4.72220       -2.12050       -2.08340
C         -6.06550       -2.53270       -1.96820
C         -6.39990       -3.86140       -1.50000
C         -5.83420       -4.55490       -0.46810
C         -6.38160       -5.84390       -0.27290
C         -5.92630       -6.74420        0.83480
C         -6.70810       -6.46070        2.11780
C         -7.37930       -6.12540       -1.16240
C         -8.16680       -7.38100       -1.32900
C         -7.54850       -8.27870       -2.40380
S         -7.65050       -4.80590       -2.25540
C         -7.02730       -1.59070       -2.30950
C         -6.71560       -0.25020       -2.66190
C         -5.36860        0.19130       -2.67900
C         -5.03690        1.58620       -2.82780
C         -5.77700        2.67180       -2.43650
C         -5.14430        3.91370       -2.65560
C         -5.80580        5.20770       -2.29160
C         -5.93040        5.35860       -0.77540
C         -3.90160        3.77660       -3.21060
S         -3.50170        2.11050       -3.47000
C         -2.89540        4.82540       -3.54610
C         -2.20460        5.35430       -2.28670
C         -4.40610       -0.78900       -2.45100
S         -2.68200       -0.54190       -2.51240
C         -7.87360        0.49720       -2.95250
C         -9.04550       -0.19480       -2.77220
S         -8.74400       -1.86350       -2.30490
C        -10.38790        0.21970       -2.92910
C        -10.89220        1.48340       -2.80680
C        -10.21480        2.64650       -2.18690
O         -9.04180        2.78000       -1.90220
C        -11.28200        3.62270       -1.90020
C        -11.13660        4.83920       -1.23570
C        -12.30950        5.53910       -1.08870
C        -13.54020        5.06170       -1.56000
C        -13.69770        3.86410       -2.21610
C        -12.51360        3.13880       -2.38310
C        -12.28390        1.84280       -3.01300
C        -13.19840        1.13290       -3.74540
C        -12.91940       -0.06410       -4.43960
N        -12.76850       -1.02430       -5.05100
C        -14.53530        1.53170       -3.94980
N        -15.63440        1.79900       -4.14770
C        -14.29140        6.27000       -1.05830
C        -14.68950        7.32310       -2.11370
C        -14.95910        8.56760       -1.29890
C        -13.79310        9.02090       -0.85670
C        -12.71570        8.09020       -1.36500
C        -13.32670        7.69110       -2.71440
C        -12.91870        6.80380       -0.53660
H         10.61170        1.88430        3.46570
H          4.64480        2.77710        4.57480
H          8.12350        6.45910        4.74200
H          4.96880        7.75420        5.26110
H          5.32900        8.66270        2.97190
H          6.22390        6.68900        1.50990
H          4.36650        4.78690        1.45450
H          2.33370        5.58610        2.87980
H          2.79000        8.11670        3.68560
H          2.99910        7.96540        1.92440
H          3.17630        5.89570        5.20820
H          8.28990       -0.86940        4.86150
H          8.73320       -3.14960        5.20470
H          7.49650       -4.63850        8.48390
H          8.82170       -3.73520        7.74510
H          9.48290       -6.09710        8.13760
H          8.13220       -6.65390        7.14340
H          9.45190       -5.74450        6.40740
H          4.26610       -5.78680        6.70180
H          5.59950       -5.90090        7.85930
H          5.01740       -3.61950        8.72340
H          3.64760       -4.72810        8.86260
H          3.69020       -3.52810        7.56560
H         10.43520       -1.48340       -0.54890
H         11.25220        0.03420       -3.93590
H         11.90830       -0.31560       -2.33370
H         11.82750       -2.75970       -2.82910
H         12.81230       -1.90350       -4.01980
H         11.17250       -2.41910       -4.42990
H          9.40760       -0.48980       -5.27320
H          7.66740       -0.76070       -5.11730
H          8.14110        1.59190       -5.77170
H          7.38300        1.52540       -4.17580
H          9.11870        1.80920       -4.31540
H          5.64190       -2.58080       -1.39300
H          4.02700       -6.09290       -0.94520
H          6.14100       -7.12630       -0.21840
H          6.91950       -6.47270        4.21380
H          6.63070       -8.18960        4.63900
H          8.28100       -7.61220        4.33240
H          4.64530       -7.36930        3.77920
H          2.56720       -6.31000        3.06760
H          0.38740       -3.69150        1.96360
H         -1.74370       -4.30640        3.04280
H         -2.52400       -9.01000        3.68440
H         -4.27510       -8.71640        3.70410
H         -3.41970       -8.76740        2.14810
H         -1.11820       -8.39000        1.92710
H          0.98180       -7.77160        0.84980
H          0.18110        1.66680       -3.89290
H          0.49750        3.76340       -2.69450
H          2.24590        6.14970       -0.36360
H          2.51930        4.79650       -1.48570
H          1.07920        5.84410       -1.66950
H          0.62540        1.63340        1.00660
H          0.33520       -0.47810       -0.19480
H          2.36810        0.31880       -3.90520
H          3.19250       -0.00670       -6.17170
H          3.39500        0.38670       -8.47330
H          4.36120       -1.02160       -7.92230
H          3.92860       -0.84580       -9.63690
H         -0.11530       -2.58800       -7.00780
H         -0.95530       -2.23910       -4.71470
H         -3.57750       -3.93730       -1.58730
H         -5.06930       -4.14460        0.16780
H         -4.86520       -6.56610        1.01860
H         -6.05460       -7.78970        0.54880
H         -7.76980       -6.64380        1.96700
H         -6.35500       -7.09470        2.92740
H         -6.57750       -5.42310        2.41470
H         -9.18960       -7.13070       -1.61810
H         -8.20410       -7.91720       -0.37890
H         -8.12550       -9.19400       -2.51060
H         -7.53500       -7.76210       -3.36060
H         -6.52580       -8.53920       -2.13950
H         -6.73520        2.59880       -1.95740
H         -5.24170        6.04620       -2.70220
H         -6.80690        5.22220       -2.73020
H         -6.38270        6.31640       -0.52680
H         -6.55220        4.56510       -0.36890
H         -4.95240        5.30310       -0.30200
H         -3.38190        5.65260       -4.07040
H         -2.14760        4.39410       -4.21450
H         -2.92160        5.84190       -1.63200
H         -1.43810        6.07840       -2.55550
H         -1.74330        4.53580       -1.73940
H         -7.85120        1.49150       -3.35190
H        -11.09200       -0.58800       -3.09400
H        -10.17140        5.16420       -0.87950
H        -14.65230        3.50370       -2.56130
H        -15.08110        6.07070       -0.33650
H        -15.47110        7.00740       -2.79920
H        -15.94220        8.94570       -1.08850
H        -13.60770        9.85310       -0.20300
H        -11.69910        8.47440       -1.36860
H        -13.39350        8.53340       -3.40100
H        -12.81920        6.86180       -3.20380
H        -12.79400        6.96270        0.53300
