160

C         -7.47370        0.14590        0.98130
C         -7.63350       -0.99810        0.24030
C         -6.69910       -1.49760       -0.77240
O         -5.74140       -0.91550       -1.25590
C         -7.13350       -2.86370       -1.10180
C         -6.48310       -3.76900       -1.93710
C         -7.09380       -4.99770       -2.00940
C         -8.26780       -5.30120       -1.30750
C         -8.92150       -4.41410       -0.48400
C         -8.31500       -3.15770       -0.39210
C         -8.68290       -1.98500        0.40240
C         -9.83190       -1.85650        1.14050
C        -10.83080       -2.84700        1.23850
N        -11.68380       -3.60540        1.36480
C        -10.20100       -0.71900        1.88760
N        -10.57570        0.16440        2.51970
C         -8.31030       -6.71520       -1.83290
C         -9.31700       -7.00560       -2.96600
C         -8.80510       -8.28730       -3.58320
C         -7.69220       -7.99990       -4.24630
C         -7.43280       -6.51910       -4.08810
C         -8.87610       -6.00150       -4.03880
C         -7.00000       -6.37620       -2.61390
C         -6.42880        1.08120        0.96430
C         -6.32880        2.12620        1.88250
C         -5.17270        2.87870        1.75380
S         -4.76430        4.30980        2.70690
C         -4.86810        3.65030        4.40870
C         -3.81160        2.59620        4.66900
C         -4.37220        2.45620        0.69210
S         -5.06660        1.09470       -0.12850
C         -3.06900        2.90040        0.36680
C         -2.40980        2.77950       -0.85650
N         -3.02880        2.52830       -2.05750
C         -4.33780        2.96920       -2.29940
C         -4.78690        4.18550       -1.79290
C         -6.09400        4.58760       -1.97980
C         -6.97550        3.78060       -2.68810
S         -8.67110        4.17690       -2.96840
C         -8.95130        5.65000       -1.94490
C         -6.51990        2.57870       -3.22700
C         -5.21910        2.17300       -3.03310
C         -2.33360        1.83950       -3.06400
C         -1.55540        0.72550       -2.75060
C         -0.86090        0.06710       -3.74010
C         -0.93490        0.49920       -5.06320
S         -0.00340       -0.42340       -6.24210
C         -0.23530        0.48740       -7.79560
C         -1.72540        1.59640       -5.38080
C         -2.41510        2.26160       -4.38680
C         -1.02100        3.01830       -0.70360
S          0.34920        2.87730       -1.74870
C          1.42480        3.27570       -0.41640
C          0.74990        3.47660        0.78560
N          1.32380        3.60950        2.03180
C          0.58280        4.22270        3.05320
C         -0.13620        5.39190        2.79810
C         -0.94230        5.93650        3.77230
C         -1.04010        5.33410        5.02510
S         -2.16950        6.07220        6.16140
C         -2.03880        5.03840        7.64850
C         -0.27840        4.20570        5.30200
C          0.52510        3.65560        4.32260
C          2.53590        2.96500        2.33670
C          2.81210        1.68680        1.84840
C          4.06520        1.13910        2.01270
C          5.06300        1.84780        2.68000
S          6.67770        1.13450        2.73220
C          7.72980        2.59290        2.97590
C          4.75500        3.07100        3.26220
C          3.50200        3.62550        3.08960
C         -0.64780        3.35360        0.58890
S         -2.00390        3.44780        1.65430
C          2.81700        3.10690       -0.64560
S          4.06940        4.18000        0.05070
C          5.23940        3.03880       -0.49540
N          6.53160        2.88440       -0.28540
C          6.96880        1.75400       -0.80880
S          5.73100        0.81470       -1.68010
C          4.60180        2.01760       -1.23810
N          3.27610        2.09760       -1.32120
C          8.29780        1.35920       -0.56900
C          8.93600        0.19470       -0.89620
C          8.36980       -0.90550       -1.69340
O          7.27210       -0.95430       -2.21830
C          9.40150       -1.94990       -1.75760
C          9.28940       -3.19390       -2.37360
C         10.41240       -3.97650       -2.25690
C         11.56410       -3.54900       -1.58190
C         11.68510       -2.32420       -0.96860
C         10.55130       -1.51200       -1.07010
C         10.28770       -0.18370       -0.51880
C         11.16380        0.53650        0.25070
C         12.48150        0.13260        0.55530
N         13.56610       -0.11660        0.83740
C         10.89100        1.76570        0.88430
N         10.75280        2.74350        1.47200
C         12.29950       -4.83620       -1.85930
C         13.36630       -4.83270       -2.98210
C         12.96550       -3.74950       -3.95260
C         11.87450       -4.15710       -4.58710
C         11.51710       -5.52350       -4.05630
C         12.92110       -6.07750       -3.76630
C         11.01450       -5.31370       -2.60670
H         -8.21770        0.34860        1.74240
H         -5.57520       -3.49500       -2.45130
H         -9.81600       -4.66940        0.05900
H         -8.27940       -7.50040       -1.07990
H        -10.36020       -6.99050       -2.66290
H         -9.25910       -9.24910       -3.43220
H         -7.03100       -8.67330       -4.75960
H         -6.75930       -6.06040       -4.80720
H         -9.39940       -6.15070       -4.98180
H         -8.96360       -4.96010       -3.73440
H         -6.09530       -6.93460       -2.37980
H         -7.08790        2.31120        2.62220
H         -5.87440        3.26290        4.56240
H         -4.71720        4.52670        5.03810
H         -2.81760        3.00810        4.50650
H         -3.88770        2.24240        5.69570
H         -3.94450        1.74660        4.00140
H         -4.11190        4.82170       -1.23980
H         -6.40830        5.53320       -1.56930
H         -8.38400        6.49100       -2.33310
H        -10.01400        5.85860       -2.01980
H         -8.68780        5.43620       -0.91330
H         -7.20710        1.95780       -3.78060
H         -4.88290        1.22360       -3.41900
H         -1.51230        0.37510       -1.73050
H         -0.25450       -0.79290       -3.50230
H          0.37530       -0.02870       -8.52990
H         -1.27820        0.45510       -8.09730
H          0.11270        1.50960       -7.67980
H         -1.80870        1.94970       -6.39560
H         -3.02190        3.11960       -4.63580
H         -0.06450        5.86120        1.82860
H         -1.51700        6.82690        3.57120
H         -2.73570        5.46630        8.36260
H         -1.02980        5.08510        8.04730
H         -2.32740        4.01700        7.41860
H         -0.31510        3.73070        6.26900
H          1.09560        2.76340        4.53450
H          2.05220        1.14060        1.30960
H          4.29120        0.16480        1.60660
H          8.74980        2.27320        2.78700
H          7.64670        2.95390        3.99660
H          7.44310        3.35260        2.25470
H          5.49350        3.61500        3.82760
H          3.27810        4.59640        3.50560
H          8.84320        2.10330       -0.00230
H          8.38110       -3.48090       -2.87980
H         12.57710       -2.01780       -0.44870
H         12.62030       -5.39870       -0.98480
H         14.39320       -4.80400       -2.62800
H         13.46800       -2.80360       -4.03440
H         11.28290       -3.62010       -5.30520
H         10.86020       -6.12450       -4.67950
H         12.91330       -6.98760       -3.16810
H         13.50590       -6.23690       -4.67090
H         10.49330       -6.18600       -2.21710
