114

C         -3.26710       -5.29790       -3.48800
C         -2.74710       -6.54360       -3.69190
C         -1.40400       -6.99110       -3.29480
O         -0.58940       -6.37480       -2.63030
C         -1.23070       -8.33550       -3.86710
C         -0.09500       -9.13930       -3.79530
C         -0.21660      -10.33990       -4.45260
C         -1.37960      -10.71040       -5.14160
C         -2.50790       -9.92920       -5.21760
C         -2.41070       -8.70810       -4.54430
C         -3.39220       -7.63590       -4.40140
C         -4.69430       -7.68920       -4.82220
C         -5.27570       -8.79170       -5.48470
N         -5.81860       -9.64620       -6.02580
C         -5.66340       -6.68120       -4.63020
N         -6.51720       -5.92280       -4.50760
C         -0.79880      -12.03270       -5.57410
C         -1.26380      -13.30420       -4.82260
C         -1.67920      -12.85770       -3.44270
C         -0.58260      -12.50950       -2.78300
C          0.59440      -12.71470       -3.70440
C          0.10270      -13.93170       -4.50450
C          0.49400      -11.62400       -4.79990
C         -2.70950       -4.17230       -2.85050
C         -3.38460       -2.96070       -2.77050
C         -2.66200       -1.96240       -2.12650
S         -3.29820       -0.33430       -1.84090
C         -3.32410       -0.31850       -0.00720
C         -4.20860       -1.40870        0.56310
C         -1.41740       -2.39930       -1.70680
S         -1.14850       -4.05920       -2.07230
C         -0.43110       -1.56730       -1.04050
C          0.07690       -1.86830        0.23120
C          0.89680       -0.98580        0.90120
C          1.26390        0.24820        0.34340
C          0.78190        0.53760       -0.92840
C          0.88400        1.76350       -1.76330
O          1.36220        2.84110       -1.50810
N          0.23820        1.45690       -2.94860
C          0.17570        2.36300       -4.07460
C          1.36120        2.15980       -5.01120
C         -0.30140        0.18150       -2.96530
O         -0.82280       -0.33730       -3.91870
C         -0.02800       -0.36830       -1.61350
C          2.10650        1.19190        1.06380
C          3.17880        1.84840        0.44840
C          3.89680        2.93040        1.09240
N          4.84580        3.43240        0.29640
S          4.85160        2.61550       -1.07900
N          3.67060        1.58920       -0.77050
C          3.55430        3.40150        2.37250
C          2.58370        2.63730        3.04300
N          2.20790        2.78020        4.31680
S          1.05460        1.72690        4.64130
N          0.97340        0.99260        3.22280
C          1.87090        1.54980        2.39690
C          4.18040        4.56130        2.92570
C          3.55890        5.49810        3.68730
C          2.08450        5.69900        3.76540
O          1.20680        5.00590        3.29950
C          1.90050        7.00500        4.42500
C          0.68780        7.64540        4.67150
C          0.81470        8.87630        5.26760
C          2.05850        9.43730        5.59070
C          3.26190        8.81660        5.35610
C          3.15460        7.55940        4.75280
C          4.19580        6.61960        4.35600
C          5.52950        6.71860        4.64870
C          6.11870        7.80380        5.33080
N          6.66180        8.65670        5.87440
C          6.49000        5.72770        4.35030
N          7.32380        4.96000        4.16770
C          1.43700       10.69820        6.13630
C          1.47800       11.96560        5.24670
C          1.54080       11.48650        3.81760
C          0.36360       10.95480        3.51640
C         -0.51670       11.06460        4.73690
C          0.00160       12.38610        5.32620
C          0.05180       10.07160        5.78100
H         -4.25400       -5.10250       -3.89010
H          0.78400       -8.80970       -3.26360
H         -3.39140      -10.22760       -5.75650
H         -0.72150      -12.18950       -6.64800
H         -1.98110      -13.91270       -5.36640
H         -2.70100      -12.78910       -3.11830
H         -0.50480      -12.09150       -1.79640
H          1.56910      -12.78860       -3.22930
H          0.02160      -14.83090       -3.89590
H          0.70140      -14.13960       -5.39030
H          1.41730      -11.52010       -5.36660
H         -4.37020       -2.80970       -3.17280
H         -3.70870        0.67020        0.23930
H         -2.29800       -0.40180        0.35130
H         -4.24030       -1.32710        1.64760
H         -3.82520       -2.39320        0.30110
H         -5.22040       -1.31780        0.17540
H         -0.20600       -2.80180        0.69470
H          1.26320       -1.23540        1.88450
H         -0.76270        2.16840       -4.59910
H          0.17450        3.37920       -3.67300
H          1.30490        2.86560       -5.83510
H          2.29450        2.31850       -4.47520
H          1.35140        1.14960       -5.41330
H          5.21540        4.70130        2.63820
H         -0.24770        7.18080        4.40140
H          4.21140        9.26170        5.60350
H          1.64490       10.91880        7.18130
H          2.22440       12.69860        5.54030
H          2.42530       11.53070        3.20950
H          0.06840       10.46550        2.60670
H         -1.58660       10.97770        4.56660
H         -0.22580       13.24530        4.69710
H         -0.34250       12.57280        6.34250
H         -0.64490        9.88060        6.59490
