177

C         -8.56550        0.72270        3.42890
C         -8.74530       -0.60780        3.24030
C        -10.11270       -1.19490        3.21630
O        -11.13080       -0.68060        3.62040
C         -9.95930       -2.49580        2.53670
C        -10.97420       -3.37520        2.16450
C        -10.52870       -4.51090        1.53270
C         -9.17230       -4.75390        1.27220
C         -8.15950       -3.89890        1.63410
C         -8.59080       -2.74400        2.29190
C         -7.81110       -1.65970        2.87710
C         -6.49830       -1.73430        3.25910
C         -5.61510       -2.76480        2.88540
N         -4.84060       -3.55450        2.57700
C         -5.89870       -0.79700        4.12840
N         -5.40960       -0.10060        4.89880
C         -9.45520       -6.08060        0.61340
C         -9.16400       -7.36320        1.43090
C         -9.28200       -6.97970        2.88540
C        -10.56340       -6.75250        3.14110
C        -11.33500       -6.97830        1.86420
C        -10.49680       -8.10370        1.23700
C        -10.96440       -5.81410        0.91160
C         -7.40260        1.48000        3.11550
C         -6.97510        2.63870        3.71910
C         -5.73660        3.10200        3.24050
S         -4.87620        4.46740        3.90910
C         -5.38010        4.38880        5.67090
C         -4.93190        3.10730        6.34310
C         -5.23560        2.31620        2.21500
S         -6.30180        0.99850        1.85750
C         -3.99650        2.36780        1.48480
C         -3.33740        3.52230        1.11170
O         -3.84760        4.74200        1.47140
C         -4.57270        5.43210        0.45840
C         -4.92220        6.80630        0.99920
C         -2.10020        3.52170        0.37380
O         -1.67780        4.78620        0.16590
C         -0.49720        5.11420       -0.53700
C         -0.25410        6.60040       -0.32750
C         -1.48490        2.33330        0.01240
C         -2.15000        1.13670        0.39530
C         -3.38930        1.14250        1.10500
N         -3.83280       -0.08490        1.35650
S         -2.78700       -1.15240        0.75740
N         -1.73360       -0.10320        0.13790
C         -0.20540        2.09620       -0.65110
C          0.77930        1.28310       -0.11680
N          0.78470        0.84270        1.19520
C          0.25430        1.68150        2.18620
C         -0.62620        1.20290        3.15370
C         -1.20930        2.07510        4.05010
C         -0.91680        3.43440        4.00090
S         -1.69270        4.51860        5.15790
C         -1.87040        6.03870        4.17780
C          0.00810        3.90530        3.07810
C          0.58970        3.03360        2.18460
C          1.35950       -0.39230        1.50530
C          1.26530       -1.45140        0.60490
C          1.95380       -2.62420        0.83350
C          2.73990       -2.75520        1.96920
S          3.73600       -4.18990        2.24960
C          4.27190       -4.56960        0.55140
C          2.75910       -1.73830        2.91700
C          2.07570       -0.56330        2.68900
C          1.81480        1.03360       -1.05060
S          3.24510        0.06940       -1.02680
C          3.64450        0.59830       -2.66410
C          2.63690        1.43050       -3.21040
N          2.63930        1.98920       -4.46570
C          3.07820        1.29880       -5.60510
C          3.67700        1.99240       -6.65740
C          4.11150        1.31310       -7.77310
C          3.96960       -0.07010       -7.86150
S          4.58220       -0.83060       -9.33040
C          4.46250       -2.60950       -8.98530
C          3.35740       -0.76110       -6.82280
C          2.90980       -0.07990       -5.70880
C          2.07560        3.27040       -4.59960
C          1.20850        3.57310       -5.64340
C          0.62420        4.82200       -5.73160
C          0.89870        5.78880       -4.77320
S          0.18070        7.39920       -4.74720
C         -0.77350        7.48200       -6.28850
C          1.78810        5.49600       -3.74040
C          2.37290        4.25450       -3.65530
C          1.61460        1.65740       -2.27500
S          0.12090        2.53970       -2.31410
C          4.85980        0.34960       -3.30050
C          5.92020       -0.43980       -2.91710
C          5.94150       -1.38340       -1.79890
O          5.05730       -1.59970       -0.98400
C          7.23650       -2.08190       -1.86920
C          7.71300       -3.05700       -0.99710
C          8.96720       -3.52320       -1.31160
C          9.69060       -3.05870       -2.41700
C          9.23110       -2.09570       -3.28480
C          7.96080       -1.60180       -2.97880
C          7.16790       -0.56110       -3.63480
C          7.57560        0.18360       -4.71580
C          8.78320       -0.01860       -5.41370
N          9.73920       -0.13390       -6.04020
C          6.87920        1.27500       -5.27000
N          6.39860        2.19740       -5.76100
C         10.87010       -3.95120       -2.12100
C         12.11820       -3.30390       -1.47200
C         11.62820       -2.09820       -0.70910
C         10.94340       -2.53380        0.34000
C         10.95860       -4.04200        0.30570
C         12.34560       -4.28480       -0.31060
C         10.06490       -4.46580       -0.88620
H         -9.41780        1.27260        3.81460
H        -12.00760       -3.15090        2.37780
H         -7.11910       -4.08780        1.42540
H         -9.14960       -6.17180       -0.42700
H         -8.25440       -7.88410        1.14450
H         -8.44090       -6.86080        3.54290
H        -11.00750       -6.40590        4.05580
H        -12.40270       -7.15000        1.97240
H        -10.54860       -9.03250        1.80300
H        -10.73930       -8.29520        0.19250
H        -11.64640       -5.73730        0.06700
H         -7.52300        3.10220        4.51870
H         -6.45590        4.54350        5.74040
H         -4.87690        5.24990        6.11040
H         -3.84850        3.02960        6.30060
H         -5.36130        2.23130        5.86180
H         -5.23830        3.11440        7.38730
H         -5.48490        4.86640        0.21670
H         -3.96230        5.51540       -0.44900
H         -5.53070        7.34490        0.27840
H         -5.47010        6.70050        1.93090
H         -4.01320        7.36800        1.19460
H         -0.62440        4.90080       -1.60640
H          0.34820        4.53010       -0.16100
H          0.64390        6.90340       -0.85610
H         -1.09570        7.17230       -0.70720
H         -0.13870        6.81470        0.73130
H         -0.86210        0.14920        3.18540
H         -1.91120        1.70890        4.78340
H         -2.25100        5.77760        3.19500
H         -0.92390        6.56880        4.12030
H         -2.59830        6.64880        4.70270
H          0.28650        4.94700        3.06080
H          1.32550        3.39150        1.47830
H          0.64430       -1.34590       -0.27160
H          1.88090       -3.42880        0.11940
H          3.50970       -5.14420        0.03240
H          4.47760       -3.63550        0.03570
H          5.17460       -5.16620        0.64350
H          3.34200       -1.86500        3.81630
H          2.12150        0.24150        3.40780
H          3.81640        3.05910       -6.58570
H          4.58800        1.84520       -8.58100
H          4.93600       -3.10200       -9.82890
H          3.42120       -2.91240       -8.92100
H          5.00070       -2.84410       -8.07150
H          3.21230       -1.82820       -6.87160
H          2.42960       -0.62270       -4.90780
H          0.98000        2.82050       -6.38320
H         -0.05320        5.02100       -6.54600
H         -0.11740        7.31560       -7.13770
H         -1.58430        6.75970       -6.26600
H         -1.17870        8.48840       -6.32730
H          2.01660        6.25930       -3.01270
H          3.06710        4.03500       -2.85800
H          4.97980        0.87960       -4.23670
H          7.12610       -3.38360       -0.15300
H          9.80270       -1.74820       -4.12900
H         11.13080       -4.67010       -2.89530
H         12.94610       -3.13540       -2.15540
H         11.77600       -1.08450       -1.03260
H         10.40430       -1.95680        1.06830
H         10.73140       -4.54550        1.24180
H         12.50250       -5.31270       -0.63500
H         13.15810       -3.97840        0.34660
H          9.80280       -5.52170       -0.85250
