183

C          7.30800       -4.22200        1.53590
C          8.29710       -3.28810        1.35070
C          8.09290       -1.83770        1.35860
O          7.05150       -1.24020        1.58310
C          9.40420       -1.23110        1.09210
C          9.69100        0.12610        0.96620
C         11.00900        0.39360        0.68500
C         11.97310       -0.61400        0.55230
C         11.70370       -1.95640        0.67960
C         10.36580       -2.25190        0.95350
C          9.70050       -3.54440        1.11360
C         10.30710       -4.76950        0.98730
C          9.65350       -6.01540        1.06240
N          9.19230       -7.06830        1.08550
C         11.67950       -4.96240        0.72980
N         12.78240       -5.20580        0.52050
C         13.07820        0.37080        0.26100
C         13.51280        0.49760       -1.21440
C         14.22500        1.82980       -1.26880
C         13.30890        2.78230       -1.14980
C         11.96220        2.10960       -1.01170
C         12.19100        0.87610       -1.89510
C         12.00140        1.49400        0.40340
C          5.91830       -4.04550        1.51230
C          5.02030       -5.11180        1.52170
C          3.71960       -4.75390        1.21530
S          2.38730       -5.91650        1.15030
C          2.31160       -6.36490        2.92500
C          2.13350       -5.15370        3.81580
C          3.58340       -3.39570        0.91340
S          5.07280       -2.54800        1.20810
C          2.43070       -2.73410        0.43090
C          2.33330       -1.53090       -0.27710
N          3.34850       -0.76550       -0.81740
C          3.08850        0.61410       -0.95910
C          3.26050        1.24900       -2.18780
C          2.86150        2.55770       -2.34830
C          2.28820        3.25460       -1.28720
S          1.70420        4.88930       -1.60330
C          0.43600        5.10840       -0.32320
C          2.19610        2.65210       -0.03970
C          2.59370        1.33990        0.12080
C          4.55200       -1.28360       -1.29390
C          5.71040       -0.50400       -1.22570
C          6.93240       -1.04850       -1.54130
C          7.03300       -2.38520       -1.92180
S          8.66510       -3.02970       -2.12190
C          8.41220       -4.82650       -2.15240
C          5.87590       -3.13300       -2.09520
C          4.64590       -2.58100       -1.79600
C          0.97560       -1.15990       -0.43360
S          0.18710        0.18370       -1.17470
C         -1.39440       -0.44270       -0.72010
C         -1.30200       -1.69220       -0.11060
N         -2.34010       -2.51370        0.29150
C         -3.45000       -2.78630       -0.50990
C         -3.44690       -2.55510       -1.88310
C         -4.55250       -2.86130       -2.65420
C         -5.68030       -3.41940       -2.06910
S         -7.14730       -3.86240       -2.94700
C         -6.84710       -3.26830       -4.63380
C         -5.68720       -3.65500       -0.69470
C         -4.59720       -3.32970        0.07640
C         -2.08380       -3.34570        1.40420
C         -2.20960       -4.73140        1.31300
C         -1.92750       -5.52300        2.40220
C         -1.51410       -4.95130        3.60480
S         -1.16540       -6.07070        4.92380
C         -0.90990       -4.98870        6.35920
C         -1.38290       -3.57220        3.69750
C         -1.66740       -2.77780        2.60290
C          0.05640       -2.05750        0.07830
S          0.84270       -3.43640        0.76460
C         -2.47380        0.45770       -0.93740
C         -3.81260        0.39780       -0.66000
C         -4.51010        1.59740       -0.95020
C         -5.87600        1.88020       -0.75090
C         -6.82030        0.85500       -0.35470
C         -6.90980       -0.40520       -0.87250
C         -7.95920       -1.20000       -0.36170
C         -8.72740       -0.61360        0.59510
C         -9.90580       -1.21110        1.29340
C         -9.83570       -1.01260        2.80490
Se        -8.15820        1.14410        0.93670
C         -6.29290        3.18240       -1.01590
C         -5.42390        4.19330       -1.50730
C         -4.04510        3.91580       -1.70940
C         -3.11470        4.93200       -2.14520
C         -3.11500        6.25830       -1.80080
C         -2.10500        7.04330       -2.39330
C         -1.26010        6.38180       -3.23600
C         -0.10120        6.96700       -3.97660
C          0.42210        6.03630       -5.06080
Se        -1.69500        4.56210       -3.32700
C         -3.65070        2.61550       -1.44100
S         -2.01810        2.03160       -1.58300
C         -6.12740        5.36870       -1.78410
C         -7.48170        5.31730       -1.47530
S         -7.92980        3.74550       -0.85100
C         -8.30560        6.43670       -1.68050
C         -9.62860        6.70950       -1.39530
C        -10.49040        5.71850       -0.74680
O        -10.13550        4.56980       -0.51940
N        -11.75220        6.11200       -0.36910
C        -12.58310        5.12530        0.31390
C        -13.32170        4.24240       -0.68350
C        -12.32660        7.34920       -0.63080
O        -13.45790        7.60080       -0.27420
C        -11.46650        8.28680       -1.35380
C        -10.18260        7.99420       -1.71770
C         -9.37050        9.01850       -2.45010
C        -12.05250        9.53590       -1.65140
N        -12.52390       10.55200       -1.89850
H          7.60850       -5.25740        1.64260
H          8.91700        0.86900        1.08170
H         12.45870       -2.71720        0.57580
H         13.91730        0.36280        0.95390
H         14.05000       -0.36180       -1.60550
H         15.29200        1.93800       -1.33020
H         13.45770        3.84470       -1.09160
H         11.08710        2.71980       -1.21930
H         12.32910        1.14080       -2.94210
H         11.41570        0.11650       -1.81190
H         12.12440        2.23830        1.18820
H          5.33020       -6.12690        1.69780
H          1.45330       -7.03180        2.99330
H          3.22000       -6.91450        3.17000
H          2.00120       -5.48090        4.84500
H          3.00560       -4.50380        3.76760
H          1.25900       -4.58510        3.50650
H          3.67260        0.69730       -3.01940
H          2.95930        3.04480       -3.30610
H         -0.15270        5.96870       -0.62810
H          0.89610        5.30210        0.64140
H         -0.19210        4.22240       -0.29420
H          1.80610        3.19040        0.80890
H          2.50220        0.86010        1.08420
H          5.64870        0.51270       -0.87100
H          7.83180       -0.45840       -1.45310
H          7.93210       -5.12460       -3.07970
H          7.82440       -5.12800       -1.28930
H          9.40340       -5.26680       -2.09900
H          5.91750       -4.15120       -2.44710
H          3.75450       -3.17860       -1.91560
H         -2.56920       -2.14670       -2.35980
H         -4.51100       -2.66920       -3.71440
H         -6.65910       -2.19850       -4.62030
H         -7.76090       -3.47450       -5.18250
H         -6.01950       -3.81160       -5.08070
H         -6.56120       -4.09280       -0.23850
H         -4.62330       -3.49960        1.14190
H         -2.51990       -5.17990        0.38160
H         -2.01410       -6.59620        2.33360
H         -0.01560       -4.38710        6.22470
H         -1.78650       -4.36590        6.51030
H         -0.78050       -5.65470        7.20680
H         -1.05940       -3.10210        4.61220
H         -1.56160       -1.70500        2.67390
H         -4.29290       -0.45760       -0.22370
H         -6.25020       -0.75170       -1.65060
H         -8.14620       -2.19690       -0.72300
H         -9.94940       -2.27630        1.05470
H        -10.82280       -0.74720        0.91590
H         -9.80080        0.05300        3.03650
H         -8.94070       -1.48160        3.20800
H        -10.70730       -1.44540        3.29000
H         -3.80560        6.66610       -1.08130
H         -2.00850        8.09800       -2.19120
H         -0.40500        7.92300       -4.41230
H          0.70540        7.17260       -3.26510
H         -0.36490        5.80950       -5.77950
H          1.25730        6.49010       -5.58780
H          0.76260        5.10340       -4.60940
H         -5.67790        6.24100       -2.22450
H         -7.75440        7.25210       -2.13390
H        -11.92620        4.52050        0.94220
H        -13.29320        5.67920        0.93070
H        -13.96250        4.84950       -1.31930
H        -13.93840        3.52510       -0.14930
H        -12.61010        3.70080       -1.30290
H         -8.51290        9.32700       -1.85250
H         -9.00770        8.61820       -3.39590
H         -9.97400        9.89860       -2.65680
