
  xtb     02172222383D
 energy: -297.453789661466 gnorm: 0.000736640672 xtb: 6.4.1 (unknown)
178196  0     0  0            999 V2000
   -2.1151    7.3255    5.2439 C   0  0  0  0  0  0  0  0  0  0  0  0
   -2.3970    6.8402    6.4908 C   0  0  0  0  0  0  0  0  0  0  0  0
   -2.2659    5.4415    6.9169 C   0  0  0  0  0  0  0  0  0  0  0  0
   -1.9114    4.4912    6.2402 O   0  0  0  0  0  0  0  0  0  0  0  0
   -2.6333    5.4052    8.3410 C   0  0  0  0  0  0  0  0  0  0  0  0
   -2.6524    4.2878    9.1736 C   0  0  0  0  0  0  0  0  0  0  0  0
   -3.0432    4.5582   10.4629 C   0  0  0  0  0  0  0  0  0  0  0  0
   -3.3833    5.8474   10.8947 C   0  0  0  0  0  0  0  0  0  0  0  0
   -3.3654    6.9582   10.0850 C   0  0  0  0  0  0  0  0  0  0  0  0
   -2.9775    6.7049    8.7654 C   0  0  0  0  0  0  0  0  0  0  0  0
   -2.8509    7.6173    7.6304 C   0  0  0  0  0  0  0  0  0  0  0  0
   -3.1407    8.9568    7.6549 C   0  0  0  0  0  0  0  0  0  0  0  0
   -3.0518    9.8422    6.5599 C   0  0  0  0  0  0  0  0  0  0  0  0
   -3.0169   10.6310    5.7251 N   0  0  0  0  0  0  0  0  0  0  0  0
   -3.5905    9.6580    8.7940 C   0  0  0  0  0  0  0  0  0  0  0  0
   -3.9622   10.2969    9.6726 N   0  0  0  0  0  0  0  0  0  0  0  0
   -3.6826    5.3853   12.2987 C   0  0  0  0  0  0  0  0  0  0  0  0
   -5.1732    5.2413   12.6723 C   0  0  0  0  0  0  0  0  0  0  0  0
   -5.1560    4.3402   13.8859 C   0  0  0  0  0  0  0  0  0  0  0  0
   -4.8359    3.1191   13.4773 C   0  0  0  0  0  0  0  0  0  0  0  0
   -4.6314    3.1741   11.9804 C   0  0  0  0  0  0  0  0  0  0  0  0
   -5.6646    4.2468   11.6124 C   0  0  0  0  0  0  0  0  0  0  0  0
   -3.3055    3.9475   11.8170 C   0  0  0  0  0  0  0  0  0  0  0  0
   -1.7028    6.6554    4.0774 C   0  0  0  0  0  0  0  0  0  0  0  0
   -1.4608    7.3357    2.8891 C   0  0  0  0  0  0  0  0  0  0  0  0
   -1.0845    6.5165    1.8300 C   0  0  0  0  0  0  0  0  0  0  0  0
   -0.8009    7.0971    0.1976 S   0  0  0  0  0  0  0  0  0  0  0  0
   -2.1510    8.3377    0.0407 C   0  0  0  0  0  0  0  0  0  0  0  0
   -3.5259    7.7262    0.2143 C   0  0  0  0  0  0  0  0  0  0  0  0
   -1.0353    5.1742    2.2017 C   0  0  0  0  0  0  0  0  0  0  0  0
   -1.4491    4.9482    3.8646 S   0  0  0  0  0  0  0  0  0  0  0  0
   -0.6680    4.0490    1.3813 C   0  0  0  0  0  0  0  0  0  0  0  0
   -1.2859    2.8140    1.4860 C   0  0  0  0  0  0  0  0  0  0  0  0
   -2.2948    2.6310    2.3581 F   0  0  0  0  0  0  0  0  0  0  0  0
   -0.9004    1.7186    0.7100 C   0  0  0  0  0  0  0  0  0  0  0  0
   -1.5480    0.5539    0.9152 F   0  0  0  0  0  0  0  0  0  0  0  0
    0.1466    1.7791   -0.1918 C   0  0  0  0  0  0  0  0  0  0  0  0
    0.7720    3.0460   -0.3620 C   0  0  0  0  0  0  0  0  0  0  0  0
    1.7188    3.1951   -1.3044 N   0  0  0  0  0  0  0  0  0  0  0  0
    2.3275    4.3482   -1.4281 C   0  0  0  0  0  0  0  0  0  0  0  0
    3.3208    4.4621   -2.5432 C   0  0  0  0  0  0  0  0  0  0  0  0
    2.6232    4.9478   -3.8165 C   0  0  0  0  0  0  0  0  0  0  0  0
    2.0108    5.4327   -0.5602 C   0  0  0  0  0  0  0  0  0  0  0  0
    1.0515    5.3126    0.3218 N   0  0  0  0  0  0  0  0  0  0  0  0
    0.3857    4.1536    0.4308 C   0  0  0  0  0  0  0  0  0  0  0  0
    2.7415    6.7392   -0.5667 C   0  0  0  0  0  0  0  0  0  0  0  0
    3.9724    6.6633    0.3399 C   0  0  0  0  0  0  0  0  0  0  0  0
    0.6194    0.6182   -0.9098 C   0  0  0  0  0  0  0  0  0  0  0  0
    1.9361    0.2137   -1.0703 C   0  0  0  0  0  0  0  0  0  0  0  0
    3.0327    0.7945   -0.4578 N   0  0  0  0  0  0  0  0  0  0  0  0
    4.2407    0.8802   -1.1556 C   0  0  0  0  0  0  0  0  0  0  0  0
    4.2496    1.0243   -2.5446 C   0  0  0  0  0  0  0  0  0  0  0  0
    5.4427    1.0889   -3.2291 C   0  0  0  0  0  0  0  0  0  0  0  0
    6.6552    1.0247   -2.5457 C   0  0  0  0  0  0  0  0  0  0  0  0
    8.1171    1.1427   -3.5279 S   0  0  0  0  0  0  0  0  0  0  0  0
    9.4584    0.7736   -2.3617 C   0  0  0  0  0  0  0  0  0  0  0  0
    6.6511    0.8931   -1.1630 C   0  0  0  0  0  0  0  0  0  0  0  0
    5.4548    0.8144   -0.4775 C   0  0  0  0  0  0  0  0  0  0  0  0
    2.8735    1.3970    0.7976 C   0  0  0  0  0  0  0  0  0  0  0  0
    3.4771    2.6176    1.1017 C   0  0  0  0  0  0  0  0  0  0  0  0
    3.1789    3.2639    2.2802 C   0  0  0  0  0  0  0  0  0  0  0  0
    2.2811    2.7087    3.1903 C   0  0  0  0  0  0  0  0  0  0  0  0
    1.8740    3.6786    4.6050 S   0  0  0  0  0  0  0  0  0  0  0  0
    0.6158    2.6912    5.4582 C   0  0  0  0  0  0  0  0  0  0  0  0
    1.7541    1.4492    2.9356 C   0  0  0  0  0  0  0  0  0  0  0  0
    2.0526    0.8028    1.7536 C   0  0  0  0  0  0  0  0  0  0  0  0
    2.0035   -0.9644   -1.8557 C   0  0  0  0  0  0  0  0  0  0  0  0
    3.2975   -1.9220   -2.4725 S   0  0  0  0  0  0  0  0  0  0  0  0
    2.1505   -3.0480   -3.2164 C   0  0  0  0  0  0  0  0  0  0  0  0
    0.8174   -2.6378   -3.0339 C   0  0  0  0  0  0  0  0  0  0  0  0
   -0.3120   -3.1834   -3.5843 N   0  0  0  0  0  0  0  0  0  0  0  0
   -1.5256   -2.9967   -2.8857 C   0  0  0  0  0  0  0  0  0  0  0  0
   -1.5841   -3.2566   -1.5199 C   0  0  0  0  0  0  0  0  0  0  0  0
   -2.7323   -2.9813   -0.8062 C   0  0  0  0  0  0  0  0  0  0  0  0
   -3.8374   -2.4423   -1.4535 C   0  0  0  0  0  0  0  0  0  0  0  0
   -5.3145   -1.9853   -0.6056 S   0  0  0  0  0  0  0  0  0  0  0  0
   -4.7163   -1.6622    1.0800 C   0  0  0  0  0  0  0  0  0  0  0  0
   -3.8033   -2.2499   -2.8330 C   0  0  0  0  0  0  0  0  0  0  0  0
   -2.6564   -2.5225   -3.5463 C   0  0  0  0  0  0  0  0  0  0  0  0
   -0.3381   -3.8702   -4.7973 C   0  0  0  0  0  0  0  0  0  0  0  0
   -1.2371   -4.9243   -4.9695 C   0  0  0  0  0  0  0  0  0  0  0  0
   -1.2696   -5.6376   -6.1488 C   0  0  0  0  0  0  0  0  0  0  0  0
   -0.4067   -5.3085   -7.1861 C   0  0  0  0  0  0  0  0  0  0  0  0
   -0.3598   -6.2114   -8.7024 S   0  0  0  0  0  0  0  0  0  0  0  0
   -2.1103   -6.6635   -8.9264 C   0  0  0  0  0  0  0  0  0  0  0  0
    0.4783   -4.2451   -7.0300 C   0  0  0  0  0  0  0  0  0  0  0  0
    0.5126   -3.5320   -5.8517 C   0  0  0  0  0  0  0  0  0  0  0  0
    0.7679   -1.4649   -2.2385 C   0  0  0  0  0  0  0  0  0  0  0  0
   -0.5241   -0.4794   -1.6477 S   0  0  0  0  0  0  0  0  0  0  0  0
    2.7064   -4.1210   -3.9247 C   0  0  0  0  0  0  0  0  0  0  0  0
    2.0837   -5.3076   -4.2320 C   0  0  0  0  0  0  0  0  0  0  0  0
    0.9964   -5.9069   -3.4393 C   0  0  0  0  0  0  0  0  0  0  0  0
    0.4695   -5.4435   -2.4438 O   0  0  0  0  0  0  0  0  0  0  0  0
    0.7900   -7.2580   -4.0015 C   0  0  0  0  0  0  0  0  0  0  0  0
   -0.1334   -8.2119   -3.5840 C   0  0  0  0  0  0  0  0  0  0  0  0
   -0.0788   -9.3919   -4.2880 C   0  0  0  0  0  0  0  0  0  0  0  0
    0.8446   -9.6181   -5.3161 C   0  0  0  0  0  0  0  0  0  0  0  0
    1.7586   -8.6841   -5.7424 C   0  0  0  0  0  0  0  0  0  0  0  0
    1.7041   -7.4720   -5.0521 C   0  0  0  0  0  0  0  0  0  0  0  0
    2.4857   -6.2538   -5.2400 C   0  0  0  0  0  0  0  0  0  0  0  0
    3.3257   -5.9858   -6.2915 C   0  0  0  0  0  0  0  0  0  0  0  0
    3.9031   -4.7218   -6.5266 C   0  0  0  0  0  0  0  0  0  0  0  0
    4.3606   -3.7035   -6.7978 N   0  0  0  0  0  0  0  0  0  0  0  0
    3.6674   -6.9092   -7.2983 C   0  0  0  0  0  0  0  0  0  0  0  0
    3.9996   -7.6192   -8.1377 N   0  0  0  0  0  0  0  0  0  0  0  0
    0.3478  -11.0210   -5.5639 C   0  0  0  0  0  0  0  0  0  0  0  0
   -0.5377  -11.2585   -6.8104 C   0  0  0  0  0  0  0  0  0  0  0  0
   -1.2000   -9.9378   -7.1113 C   0  0  0  0  0  0  0  0  0  0  0  0
   -2.0918   -9.7085   -6.1563 C   0  0  0  0  0  0  0  0  0  0  0  0
   -2.0458  -10.8675   -5.1922 C   0  0  0  0  0  0  0  0  0  0  0  0
   -1.7094  -12.0117   -6.1613 C   0  0  0  0  0  0  0  0  0  0  0  0
   -0.6980  -10.7601   -4.4345 C   0  0  0  0  0  0  0  0  0  0  0  0
   -2.2196    8.3938    5.0984 H   0  0  0  0  0  0  0  0  0  0  0  0
   -2.3790    3.3134    8.7997 H   0  0  0  0  0  0  0  0  0  0  0  0
   -3.6245    7.9423   10.4370 H   0  0  0  0  0  0  0  0  0  0  0  0
   -3.0885    5.8444   13.0865 H   0  0  0  0  0  0  0  0  0  0  0  0
   -5.7112    6.1805   12.7668 H   0  0  0  0  0  0  0  0  0  0  0  0
   -5.3191    4.6838   14.8905 H   0  0  0  0  0  0  0  0  0  0  0  0
   -4.6779    2.2388   14.0724 H   0  0  0  0  0  0  0  0  0  0  0  0
   -4.6769    2.2294   11.4452 H   0  0  0  0  0  0  0  0  0  0  0  0
   -6.6848    3.9165   11.8004 H   0  0  0  0  0  0  0  0  0  0  0  0
   -5.5827    4.6105   10.5897 H   0  0  0  0  0  0  0  0  0  0  0  0
   -2.4599    3.4463   12.2843 H   0  0  0  0  0  0  0  0  0  0  0  0
   -1.5568    8.4046    2.8196 H   0  0  0  0  0  0  0  0  0  0  0  0
   -1.9724    9.1467    0.7467 H   0  0  0  0  0  0  0  0  0  0  0  0
   -2.0190    8.7214   -0.9703 H   0  0  0  0  0  0  0  0  0  0  0  0
   -3.6680    6.9091   -0.4897 H   0  0  0  0  0  0  0  0  0  0  0  0
   -4.2913    8.4785    0.0346 H   0  0  0  0  0  0  0  0  0  0  0  0
   -3.6543    7.3394    1.2236 H   0  0  0  0  0  0  0  0  0  0  0  0
    4.1234    5.1484   -2.2753 H   0  0  0  0  0  0  0  0  0  0  0  0
    3.7486    3.4753   -2.7246 H   0  0  0  0  0  0  0  0  0  0  0  0
    2.1677    5.9238   -3.6621 H   0  0  0  0  0  0  0  0  0  0  0  0
    3.3410    5.0218   -4.6293 H   0  0  0  0  0  0  0  0  0  0  0  0
    1.8431    4.2467   -4.1020 H   0  0  0  0  0  0  0  0  0  0  0  0
    2.0615    7.4988   -0.1822 H   0  0  0  0  0  0  0  0  0  0  0  0
    3.0390    7.0097   -1.5793 H   0  0  0  0  0  0  0  0  0  0  0  0
    4.6523    5.8787    0.0135 H   0  0  0  0  0  0  0  0  0  0  0  0
    3.6651    6.4522    1.3608 H   0  0  0  0  0  0  0  0  0  0  0  0
    4.5046    7.6110    0.3262 H   0  0  0  0  0  0  0  0  0  0  0  0
    3.3142    1.0930   -3.0786 H   0  0  0  0  0  0  0  0  0  0  0  0
    5.4508    1.1961   -4.3028 H   0  0  0  0  0  0  0  0  0  0  0  0
    9.5394    1.5613   -1.6182 H   0  0  0  0  0  0  0  0  0  0  0  0
    9.2860   -0.1930   -1.8979 H   0  0  0  0  0  0  0  0  0  0  0  0
   10.3636    0.7399   -2.9600 H   0  0  0  0  0  0  0  0  0  0  0  0
    7.5725    0.8428   -0.6056 H   0  0  0  0  0  0  0  0  0  0  0  0
    5.4600    0.6980    0.5961 H   0  0  0  0  0  0  0  0  0  0  0  0
    4.1521    3.0704    0.3909 H   0  0  0  0  0  0  0  0  0  0  0  0
    3.6208    4.2228    2.5019 H   0  0  0  0  0  0  0  0  0  0  0  0
    1.0673    1.7985    5.8821 H   0  0  0  0  0  0  0  0  0  0  0  0
   -0.1926    2.4487    4.7760 H   0  0  0  0  0  0  0  0  0  0  0  0
    0.2267    3.3270    6.2467 H   0  0  0  0  0  0  0  0  0  0  0  0
    1.1052    0.9624    3.6451 H   0  0  0  0  0  0  0  0  0  0  0  0
    1.6263   -0.1703    1.5587 H   0  0  0  0  0  0  0  0  0  0  0  0
   -0.7227   -3.6854   -1.0320 H   0  0  0  0  0  0  0  0  0  0  0  0
   -2.7563   -3.1859    0.2516 H   0  0  0  0  0  0  0  0  0  0  0  0
   -5.5007   -1.0931    1.5691 H   0  0  0  0  0  0  0  0  0  0  0  0
   -3.8048   -1.0745    1.0295 H   0  0  0  0  0  0  0  0  0  0  0  0
   -4.5564   -2.5956    1.6120 H   0  0  0  0  0  0  0  0  0  0  0  0
   -4.6771   -1.8589   -3.3309 H   0  0  0  0  0  0  0  0  0  0  0  0
   -2.6199   -2.3439   -4.6109 H   0  0  0  0  0  0  0  0  0  0  0  0
   -1.8956   -5.1950   -4.1581 H   0  0  0  0  0  0  0  0  0  0  0  0
   -1.9524   -6.4658   -6.2474 H   0  0  0  0  0  0  0  0  0  0  0  0
   -2.2080   -6.9618   -9.9654 H   0  0  0  0  0  0  0  0  0  0  0  0
   -2.3829   -7.4923   -8.2804 H   0  0  0  0  0  0  0  0  0  0  0  0
   -2.7285   -5.7937   -8.7283 H   0  0  0  0  0  0  0  0  0  0  0  0
    1.1394   -3.9821   -7.8416 H   0  0  0  0  0  0  0  0  0  0  0  0
    1.1942   -2.7011   -5.7528 H   0  0  0  0  0  0  0  0  0  0  0  0
    3.7370   -3.9867   -4.2317 H   0  0  0  0  0  0  0  0  0  0  0  0
   -0.8187   -8.0055   -2.7763 H   0  0  0  0  0  0  0  0  0  0  0  0
    2.4643   -8.8678   -6.5354 H   0  0  0  0  0  0  0  0  0  0  0  0
    1.0735  -11.8171   -5.4095 H   0  0  0  0  0  0  0  0  0  0  0  0
   -0.0304  -11.7394   -7.6422 H   0  0  0  0  0  0  0  0  0  0  0  0
   -0.9039   -9.3043   -7.9268 H   0  0  0  0  0  0  0  0  0  0  0  0
   -2.7128   -8.8433   -6.0081 H   0  0  0  0  0  0  0  0  0  0  0  0
   -2.9151  -10.9928   -4.5516 H   0  0  0  0  0  0  0  0  0  0  0  0
   -2.5162  -12.2222   -6.8622 H   0  0  0  0  0  0  0  0  0  0  0  0
   -1.4094  -12.9307   -5.6598 H   0  0  0  0  0  0  0  0  0  0  0  0
   -0.6695  -11.3980   -3.5529 H   0  0  0  0  0  0  0  0  0  0  0  0
  1  2  2  0  0  0  0
  2  3  1  0  0  0  0
  3  4  2  0  0  0  0
  3  5  1  0  0  0  0
  5  6  2  0  0  0  0
  6  7  1  0  0  0  0
  7  8  2  0  0  0  0
  8  9  1  0  0  0  0
  9 10  2  0  0  0  0
 10 11  1  0  0  0  0
 11 12  2  0  0  0  0
 12 13  1  0  0  0  0
 13 14  3  0  0  0  0
 12 15  1  0  0  0  0
 15 16  3  0  0  0  0
  8 17  1  0  0  0  0
 17 18  1  0  0  0  0
 18 19  1  0  0  0  0
 19 20  2  0  0  0  0
 20 21  1  0  0  0  0
 21 22  1  0  0  0  0
 21 23  1  0  0  0  0
  1 24  1  0  0  0  0
 24 25  2  0  0  0  0
 25 26  1  0  0  0  0
 26 27  1  0  0  0  0
 27 28  1  0  0  0  0
 28 29  1  0  0  0  0
 26 30  2  0  0  0  0
 30 31  1  0  0  0  0
 30 32  1  0  0  0  0
 32 33  2  0  0  0  0
 33 34  1  0  0  0  0
 33 35  1  0  0  0  0
 35 36  1  0  0  0  0
 35 37  2  0  0  0  0
 37 38  1  0  0  0  0
 38 39  2  0  0  0  0
 39 40  1  0  0  0  0
 40 41  1  0  0  0  0
 41 42  1  0  0  0  0
 40 43  2  0  0  0  0
 43 44  1  0  0  0  0
 44 45  2  0  0  0  0
 43 46  1  0  0  0  0
 46 47  1  0  0  0  0
 37 48  1  0  0  0  0
 48 49  2  0  0  0  0
 49 50  1  0  0  0  0
 50 51  1  0  0  0  0
 51 52  2  0  0  0  0
 52 53  1  0  0  0  0
 53 54  2  0  0  0  0
 54 55  1  0  0  0  0
 55 56  1  0  0  0  0
 54 57  1  0  0  0  0
 57 58  2  0  0  0  0
 50 59  1  0  0  0  0
 59 60  2  0  0  0  0
 60 61  1  0  0  0  0
 61 62  2  0  0  0  0
 62 63  1  0  0  0  0
 63 64  1  0  0  0  0
 62 65  1  0  0  0  0
 65 66  2  0  0  0  0
 49 67  1  0  0  0  0
 67 68  1  0  0  0  0
 68 69  1  0  0  0  0
 69 70  2  0  0  0  0
 70 71  1  0  0  0  0
 71 72  1  0  0  0  0
 72 73  2  0  0  0  0
 73 74  1  0  0  0  0
 74 75  2  0  0  0  0
 75 76  1  0  0  0  0
 76 77  1  0  0  0  0
 75 78  1  0  0  0  0
 78 79  2  0  0  0  0
 71 80  1  0  0  0  0
 80 81  2  0  0  0  0
 81 82  1  0  0  0  0
 82 83  2  0  0  0  0
 83 84  1  0  0  0  0
 84 85  1  0  0  0  0
 83 86  1  0  0  0  0
 86 87  2  0  0  0  0
 70 88  1  0  0  0  0
 88 89  1  0  0  0  0
 69 90  1  0  0  0  0
 90 91  2  0  0  0  0
 91 92  1  0  0  0  0
 92 93  2  0  0  0  0
 92 94  1  0  0  0  0
 94 95  2  0  0  0  0
 95 96  1  0  0  0  0
 96 97  2  0  0  0  0
 97 98  1  0  0  0  0
 98 99  2  0  0  0  0
 99100  1  0  0  0  0
100101  2  0  0  0  0
101102  1  0  0  0  0
102103  3  0  0  0  0
101104  1  0  0  0  0
104105  3  0  0  0  0
 97106  1  0  0  0  0
106107  1  0  0  0  0
107108  1  0  0  0  0
108109  2  0  0  0  0
109110  1  0  0  0  0
110111  1  0  0  0  0
110112  1  0  0  0  0
 11  2  1  0  0  0  0
 23 17  1  0  0  0  0
 31 24  1  0  0  0  0
 45 32  1  0  0  0  0
 89 48  1  0  0  0  0
100 91  1  0  0  0  0
112106  1  0  0  0  0
 10  5  1  0  0  0  0
 22 18  1  0  0  0  0
 45 38  1  0  0  0  0
 58 51  1  0  0  0  0
 66 59  1  0  0  0  0
 88 67  2  0  0  0  0
 99 94  1  0  0  0  0
111107  1  0  0  0  0
 23  7  1  0  0  0  0
 79 72  1  0  0  0  0
 87 80  1  0  0  0  0
112 96  1  0  0  0  0
  1113  1  0  0  0  0
  6114  1  0  0  0  0
  9115  1  0  0  0  0
 17116  1  0  0  0  0
 18117  1  0  0  0  0
 19118  1  0  0  0  0
 20119  1  0  0  0  0
 21120  1  0  0  0  0
 22121  1  0  0  0  0
 22122  1  0  0  0  0
 23123  1  0  0  0  0
 25124  1  0  0  0  0
 28125  1  0  0  0  0
 28126  1  0  0  0  0
 29127  1  0  0  0  0
 29128  1  0  0  0  0
 29129  1  0  0  0  0
 41130  1  0  0  0  0
 41131  1  0  0  0  0
 42132  1  0  0  0  0
 42133  1  0  0  0  0
 42134  1  0  0  0  0
 46135  1  0  0  0  0
 46136  1  0  0  0  0
 47137  1  0  0  0  0
 47138  1  0  0  0  0
 47139  1  0  0  0  0
 52140  1  0  0  0  0
 53141  1  0  0  0  0
 56142  1  0  0  0  0
 56143  1  0  0  0  0
 56144  1  0  0  0  0
 57145  1  0  0  0  0
 58146  1  0  0  0  0
 60147  1  0  0  0  0
 61148  1  0  0  0  0
 64149  1  0  0  0  0
 64150  1  0  0  0  0
 64151  1  0  0  0  0
 65152  1  0  0  0  0
 66153  1  0  0  0  0
 73154  1  0  0  0  0
 74155  1  0  0  0  0
 77156  1  0  0  0  0
 77157  1  0  0  0  0
 77158  1  0  0  0  0
 78159  1  0  0  0  0
 79160  1  0  0  0  0
 81161  1  0  0  0  0
 82162  1  0  0  0  0
 85163  1  0  0  0  0
 85164  1  0  0  0  0
 85165  1  0  0  0  0
 86166  1  0  0  0  0
 87167  1  0  0  0  0
 90168  1  0  0  0  0
 95169  1  0  0  0  0
 98170  1  0  0  0  0
106171  1  0  0  0  0
107172  1  0  0  0  0
108173  1  0  0  0  0
109174  1  0  0  0  0
110175  1  0  0  0  0
111176  1  0  0  0  0
111177  1  0  0  0  0
112178  1  0  0  0  0
M  END
