
  xtb     02052204423D
 energy: -263.296263372553 gnorm: 0.000392747280 xtb: 6.4.1 (unknown)
153167  0     0  0            999 V2000
    1.9464    1.6210    5.8589 C   0  0  0  0  0  0  0  0  0  0  0  0
    3.2591    1.6837    6.2247 C   0  0  0  0  0  0  0  0  0  0  0  0
    4.4162    1.4859    5.3126 C   0  0  0  0  0  0  0  0  0  0  0  0
    4.4498    1.5678    4.1024 O   0  0  0  0  0  0  0  0  0  0  0  0
    5.5359    1.0886    6.1850 C   0  0  0  0  0  0  0  0  0  0  0  0
    6.8061    0.6895    5.7747 C   0  0  0  0  0  0  0  0  0  0  0  0
    7.6542    0.3744    6.8085 C   0  0  0  0  0  0  0  0  0  0  0  0
    7.2681    0.4427    8.1547 C   0  0  0  0  0  0  0  0  0  0  0  0
    6.0175    0.8307    8.5735 C   0  0  0  0  0  0  0  0  0  0  0  0
    5.1411    1.1618    7.5365 C   0  0  0  0  0  0  0  0  0  0  0  0
    3.7573    1.6162    7.5861 C   0  0  0  0  0  0  0  0  0  0  0  0
    3.0723    2.0189    8.7009 C   0  0  0  0  0  0  0  0  0  0  0  0
    1.7932    2.6129    8.6589 C   0  0  0  0  0  0  0  0  0  0  0  0
    0.7776    3.1474    8.6833 N   0  0  0  0  0  0  0  0  0  0  0  0
    3.5858    1.9678   10.0129 C   0  0  0  0  0  0  0  0  0  0  0  0
    3.9456    1.9447   11.1028 N   0  0  0  0  0  0  0  0  0  0  0  0
    8.6201   -0.0084    8.6470 C   0  0  0  0  0  0  0  0  0  0  0  0
    9.5719    1.0684    9.2244 C   0  0  0  0  0  0  0  0  0  0  0  0
    9.1897    2.3735    8.5711 C   0  0  0  0  0  0  0  0  0  0  0  0
    9.5554    2.3112    7.2977 C   0  0  0  0  0  0  0  0  0  0  0  0
   10.1911    0.9624    7.0666 C   0  0  0  0  0  0  0  0  0  0  0  0
   10.8491    0.7350    8.4368 C   0  0  0  0  0  0  0  0  0  0  0  0
    9.0504   -0.0823    7.1479 C   0  0  0  0  0  0  0  0  0  0  0  0
    1.4670    1.7270    4.5299 C   0  0  0  0  0  0  0  0  0  0  0  0
    1.9764    2.4684    3.4883 C   0  0  0  0  0  0  0  0  0  0  0  0
    1.2873    2.2823    2.2890 C   0  0  0  0  0  0  0  0  0  0  0  0
    1.8544    2.9475    0.7549 S   0  0  0  0  0  0  0  0  0  0  0  0
    3.3914    1.9565    0.6224 C   0  0  0  0  0  0  0  0  0  0  0  0
    3.0870    0.5125    0.2762 C   0  0  0  0  0  0  0  0  0  0  0  0
    0.2217    1.4054    2.3902 C   0  0  0  0  0  0  0  0  0  0  0  0
    0.0558    0.8263    4.0151 S   0  0  0  0  0  0  0  0  0  0  0  0
   -0.6053    0.9862    1.3032 C   0  0  0  0  0  0  0  0  0  0  0  0
   -1.1752    1.8118    0.3402 C   0  0  0  0  0  0  0  0  0  0  0  0
   -1.3027    3.1735    0.4825 N   0  0  0  0  0  0  0  0  0  0  0  0
   -1.3238    4.0262   -0.6241 C   0  0  0  0  0  0  0  0  0  0  0  0
   -0.5856    3.7362   -1.7675 C   0  0  0  0  0  0  0  0  0  0  0  0
   -0.6414    4.5652   -2.8711 C   0  0  0  0  0  0  0  0  0  0  0  0
   -1.4307    5.7062   -2.8442 C   0  0  0  0  0  0  0  0  0  0  0  0
   -1.5877    6.8354   -4.1915 S   0  0  0  0  0  0  0  0  0  0  0  0
   -0.7698    5.9833   -5.5701 C   0  0  0  0  0  0  0  0  0  0  0  0
   -2.1450    6.0174   -1.6878 C   0  0  0  0  0  0  0  0  0  0  0  0
   -2.0963    5.1880   -0.5914 C   0  0  0  0  0  0  0  0  0  0  0  0
   -1.3810    3.6967    1.7898 C   0  0  0  0  0  0  0  0  0  0  0  0
   -0.5686    4.7520    2.1882 C   0  0  0  0  0  0  0  0  0  0  0  0
   -0.5581    5.1621    3.5077 C   0  0  0  0  0  0  0  0  0  0  0  0
   -1.3633    4.5247    4.4437 C   0  0  0  0  0  0  0  0  0  0  0  0
   -1.3490    4.9063    6.1660 S   0  0  0  0  0  0  0  0  0  0  0  0
    0.3264    5.5580    6.4146 C   0  0  0  0  0  0  0  0  0  0  0  0
   -2.2384    3.5238    4.0270 C   0  0  0  0  0  0  0  0  0  0  0  0
   -2.2472    3.1134    2.7136 C   0  0  0  0  0  0  0  0  0  0  0  0
   -1.7064    1.0389   -0.7226 C   0  0  0  0  0  0  0  0  0  0  0  0
   -2.5108    1.4147   -2.2059 S   0  0  0  0  0  0  0  0  0  0  0  0
   -2.5911   -0.2983   -2.6200 C   0  0  0  0  0  0  0  0  0  0  0  0
   -2.1065   -1.1126   -1.5953 C   0  0  0  0  0  0  0  0  0  0  0  0
   -2.1727   -2.4885   -1.5610 N   0  0  0  0  0  0  0  0  0  0  0  0
   -1.1315   -3.1939   -0.9404 C   0  0  0  0  0  0  0  0  0  0  0  0
   -1.3991   -4.2913   -0.1286 C   0  0  0  0  0  0  0  0  0  0  0  0
   -0.3733   -4.9617    0.5079 C   0  0  0  0  0  0  0  0  0  0  0  0
    0.9400   -4.5386    0.3480 C   0  0  0  0  0  0  0  0  0  0  0  0
    2.3285   -5.2947    1.1284 S   0  0  0  0  0  0  0  0  0  0  0  0
    1.6054   -6.6398    2.1093 C   0  0  0  0  0  0  0  0  0  0  0  0
    1.2128   -3.4479   -0.4766 C   0  0  0  0  0  0  0  0  0  0  0  0
    0.1914   -2.7863   -1.1183 C   0  0  0  0  0  0  0  0  0  0  0  0
   -3.2857   -3.1669   -2.0721 C   0  0  0  0  0  0  0  0  0  0  0  0
   -3.1310   -4.4036   -2.7026 C   0  0  0  0  0  0  0  0  0  0  0  0
   -4.2159   -5.0299   -3.2710 C   0  0  0  0  0  0  0  0  0  0  0  0
   -5.4788   -4.4407   -3.2290 C   0  0  0  0  0  0  0  0  0  0  0  0
   -6.7779   -5.2970   -4.0610 S   0  0  0  0  0  0  0  0  0  0  0  0
   -8.2815   -4.4157   -3.5504 C   0  0  0  0  0  0  0  0  0  0  0  0
   -5.6429   -3.2274   -2.5732 C   0  0  0  0  0  0  0  0  0  0  0  0
   -4.5565   -2.6029   -1.9943 C   0  0  0  0  0  0  0  0  0  0  0  0
   -1.5805   -0.3302   -0.5398 C   0  0  0  0  0  0  0  0  0  0  0  0
   -0.8311   -0.7216    0.9679 S   0  0  0  0  0  0  0  0  0  0  0  0
   -3.0097   -0.6727   -3.9180 C   0  0  0  0  0  0  0  0  0  0  0  0
   -3.8252    0.0572   -4.7680 C   0  0  0  0  0  0  0  0  0  0  0  0
   -4.0563   -0.5787   -5.9773 C   0  0  0  0  0  0  0  0  0  0  0  0
   -5.1457    0.1430   -7.1508 S   0  0  0  0  0  0  0  0  0  0  0  0
   -6.3864   -1.1716   -7.4902 C   0  0  0  0  0  0  0  0  0  0  0  0
   -6.7588   -1.9686   -6.2583 C   0  0  0  0  0  0  0  0  0  0  0  0
   -3.3453   -1.7897   -6.1302 C   0  0  0  0  0  0  0  0  0  0  0  0
   -2.4703   -2.1487   -4.6565 S   0  0  0  0  0  0  0  0  0  0  0  0
   -3.2779   -2.5161   -7.3147 C   0  0  0  0  0  0  0  0  0  0  0  0
   -2.5800   -3.6714   -7.6144 C   0  0  0  0  0  0  0  0  0  0  0  0
   -1.7503   -4.4340   -6.6860 C   0  0  0  0  0  0  0  0  0  0  0  0
   -1.5837   -4.2514   -5.4913 O   0  0  0  0  0  0  0  0  0  0  0  0
   -1.1248   -5.5100   -7.4828 C   0  0  0  0  0  0  0  0  0  0  0  0
   -0.2329   -6.4773   -7.0721 C   0  0  0  0  0  0  0  0  0  0  0  0
    0.2402   -7.3818   -8.0165 C   0  0  0  0  0  0  0  0  0  0  0  0
    1.3570   -8.6009   -7.5449 Cl  0  0  0  0  0  0  0  0  0  0  0  0
   -0.1926   -7.2914   -9.3403 C   0  0  0  0  0  0  0  0  0  0  0  0
    0.4577   -8.5166  -10.6267 Br  0  0  0  0  0  0  0  0  0  0  0  0
   -1.0961   -6.3172   -9.7512 C   0  0  0  0  0  0  0  0  0  0  0  0
   -1.5686   -5.4170   -8.8120 C   0  0  0  0  0  0  0  0  0  0  0  0
   -2.5120   -4.3014   -8.9131 C   0  0  0  0  0  0  0  0  0  0  0  0
   -3.2145   -3.9789  -10.0488 C   0  0  0  0  0  0  0  0  0  0  0  0
   -4.2018   -2.9808  -10.1447 C   0  0  0  0  0  0  0  0  0  0  0  0
   -5.0439   -2.2116  -10.2902 N   0  0  0  0  0  0  0  0  0  0  0  0
   -3.0714   -4.6450  -11.2833 C   0  0  0  0  0  0  0  0  0  0  0  0
   -2.9975   -5.1392  -12.3169 N   0  0  0  0  0  0  0  0  0  0  0  0
    1.2032    1.4045    6.6179 H   0  0  0  0  0  0  0  0  0  0  0  0
    7.0627    0.6462    4.7278 H   0  0  0  0  0  0  0  0  0  0  0  0
    5.7279    0.8690    9.6107 H   0  0  0  0  0  0  0  0  0  0  0  0
    8.6332   -0.9285    9.2278 H   0  0  0  0  0  0  0  0  0  0  0  0
    9.6389    1.0763   10.3088 H   0  0  0  0  0  0  0  0  0  0  0  0
    8.6584    3.1608    9.0729 H   0  0  0  0  0  0  0  0  0  0  0  0
    9.3905    3.0362    6.5222 H   0  0  0  0  0  0  0  0  0  0  0  0
   10.8226    0.8734    6.1866 H   0  0  0  0  0  0  0  0  0  0  0  0
   11.1977   -0.2858    8.5868 H   0  0  0  0  0  0  0  0  0  0  0  0
   11.6603    1.4337    8.6352 H   0  0  0  0  0  0  0  0  0  0  0  0
    9.3454   -1.0508    6.7488 H   0  0  0  0  0  0  0  0  0  0  0  0
    2.8076    3.1405    3.5876 H   0  0  0  0  0  0  0  0  0  0  0  0
    3.9209    2.0357    1.5708 H   0  0  0  0  0  0  0  0  0  0  0  0
    3.9673    2.4424   -0.1642 H   0  0  0  0  0  0  0  0  0  0  0  0
    2.5117    0.0389    1.0699 H   0  0  0  0  0  0  0  0  0  0  0  0
    2.5168    0.4504   -0.6488 H   0  0  0  0  0  0  0  0  0  0  0  0
    4.0165   -0.0392    0.1524 H   0  0  0  0  0  0  0  0  0  0  0  0
    0.0577    2.8702   -1.7829 H   0  0  0  0  0  0  0  0  0  0  0  0
   -0.0552    4.3130   -3.7397 H   0  0  0  0  0  0  0  0  0  0  0  0
    0.2989    5.9143   -5.3886 H   0  0  0  0  0  0  0  0  0  0  0  0
   -0.9539    6.5993   -6.4448 H   0  0  0  0  0  0  0  0  0  0  0  0
   -1.2128    5.0016   -5.7088 H   0  0  0  0  0  0  0  0  0  0  0  0
   -2.7463    6.9132   -1.6683 H   0  0  0  0  0  0  0  0  0  0  0  0
   -2.6621    5.4274    0.2965 H   0  0  0  0  0  0  0  0  0  0  0  0
    0.0752    5.2275    1.4641 H   0  0  0  0  0  0  0  0  0  0  0  0
    0.0923    5.9704    3.8017 H   0  0  0  0  0  0  0  0  0  0  0  0
    1.0318    4.9480    5.8580 H   0  0  0  0  0  0  0  0  0  0  0  0
    0.3820    6.6003    6.1133 H   0  0  0  0  0  0  0  0  0  0  0  0
    0.5184    5.4639    7.4789 H   0  0  0  0  0  0  0  0  0  0  0  0
   -2.8909    3.0619    4.7511 H   0  0  0  0  0  0  0  0  0  0  0  0
   -2.9056    2.3170    2.3991 H   0  0  0  0  0  0  0  0  0  0  0  0
   -2.4197   -4.6150    0.0118 H   0  0  0  0  0  0  0  0  0  0  0  0
   -0.6155   -5.8047    1.1342 H   0  0  0  0  0  0  0  0  0  0  0  0
    1.1109   -7.3528    1.4563 H   0  0  0  0  0  0  0  0  0  0  0  0
    0.9191   -6.2340    2.8469 H   0  0  0  0  0  0  0  0  0  0  0  0
    2.4420   -7.1180    2.6092 H   0  0  0  0  0  0  0  0  0  0  0  0
    2.2362   -3.1321   -0.6080 H   0  0  0  0  0  0  0  0  0  0  0  0
    0.4089   -1.9523   -1.7686 H   0  0  0  0  0  0  0  0  0  0  0  0
   -2.1503   -4.8447   -2.7778 H   0  0  0  0  0  0  0  0  0  0  0  0
   -4.0938   -5.9744   -3.7779 H   0  0  0  0  0  0  0  0  0  0  0  0
   -8.3492   -4.4034   -2.4668 H   0  0  0  0  0  0  0  0  0  0  0  0
   -8.2867   -3.4100   -3.9599 H   0  0  0  0  0  0  0  0  0  0  0  0
   -9.1071   -4.9853   -3.9653 H   0  0  0  0  0  0  0  0  0  0  0  0
   -6.6097   -2.7551   -2.5079 H   0  0  0  0  0  0  0  0  0  0  0  0
   -4.6956   -1.6593   -1.4877 H   0  0  0  0  0  0  0  0  0  0  0  0
   -4.2744    0.9967   -4.4984 H   0  0  0  0  0  0  0  0  0  0  0  0
   -6.0294   -1.8056   -8.3002 H   0  0  0  0  0  0  0  0  0  0  0  0
   -7.2379   -0.5970   -7.8549 H   0  0  0  0  0  0  0  0  0  0  0  0
   -5.9228   -2.5713   -5.9070 H   0  0  0  0  0  0  0  0  0  0  0  0
   -7.0712   -1.3043   -5.4539 H   0  0  0  0  0  0  0  0  0  0  0  0
   -7.5811   -2.6381   -6.5038 H   0  0  0  0  0  0  0  0  0  0  0  0
   -3.8212   -2.0602   -8.1327 H   0  0  0  0  0  0  0  0  0  0  0  0
    0.0910   -6.5276   -6.0447 H   0  0  0  0  0  0  0  0  0  0  0  0
   -1.4008   -6.2854  -10.7846 H   0  0  0  0  0  0  0  0  0  0  0  0
  1  2  2  0  0  0  0
  2  3  1  0  0  0  0
  3  4  2  0  0  0  0
  3  5  1  0  0  0  0
  5  6  2  0  0  0  0
  6  7  1  0  0  0  0
  7  8  2  0  0  0  0
  8  9  1  0  0  0  0
  9 10  2  0  0  0  0
 10 11  1  0  0  0  0
 11 12  2  0  0  0  0
 12 13  1  0  0  0  0
 13 14  3  0  0  0  0
 12 15  1  0  0  0  0
 15 16  3  0  0  0  0
  8 17  1  0  0  0  0
 17 18  1  0  0  0  0
 18 19  1  0  0  0  0
 19 20  2  0  0  0  0
 20 21  1  0  0  0  0
 21 22  1  0  0  0  0
 21 23  1  0  0  0  0
  1 24  1  0  0  0  0
 24 25  2  0  0  0  0
 25 26  1  0  0  0  0
 26 27  1  0  0  0  0
 27 28  1  0  0  0  0
 28 29  1  0  0  0  0
 26 30  2  0  0  0  0
 30 31  1  0  0  0  0
 30 32  1  0  0  0  0
 32 33  2  0  0  0  0
 33 34  1  0  0  0  0
 34 35  1  0  0  0  0
 35 36  2  0  0  0  0
 36 37  1  0  0  0  0
 37 38  2  0  0  0  0
 38 39  1  0  0  0  0
 39 40  1  0  0  0  0
 38 41  1  0  0  0  0
 41 42  2  0  0  0  0
 34 43  1  0  0  0  0
 43 44  2  0  0  0  0
 44 45  1  0  0  0  0
 45 46  2  0  0  0  0
 46 47  1  0  0  0  0
 47 48  1  0  0  0  0
 46 49  1  0  0  0  0
 49 50  2  0  0  0  0
 33 51  1  0  0  0  0
 51 52  1  0  0  0  0
 52 53  1  0  0  0  0
 53 54  2  0  0  0  0
 54 55  1  0  0  0  0
 55 56  1  0  0  0  0
 56 57  2  0  0  0  0
 57 58  1  0  0  0  0
 58 59  2  0  0  0  0
 59 60  1  0  0  0  0
 60 61  1  0  0  0  0
 59 62  1  0  0  0  0
 62 63  2  0  0  0  0
 55 64  1  0  0  0  0
 64 65  2  0  0  0  0
 65 66  1  0  0  0  0
 66 67  2  0  0  0  0
 67 68  1  0  0  0  0
 68 69  1  0  0  0  0
 67 70  1  0  0  0  0
 70 71  2  0  0  0  0
 54 72  1  0  0  0  0
 72 73  1  0  0  0  0
 53 74  1  0  0  0  0
 74 75  2  0  0  0  0
 75 76  1  0  0  0  0
 76 77  1  0  0  0  0
 77 78  1  0  0  0  0
 78 79  1  0  0  0  0
 76 80  2  0  0  0  0
 80 81  1  0  0  0  0
 80 82  1  0  0  0  0
 82 83  2  0  0  0  0
 83 84  1  0  0  0  0
 84 85  2  0  0  0  0
 84 86  1  0  0  0  0
 86 87  2  0  0  0  0
 87 88  1  0  0  0  0
 88 89  1  0  0  0  0
 88 90  2  0  0  0  0
 90 91  1  0  0  0  0
 90 92  1  0  0  0  0
 92 93  2  0  0  0  0
 93 94  1  0  0  0  0
 94 95  2  0  0  0  0
 95 96  1  0  0  0  0
 96 97  3  0  0  0  0
 95 98  1  0  0  0  0
 98 99  3  0  0  0  0
 11  2  1  0  0  0  0
 23 17  1  0  0  0  0
 31 24  1  0  0  0  0
 73 32  1  0  0  0  0
 81 74  1  0  0  0  0
 94 83  1  0  0  0  0
 10  5  1  0  0  0  0
 22 18  1  0  0  0  0
 42 35  1  0  0  0  0
 50 43  1  0  0  0  0
 72 51  2  0  0  0  0
 93 86  1  0  0  0  0
 23  7  1  0  0  0  0
 63 56  1  0  0  0  0
 71 64  1  0  0  0  0
  1100  1  0  0  0  0
  6101  1  0  0  0  0
  9102  1  0  0  0  0
 17103  1  0  0  0  0
 18104  1  0  0  0  0
 19105  1  0  0  0  0
 20106  1  0  0  0  0
 21107  1  0  0  0  0
 22108  1  0  0  0  0
 22109  1  0  0  0  0
 23110  1  0  0  0  0
 25111  1  0  0  0  0
 28112  1  0  0  0  0
 28113  1  0  0  0  0
 29114  1  0  0  0  0
 29115  1  0  0  0  0
 29116  1  0  0  0  0
 36117  1  0  0  0  0
 37118  1  0  0  0  0
 40119  1  0  0  0  0
 40120  1  0  0  0  0
 40121  1  0  0  0  0
 41122  1  0  0  0  0
 42123  1  0  0  0  0
 44124  1  0  0  0  0
 45125  1  0  0  0  0
 48126  1  0  0  0  0
 48127  1  0  0  0  0
 48128  1  0  0  0  0
 49129  1  0  0  0  0
 50130  1  0  0  0  0
 57131  1  0  0  0  0
 58132  1  0  0  0  0
 61133  1  0  0  0  0
 61134  1  0  0  0  0
 61135  1  0  0  0  0
 62136  1  0  0  0  0
 63137  1  0  0  0  0
 65138  1  0  0  0  0
 66139  1  0  0  0  0
 69140  1  0  0  0  0
 69141  1  0  0  0  0
 69142  1  0  0  0  0
 70143  1  0  0  0  0
 71144  1  0  0  0  0
 75145  1  0  0  0  0
 78146  1  0  0  0  0
 78147  1  0  0  0  0
 79148  1  0  0  0  0
 79149  1  0  0  0  0
 79150  1  0  0  0  0
 82151  1  0  0  0  0
 87152  1  0  0  0  0
 92153  1  0  0  0  0
M  END
