
  xtb     02042213443D
 energy: -274.246621591810 gnorm: 0.000735992608 xtb: 6.4.1 (unknown)
156172  0     0  0            999 V2000
   -5.0033   -1.2486   -3.0261 C   0  0  0  0  0  0  0  0  0  0  0  0
   -5.6456   -0.9572   -4.2006 C   0  0  0  0  0  0  0  0  0  0  0  0
   -5.0572   -0.2087   -5.3309 C   0  0  0  0  0  0  0  0  0  0  0  0
   -3.9374    0.2525   -5.4169 O   0  0  0  0  0  0  0  0  0  0  0  0
   -6.0619   -0.2654   -6.4126 C   0  0  0  0  0  0  0  0  0  0  0  0
   -5.9664    0.3181   -7.6734 C   0  0  0  0  0  0  0  0  0  0  0  0
   -7.0532    0.0868   -8.4825 C   0  0  0  0  0  0  0  0  0  0  0  0
   -8.1527   -0.6778   -8.0717 C   0  0  0  0  0  0  0  0  0  0  0  0
   -8.2579   -1.2641   -6.8329 C   0  0  0  0  0  0  0  0  0  0  0  0
   -7.1635   -1.0368   -5.9923 C   0  0  0  0  0  0  0  0  0  0  0  0
   -6.9247   -1.4794   -4.6207 C   0  0  0  0  0  0  0  0  0  0  0  0
   -7.8007   -2.2030   -3.8483 C   0  0  0  0  0  0  0  0  0  0  0  0
   -7.6021   -2.5438   -2.4976 C   0  0  0  0  0  0  0  0  0  0  0  0
   -7.5396   -2.8534   -1.3917 N   0  0  0  0  0  0  0  0  0  0  0  0
   -9.0431   -2.6969   -4.2949 C   0  0  0  0  0  0  0  0  0  0  0  0
  -10.0594   -3.1427   -4.5909 N   0  0  0  0  0  0  0  0  0  0  0  0
   -8.8680   -0.5040   -9.3888 C   0  0  0  0  0  0  0  0  0  0  0  0
   -8.8299   -1.7031  -10.3594 C   0  0  0  0  0  0  0  0  0  0  0  0
   -9.1704   -1.0938  -11.7003 C   0  0  0  0  0  0  0  0  0  0  0  0
   -8.1302   -0.3678  -12.0894 C   0  0  0  0  0  0  0  0  0  0  0  0
   -7.0690   -0.4744  -11.0180 C   0  0  0  0  0  0  0  0  0  0  0  0
   -7.3204   -1.9099  -10.5391 C   0  0  0  0  0  0  0  0  0  0  0  0
   -7.6425    0.3505   -9.8462 C   0  0  0  0  0  0  0  0  0  0  0  0
   -3.8886   -0.5854   -2.4889 C   0  0  0  0  0  0  0  0  0  0  0  0
   -2.8804   -1.4356   -1.3413 S   0  0  0  0  0  0  0  0  0  0  0  0
   -1.8842   -0.0422   -1.0642 C   0  0  0  0  0  0  0  0  0  0  0  0
   -2.3051    1.0127   -1.8571 C   0  0  0  0  0  0  0  0  0  0  0  0
   -3.4424    0.7276   -2.6339 C   0  0  0  0  0  0  0  0  0  0  0  0
   -4.0885    1.6760   -3.3404 O   0  0  0  0  0  0  0  0  0  0  0  0
   -3.2839    2.8179   -3.5727 C   0  0  0  0  0  0  0  0  0  0  0  0
   -2.5864    3.2586   -2.2857 C   0  0  0  0  0  0  0  0  0  0  0  0
   -1.7215    2.2435   -1.8086 O   0  0  0  0  0  0  0  0  0  0  0  0
   -0.7906   -0.0229   -0.1595 C   0  0  0  0  0  0  0  0  0  0  0  0
   -0.6530   -0.6982    1.0527 C   0  0  0  0  0  0  0  0  0  0  0  0
   -1.6375   -1.4315    1.6804 N   0  0  0  0  0  0  0  0  0  0  0  0
   -1.2631   -2.5245    2.4739 C   0  0  0  0  0  0  0  0  0  0  0  0
   -0.2317   -3.3649    2.0643 C   0  0  0  0  0  0  0  0  0  0  0  0
    0.1694   -4.4266    2.8519 C   0  0  0  0  0  0  0  0  0  0  0  0
   -0.4638   -4.6707    4.0627 C   0  0  0  0  0  0  0  0  0  0  0  0
   -0.0431   -5.9882    5.1567 S   0  0  0  0  0  0  0  0  0  0  0  0
    1.4124   -6.7511    4.3846 C   0  0  0  0  0  0  0  0  0  0  0  0
   -1.5108   -3.8419    4.4665 C   0  0  0  0  0  0  0  0  0  0  0  0
   -1.9053   -2.7801    3.6860 C   0  0  0  0  0  0  0  0  0  0  0  0
   -2.9817   -1.0342    1.6062 C   0  0  0  0  0  0  0  0  0  0  0  0
   -3.3208    0.3189    1.5699 C   0  0  0  0  0  0  0  0  0  0  0  0
   -4.6342    0.6989    1.4172 C   0  0  0  0  0  0  0  0  0  0  0  0
   -5.6433   -0.2580    1.3069 C   0  0  0  0  0  0  0  0  0  0  0  0
   -7.2789    0.3517    1.0732 S   0  0  0  0  0  0  0  0  0  0  0  0
   -8.3232   -1.1230    1.2330 C   0  0  0  0  0  0  0  0  0  0  0  0
   -5.3139   -1.6056    1.3776 C   0  0  0  0  0  0  0  0  0  0  0  0
   -3.9947   -1.9866    1.5264 C   0  0  0  0  0  0  0  0  0  0  0  0
    0.6228   -0.4490    1.6141 C   0  0  0  0  0  0  0  0  0  0  0  0
    1.4384   -0.9479    3.0517 S   0  0  0  0  0  0  0  0  0  0  0  0
    2.8360    0.0387    2.6461 C   0  0  0  0  0  0  0  0  0  0  0  0
    2.6607    0.7197    1.4567 C   0  0  0  0  0  0  0  0  0  0  0  0
    3.6249    1.4785    0.7649 N   0  0  0  0  0  0  0  0  0  0  0  0
    4.1080    0.8301   -0.3873 C   0  0  0  0  0  0  0  0  0  0  0  0
    4.0579    1.4197   -1.6471 C   0  0  0  0  0  0  0  0  0  0  0  0
    4.5195    0.7461   -2.7613 C   0  0  0  0  0  0  0  0  0  0  0  0
    5.0271   -0.5403   -2.6380 C   0  0  0  0  0  0  0  0  0  0  0  0
    5.6441   -1.5018   -3.9842 S   0  0  0  0  0  0  0  0  0  0  0  0
    5.4068   -0.4353   -5.4337 C   0  0  0  0  0  0  0  0  0  0  0  0
    5.0613   -1.1427   -1.3818 C   0  0  0  0  0  0  0  0  0  0  0  0
    4.6070   -0.4681   -0.2710 C   0  0  0  0  0  0  0  0  0  0  0  0
    3.6808    2.8575    0.9098 C   0  0  0  0  0  0  0  0  0  0  0  0
    4.7399    3.5785    0.3605 C   0  0  0  0  0  0  0  0  0  0  0  0
    4.8244    4.9481    0.5156 C   0  0  0  0  0  0  0  0  0  0  0  0
    3.8558    5.6273    1.2407 C   0  0  0  0  0  0  0  0  0  0  0  0
    3.8841    7.3725    1.5431 S   0  0  0  0  0  0  0  0  0  0  0  0
    5.2139    7.9764    0.4642 C   0  0  0  0  0  0  0  0  0  0  0  0
    2.8020    4.9119    1.8047 C   0  0  0  0  0  0  0  0  0  0  0  0
    2.7106    3.5488    1.6384 C   0  0  0  0  0  0  0  0  0  0  0  0
    1.4070    0.4226    0.8749 C   0  0  0  0  0  0  0  0  0  0  0  0
    0.5994    0.9799   -0.5476 S   0  0  0  0  0  0  0  0  0  0  0  0
    3.9748   -0.0363    3.5218 C   0  0  0  0  0  0  0  0  0  0  0  0
    4.8510    1.0413    3.7648 C   0  0  0  0  0  0  0  0  0  0  0  0
    4.8394    2.3152    3.3488 N   0  0  0  0  0  0  0  0  0  0  0  0
    5.8536    2.8624    3.9487 N   0  0  0  0  0  0  0  0  0  0  0  0
    6.1860    4.2445    3.7563 C   0  0  0  0  0  0  0  0  0  0  0  0
    7.4132    4.3769    2.8615 C   0  0  0  0  0  0  0  0  0  0  0  0
    6.5602    2.0964    4.7323 N   0  0  0  0  0  0  0  0  0  0  0  0
    5.9565    0.9046    4.6583 C   0  0  0  0  0  0  0  0  0  0  0  0
    6.2084   -0.2939    5.3614 C   0  0  0  0  0  0  0  0  0  0  0  0
    5.3299   -1.3395    5.0886 C   0  0  0  0  0  0  0  0  0  0  0  0
    4.2640   -1.2131    4.2079 C   0  0  0  0  0  0  0  0  0  0  0  0
    7.3260   -0.3838    6.2452 C   0  0  0  0  0  0  0  0  0  0  0  0
    7.4974   -1.1964    7.3209 C   0  0  0  0  0  0  0  0  0  0  0  0
    8.8671   -1.4335    7.8541 C   0  0  0  0  0  0  0  0  0  0  0  0
    9.8678   -0.8185    7.5738 O   0  0  0  0  0  0  0  0  0  0  0  0
    8.7344   -2.6089    8.7432 C   0  0  0  0  0  0  0  0  0  0  0  0
    9.7107   -3.3413    9.4033 C   0  0  0  0  0  0  0  0  0  0  0  0
   11.3641   -2.9071    9.3003 Cl  0  0  0  0  0  0  0  0  0  0  0  0
    9.3277   -4.4470   10.1585 C   0  0  0  0  0  0  0  0  0  0  0  0
    7.9884   -4.7939   10.2313 C   0  0  0  0  0  0  0  0  0  0  0  0
    7.4996   -6.3204   11.2418 Br  0  0  0  0  0  0  0  0  0  0  0  0
    6.9896   -4.0702    9.5884 C   0  0  0  0  0  0  0  0  0  0  0  0
    7.3763   -2.9686    8.8474 C   0  0  0  0  0  0  0  0  0  0  0  0
    6.5763   -2.0032    8.0908 C   0  0  0  0  0  0  0  0  0  0  0  0
    5.2455   -1.7540    8.2980 C   0  0  0  0  0  0  0  0  0  0  0  0
    4.4262   -2.5196    9.1532 C   0  0  0  0  0  0  0  0  0  0  0  0
    3.7188   -3.1247    9.8245 N   0  0  0  0  0  0  0  0  0  0  0  0
    4.5571   -0.6497    7.7523 C   0  0  0  0  0  0  0  0  0  0  0  0
    3.9559    0.2559    7.3847 N   0  0  0  0  0  0  0  0  0  0  0  0
   -5.3506   -2.0920   -2.4419 H   0  0  0  0  0  0  0  0  0  0  0  0
   -5.1013    0.9004   -7.9500 H   0  0  0  0  0  0  0  0  0  0  0  0
   -9.1097   -1.8506   -6.5317 H   0  0  0  0  0  0  0  0  0  0  0  0
   -9.8454   -0.0279   -9.3387 H   0  0  0  0  0  0  0  0  0  0  0  0
   -9.4199   -2.5603  -10.0471 H   0  0  0  0  0  0  0  0  0  0  0  0
  -10.1224   -1.2043  -12.1853 H   0  0  0  0  0  0  0  0  0  0  0  0
   -8.0400    0.2494  -12.9641 H   0  0  0  0  0  0  0  0  0  0  0  0
   -6.0544   -0.2126  -11.3064 H   0  0  0  0  0  0  0  0  0  0  0  0
   -6.7957   -2.1698   -9.6217 H   0  0  0  0  0  0  0  0  0  0  0  0
   -7.0948   -2.6460  -11.3090 H   0  0  0  0  0  0  0  0  0  0  0  0
   -7.8037    1.3965  -10.1008 H   0  0  0  0  0  0  0  0  0  0  0  0
   -3.9569    3.5931   -3.9401 H   0  0  0  0  0  0  0  0  0  0  0  0
   -2.5372    2.5795   -4.3399 H   0  0  0  0  0  0  0  0  0  0  0  0
   -1.9610    4.1352   -2.4569 H   0  0  0  0  0  0  0  0  0  0  0  0
   -3.3424    3.4853   -1.5216 H   0  0  0  0  0  0  0  0  0  0  0  0
    0.2537   -3.1905    1.1152 H   0  0  0  0  0  0  0  0  0  0  0  0
    0.9703   -5.0576    2.5024 H   0  0  0  0  0  0  0  0  0  0  0  0
    1.7259   -7.5353    5.0666 H   0  0  0  0  0  0  0  0  0  0  0  0
    2.2039   -6.0149    4.2799 H   0  0  0  0  0  0  0  0  0  0  0  0
    1.1447   -7.1843    3.4253 H   0  0  0  0  0  0  0  0  0  0  0  0
   -2.0001   -4.0383    5.4078 H   0  0  0  0  0  0  0  0  0  0  0  0
   -2.7061   -2.1342    4.0125 H   0  0  0  0  0  0  0  0  0  0  0  0
   -2.5493    1.0693    1.6601 H   0  0  0  0  0  0  0  0  0  0  0  0
   -4.8996    1.7448    1.3865 H   0  0  0  0  0  0  0  0  0  0  0  0
   -8.1466   -1.5895    2.1977 H   0  0  0  0  0  0  0  0  0  0  0  0
   -8.1281   -1.8079    0.4120 H   0  0  0  0  0  0  0  0  0  0  0  0
   -9.3457   -0.7620    1.1780 H   0  0  0  0  0  0  0  0  0  0  0  0
   -6.0701   -2.3673    1.2882 H   0  0  0  0  0  0  0  0  0  0  0  0
   -3.7401   -3.0351    1.5554 H   0  0  0  0  0  0  0  0  0  0  0  0
    3.6406    2.4093   -1.7573 H   0  0  0  0  0  0  0  0  0  0  0  0
    4.4627    1.2332   -3.7214 H   0  0  0  0  0  0  0  0  0  0  0  0
    4.3510   -0.2183   -5.5666 H   0  0  0  0  0  0  0  0  0  0  0  0
    5.9890    0.4753   -5.3256 H   0  0  0  0  0  0  0  0  0  0  0  0
    5.7743   -1.0084   -6.2794 H   0  0  0  0  0  0  0  0  0  0  0  0
    5.4518   -2.1449   -1.2914 H   0  0  0  0  0  0  0  0  0  0  0  0
    4.6402   -0.9403    0.6997 H   0  0  0  0  0  0  0  0  0  0  0  0
    5.5132    3.0584   -0.1855 H   0  0  0  0  0  0  0  0  0  0  0  0
    5.6591    5.4702    0.0755 H   0  0  0  0  0  0  0  0  0  0  0  0
    5.0195    7.6785   -0.5618 H   0  0  0  0  0  0  0  0  0  0  0  0
    6.1759    7.6060    0.8071 H   0  0  0  0  0  0  0  0  0  0  0  0
    5.1880    9.0584    0.5464 H   0  0  0  0  0  0  0  0  0  0  0  0
    2.0528    5.4429    2.3719 H   0  0  0  0  0  0  0  0  0  0  0  0
    1.8883    3.0103    2.0825 H   0  0  0  0  0  0  0  0  0  0  0  0
    5.3155    4.7198    3.3019 H   0  0  0  0  0  0  0  0  0  0  0  0
    6.3871    4.6817    4.7370 H   0  0  0  0  0  0  0  0  0  0  0  0
    7.2127    3.9453    1.8841 H   0  0  0  0  0  0  0  0  0  0  0  0
    7.6647    5.4263    2.7386 H   0  0  0  0  0  0  0  0  0  0  0  0
    8.2597    3.8633    3.3102 H   0  0  0  0  0  0  0  0  0  0  0  0
    5.5010   -2.3005    5.5519 H   0  0  0  0  0  0  0  0  0  0  0  0
    3.6266   -2.0704    4.0452 H   0  0  0  0  0  0  0  0  0  0  0  0
    8.1717    0.2487    5.9955 H   0  0  0  0  0  0  0  0  0  0  0  0
   10.0726   -5.0281   10.6782 H   0  0  0  0  0  0  0  0  0  0  0  0
    5.9593   -4.3766    9.6678 H   0  0  0  0  0  0  0  0  0  0  0  0
  1  2  2  0  0  0  0
  2  3  1  0  0  0  0
  3  4  2  0  0  0  0
  3  5  1  0  0  0  0
  5  6  2  0  0  0  0
  6  7  1  0  0  0  0
  7  8  2  0  0  0  0
  8  9  1  0  0  0  0
  9 10  2  0  0  0  0
 10 11  1  0  0  0  0
 11 12  2  0  0  0  0
 12 13  1  0  0  0  0
 13 14  3  0  0  0  0
 12 15  1  0  0  0  0
 15 16  3  0  0  0  0
  8 17  1  0  0  0  0
 17 18  1  0  0  0  0
 18 19  1  0  0  0  0
 19 20  2  0  0  0  0
 20 21  1  0  0  0  0
 21 22  1  0  0  0  0
 21 23  1  0  0  0  0
  1 24  1  0  0  0  0
 24 25  1  0  0  0  0
 25 26  1  0  0  0  0
 26 27  2  0  0  0  0
 27 28  1  0  0  0  0
 28 29  1  0  0  0  0
 29 30  1  0  0  0  0
 30 31  1  0  0  0  0
 31 32  1  0  0  0  0
 26 33  1  0  0  0  0
 33 34  2  0  0  0  0
 34 35  1  0  0  0  0
 35 36  1  0  0  0  0
 36 37  2  0  0  0  0
 37 38  1  0  0  0  0
 38 39  2  0  0  0  0
 39 40  1  0  0  0  0
 40 41  1  0  0  0  0
 39 42  1  0  0  0  0
 42 43  2  0  0  0  0
 35 44  1  0  0  0  0
 44 45  2  0  0  0  0
 45 46  1  0  0  0  0
 46 47  2  0  0  0  0
 47 48  1  0  0  0  0
 48 49  1  0  0  0  0
 47 50  1  0  0  0  0
 50 51  2  0  0  0  0
 34 52  1  0  0  0  0
 52 53  1  0  0  0  0
 53 54  1  0  0  0  0
 54 55  2  0  0  0  0
 55 56  1  0  0  0  0
 56 57  1  0  0  0  0
 57 58  2  0  0  0  0
 58 59  1  0  0  0  0
 59 60  2  0  0  0  0
 60 61  1  0  0  0  0
 61 62  1  0  0  0  0
 60 63  1  0  0  0  0
 63 64  2  0  0  0  0
 56 65  1  0  0  0  0
 65 66  2  0  0  0  0
 66 67  1  0  0  0  0
 67 68  2  0  0  0  0
 68 69  1  0  0  0  0
 69 70  1  0  0  0  0
 68 71  1  0  0  0  0
 71 72  2  0  0  0  0
 55 73  1  0  0  0  0
 73 74  1  0  0  0  0
 54 75  1  0  0  0  0
 75 76  1  0  0  0  0
 76 77  2  0  0  0  0
 77 78  1  0  0  0  0
 78 79  1  0  0  0  0
 79 80  1  0  0  0  0
 78 81  1  0  0  0  0
 81 82  2  0  0  0  0
 82 83  1  0  0  0  0
 83 84  2  0  0  0  0
 84 85  1  0  0  0  0
 83 86  1  0  0  0  0
 86 87  2  0  0  0  0
 87 88  1  0  0  0  0
 88 89  2  0  0  0  0
 88 90  1  0  0  0  0
 90 91  2  0  0  0  0
 91 92  1  0  0  0  0
 91 93  1  0  0  0  0
 93 94  2  0  0  0  0
 94 95  1  0  0  0  0
 94 96  1  0  0  0  0
 96 97  2  0  0  0  0
 97 98  1  0  0  0  0
 98 99  2  0  0  0  0
 99100  1  0  0  0  0
100101  3  0  0  0  0
 99102  1  0  0  0  0
102103  3  0  0  0  0
 11  2  1  0  0  0  0
 23 17  1  0  0  0  0
 28 24  2  0  0  0  0
 74 33  1  0  0  0  0
 85 75  2  0  0  0  0
 98 87  1  0  0  0  0
 10  5  1  0  0  0  0
 22 18  1  0  0  0  0
 32 27  1  0  0  0  0
 43 36  1  0  0  0  0
 51 44  1  0  0  0  0
 73 52  2  0  0  0  0
 82 76  1  0  0  0  0
 97 90  1  0  0  0  0
 23  7  1  0  0  0  0
 64 57  1  0  0  0  0
 72 65  1  0  0  0  0
  1104  1  0  0  0  0
  6105  1  0  0  0  0
  9106  1  0  0  0  0
 17107  1  0  0  0  0
 18108  1  0  0  0  0
 19109  1  0  0  0  0
 20110  1  0  0  0  0
 21111  1  0  0  0  0
 22112  1  0  0  0  0
 22113  1  0  0  0  0
 23114  1  0  0  0  0
 30115  1  0  0  0  0
 30116  1  0  0  0  0
 31117  1  0  0  0  0
 31118  1  0  0  0  0
 37119  1  0  0  0  0
 38120  1  0  0  0  0
 41121  1  0  0  0  0
 41122  1  0  0  0  0
 41123  1  0  0  0  0
 42124  1  0  0  0  0
 43125  1  0  0  0  0
 45126  1  0  0  0  0
 46127  1  0  0  0  0
 49128  1  0  0  0  0
 49129  1  0  0  0  0
 49130  1  0  0  0  0
 50131  1  0  0  0  0
 51132  1  0  0  0  0
 58133  1  0  0  0  0
 59134  1  0  0  0  0
 62135  1  0  0  0  0
 62136  1  0  0  0  0
 62137  1  0  0  0  0
 63138  1  0  0  0  0
 64139  1  0  0  0  0
 66140  1  0  0  0  0
 67141  1  0  0  0  0
 70142  1  0  0  0  0
 70143  1  0  0  0  0
 70144  1  0  0  0  0
 71145  1  0  0  0  0
 72146  1  0  0  0  0
 79147  1  0  0  0  0
 79148  1  0  0  0  0
 80149  1  0  0  0  0
 80150  1  0  0  0  0
 80151  1  0  0  0  0
 84152  1  0  0  0  0
 85153  1  0  0  0  0
 86154  1  0  0  0  0
 93155  1  0  0  0  0
 96156  1  0  0  0  0
M  END
