
  xtb     02162200563D
 energy: -259.255568241991 gnorm: 0.000619876007 xtb: 6.4.1 (unknown)
153167  0     0  0            999 V2000
    2.1397    4.3980   -4.9947 C   0  0  0  0  0  0  0  0  0  0  0  0
    3.2333    4.9681   -4.4243 C   0  0  0  0  0  0  0  0  0  0  0  0
    4.3708    5.4047   -5.2810 C   0  0  0  0  0  0  0  0  0  0  0  0
    4.3595    5.5415   -6.4835 O   0  0  0  0  0  0  0  0  0  0  0  0
    5.5173    5.5374   -4.3633 C   0  0  0  0  0  0  0  0  0  0  0  0
    6.8425    5.7981   -4.7057 C   0  0  0  0  0  0  0  0  0  0  0  0
    7.7021    5.8321   -3.6343 C   0  0  0  0  0  0  0  0  0  0  0  0
    7.2814    5.6076   -2.3158 C   0  0  0  0  0  0  0  0  0  0  0  0
    5.9778    5.3533   -1.9619 C   0  0  0  0  0  0  0  0  0  0  0  0
    5.0844    5.3309   -3.0356 C   0  0  0  0  0  0  0  0  0  0  0  0
    3.6365    5.1406   -3.0447 C   0  0  0  0  0  0  0  0  0  0  0  0
    2.7952    5.3601   -1.9852 C   0  0  0  0  0  0  0  0  0  0  0  0
    1.3933    5.4478   -2.1152 C   0  0  0  0  0  0  0  0  0  0  0  0
    0.2547    5.5713   -2.1940 N   0  0  0  0  0  0  0  0  0  0  0  0
    3.2430    5.6122   -0.6736 C   0  0  0  0  0  0  0  0  0  0  0  0
    3.5720    5.7987    0.4102 N   0  0  0  0  0  0  0  0  0  0  0  0
    8.6711    5.7844   -1.7581 C   0  0  0  0  0  0  0  0  0  0  0  0
    8.9957    7.1233   -1.0511 C   0  0  0  0  0  0  0  0  0  0  0  0
    8.0727    8.1569   -1.6482 C   0  0  0  0  0  0  0  0  0  0  0  0
    8.4668    8.3790   -2.8950 C   0  0  0  0  0  0  0  0  0  0  0  0
    9.6634    7.4999   -3.1636 C   0  0  0  0  0  0  0  0  0  0  0  0
   10.3066    7.4842   -1.7677 C   0  0  0  0  0  0  0  0  0  0  0  0
    9.1378    6.0439   -3.2253 C   0  0  0  0  0  0  0  0  0  0  0  0
    1.1739    3.5332   -4.4257 C   0  0  0  0  0  0  0  0  0  0  0  0
   -0.0431    3.2006   -4.9796 C   0  0  0  0  0  0  0  0  0  0  0  0
   -0.7570    2.2584   -4.2348 C   0  0  0  0  0  0  0  0  0  0  0  0
   -2.4047    1.7655   -4.6245 S   0  0  0  0  0  0  0  0  0  0  0  0
   -3.2455    2.2733   -3.0749 C   0  0  0  0  0  0  0  0  0  0  0  0
   -3.1186    3.7602   -2.8150 C   0  0  0  0  0  0  0  0  0  0  0  0
   -0.0663    1.7942   -3.1304 C   0  0  0  0  0  0  0  0  0  0  0  0
    1.4475    2.6229   -2.9583 S   0  0  0  0  0  0  0  0  0  0  0  0
   -0.4244    0.7175   -2.2624 C   0  0  0  0  0  0  0  0  0  0  0  0
   -0.8027   -0.5610   -2.6506 C   0  0  0  0  0  0  0  0  0  0  0  0
   -0.8466   -1.0395   -3.9409 N   0  0  0  0  0  0  0  0  0  0  0  0
   -1.7559   -2.0613   -4.2503 C   0  0  0  0  0  0  0  0  0  0  0  0
   -1.3668   -3.1365   -5.0485 C   0  0  0  0  0  0  0  0  0  0  0  0
   -2.2386   -4.1767   -5.2767 C   0  0  0  0  0  0  0  0  0  0  0  0
   -3.5156   -4.1678   -4.7164 C   0  0  0  0  0  0  0  0  0  0  0  0
   -4.5115   -5.5968   -5.0074 S   0  0  0  0  0  0  0  0  0  0  0  0
   -6.1357   -5.1482   -4.3300 C   0  0  0  0  0  0  0  0  0  0  0  0
   -3.9226   -3.0776   -3.9609 C   0  0  0  0  0  0  0  0  0  0  0  0
   -3.0491   -2.0313   -3.7365 C   0  0  0  0  0  0  0  0  0  0  0  0
    0.0146   -0.5346   -4.9280 C   0  0  0  0  0  0  0  0  0  0  0  0
    1.3434   -0.2501   -4.6304 C   0  0  0  0  0  0  0  0  0  0  0  0
    2.1590    0.3609   -5.5630 C   0  0  0  0  0  0  0  0  0  0  0  0
    1.6545    0.6938   -6.8129 C   0  0  0  0  0  0  0  0  0  0  0  0
    2.5627    1.5744   -8.0416 S   0  0  0  0  0  0  0  0  0  0  0  0
    4.0674    2.1043   -7.1781 C   0  0  0  0  0  0  0  0  0  0  0  0
    0.3475    0.3345   -7.1399 C   0  0  0  0  0  0  0  0  0  0  0  0
   -0.4648   -0.2758   -6.2114 C   0  0  0  0  0  0  0  0  0  0  0  0
   -1.0692   -1.3591   -1.5112 C   0  0  0  0  0  0  0  0  0  0  0  0
   -1.5547   -2.9970   -1.3091 S   0  0  0  0  0  0  0  0  0  0  0  0
   -1.5181   -2.8234    0.4522 C   0  0  0  0  0  0  0  0  0  0  0  0
   -1.1944   -1.5192    0.8427 C   0  0  0  0  0  0  0  0  0  0  0  0
   -1.1814   -1.0028    2.1167 N   0  0  0  0  0  0  0  0  0  0  0  0
   -0.3115    0.0750    2.3895 C   0  0  0  0  0  0  0  0  0  0  0  0
   -0.7939    1.2257    3.0130 C   0  0  0  0  0  0  0  0  0  0  0  0
    0.0481    2.2874    3.2438 C   0  0  0  0  0  0  0  0  0  0  0  0
    1.3890    2.2290    2.8584 C   0  0  0  0  0  0  0  0  0  0  0  0
    2.3492    3.6652    3.1792 S   0  0  0  0  0  0  0  0  0  0  0  0
    3.9541    3.3044    2.4172 C   0  0  0  0  0  0  0  0  0  0  0  0
    1.8756    1.0725    2.2608 C   0  0  0  0  0  0  0  0  0  0  0  0
    1.0298    0.0045    2.0298 C   0  0  0  0  0  0  0  0  0  0  0  0
   -2.1081   -1.3688    3.0982 C   0  0  0  0  0  0  0  0  0  0  0  0
   -1.7307   -1.3521    4.4435 C   0  0  0  0  0  0  0  0  0  0  0  0
   -2.6109   -1.7710    5.4135 C   0  0  0  0  0  0  0  0  0  0  0  0
   -3.8833   -2.2222    5.0686 C   0  0  0  0  0  0  0  0  0  0  0  0
   -4.9151   -2.8172    6.3734 S   0  0  0  0  0  0  0  0  0  0  0  0
   -6.0089   -3.9861    5.5137 C   0  0  0  0  0  0  0  0  0  0  0  0
   -4.2856   -2.1798    3.7411 C   0  0  0  0  0  0  0  0  0  0  0  0
   -3.4063   -1.7513    2.7655 C   0  0  0  0  0  0  0  0  0  0  0  0
   -0.8929   -0.7213   -0.2964 C   0  0  0  0  0  0  0  0  0  0  0  0
   -0.3447    0.9074   -0.5135 S   0  0  0  0  0  0  0  0  0  0  0  0
   -1.7938   -4.0112    1.1694 C   0  0  0  0  0  0  0  0  0  0  0  0
   -2.1496   -5.2125    0.5723 C   0  0  0  0  0  0  0  0  0  0  0  0
   -2.4190   -6.2347    1.4753 C   0  0  0  0  0  0  0  0  0  0  0  0
   -2.9346   -7.8519    1.0876 S   0  0  0  0  0  0  0  0  0  0  0  0
   -3.0383   -7.8452   -0.7396 C   0  0  0  0  0  0  0  0  0  0  0  0
   -4.2801   -7.1509   -1.2656 C   0  0  0  0  0  0  0  0  0  0  0  0
   -2.2410   -5.8469    2.8145 C   0  0  0  0  0  0  0  0  0  0  0  0
   -1.6979   -4.1846    2.8895 S   0  0  0  0  0  0  0  0  0  0  0  0
   -2.6476   -6.5637    3.9410 C   0  0  0  0  0  0  0  0  0  0  0  0
   -2.5533   -6.2189    5.2679 C   0  0  0  0  0  0  0  0  0  0  0  0
   -3.5629   -6.7244    6.2229 C   0  0  0  0  0  0  0  0  0  0  0  0
   -4.3675   -7.6138    6.0440 O   0  0  0  0  0  0  0  0  0  0  0  0
   -3.4412   -5.8470    7.4095 C   0  0  0  0  0  0  0  0  0  0  0  0
   -4.2267   -5.8035    8.5445 C   0  0  0  0  0  0  0  0  0  0  0  0
   -3.9441   -4.8497    9.5102 C   0  0  0  0  0  0  0  0  0  0  0  0
   -2.8801   -3.9797    9.3227 C   0  0  0  0  0  0  0  0  0  0  0  0
   -2.5220   -2.6720   10.6526 Br  0  0  0  0  0  0  0  0  0  0  0  0
   -2.0663   -4.0215    8.1975 C   0  0  0  0  0  0  0  0  0  0  0  0
   -2.3661   -4.9593    7.2266 C   0  0  0  0  0  0  0  0  0  0  0  0
   -1.7232   -5.2620    5.9472 C   0  0  0  0  0  0  0  0  0  0  0  0
   -0.4500   -4.8897    5.5897 C   0  0  0  0  0  0  0  0  0  0  0  0
    0.2560   -5.5060    4.5368 C   0  0  0  0  0  0  0  0  0  0  0  0
    0.8844   -6.0341    3.7336 N   0  0  0  0  0  0  0  0  0  0  0  0
    0.3094   -3.9200    6.2675 C   0  0  0  0  0  0  0  0  0  0  0  0
    0.9510   -3.1021    6.7565 N   0  0  0  0  0  0  0  0  0  0  0  0
    2.0422    4.5483   -6.0665 H   0  0  0  0  0  0  0  0  0  0  0  0
    7.1283    5.9576   -5.7336 H   0  0  0  0  0  0  0  0  0  0  0  0
    5.6654    5.1744   -0.9462 H   0  0  0  0  0  0  0  0  0  0  0  0
    9.0878    4.9258   -1.2353 H   0  0  0  0  0  0  0  0  0  0  0  0
    9.0160    7.0675    0.0338 H   0  0  0  0  0  0  0  0  0  0  0  0
    7.2206    8.5648   -1.1367 H   0  0  0  0  0  0  0  0  0  0  0  0
    8.0098    9.0105   -3.6342 H   0  0  0  0  0  0  0  0  0  0  0  0
   10.2924    7.7878   -4.0018 H   0  0  0  0  0  0  0  0  0  0  0  0
   11.0843    6.7298   -1.6564 H   0  0  0  0  0  0  0  0  0  0  0  0
   10.6936    8.4578   -1.4719 H   0  0  0  0  0  0  0  0  0  0  0  0
    9.8642    5.3595   -3.6594 H   0  0  0  0  0  0  0  0  0  0  0  0
   -0.4243    3.6492   -5.8786 H   0  0  0  0  0  0  0  0  0  0  0  0
   -4.2840    1.9850   -3.2360 H   0  0  0  0  0  0  0  0  0  0  0  0
   -2.8305    1.6834   -2.2576 H   0  0  0  0  0  0  0  0  0  0  0  0
   -3.6896    4.0256   -1.9278 H   0  0  0  0  0  0  0  0  0  0  0  0
   -2.0812    4.0453   -2.6505 H   0  0  0  0  0  0  0  0  0  0  0  0
   -3.5030    4.3270   -3.6598 H   0  0  0  0  0  0  0  0  0  0  0  0
   -0.3738   -3.1542   -5.4716 H   0  0  0  0  0  0  0  0  0  0  0  0
   -1.9364   -5.0196   -5.8789 H   0  0  0  0  0  0  0  0  0  0  0  0
   -6.0731   -5.0230   -3.2529 H   0  0  0  0  0  0  0  0  0  0  0  0
   -6.7894   -5.9825   -4.5647 H   0  0  0  0  0  0  0  0  0  0  0  0
   -6.5000   -4.2472   -4.8142 H   0  0  0  0  0  0  0  0  0  0  0  0
   -4.9127   -3.0290   -3.5376 H   0  0  0  0  0  0  0  0  0  0  0  0
   -3.3713   -1.1809   -3.1539 H   0  0  0  0  0  0  0  0  0  0  0  0
    1.7389   -0.4954   -3.6553 H   0  0  0  0  0  0  0  0  0  0  0  0
    3.1821    0.5756   -5.2985 H   0  0  0  0  0  0  0  0  0  0  0  0
    4.5411    2.8311   -7.8307 H   0  0  0  0  0  0  0  0  0  0  0  0
    4.7296    1.2576   -7.0202 H   0  0  0  0  0  0  0  0  0  0  0  0
    3.8034    2.5805   -6.2386 H   0  0  0  0  0  0  0  0  0  0  0  0
   -0.0288    0.5667   -8.1238 H   0  0  0  0  0  0  0  0  0  0  0  0
   -1.4857   -0.5226   -6.4575 H   0  0  0  0  0  0  0  0  0  0  0  0
   -1.8329    1.2808    3.3014 H   0  0  0  0  0  0  0  0  0  0  0  0
   -0.3213    3.1850    3.7145 H   0  0  0  0  0  0  0  0  0  0  0  0
    4.5170    4.2296    2.4871 H   0  0  0  0  0  0  0  0  0  0  0  0
    4.4598    2.5131    2.9632 H   0  0  0  0  0  0  0  0  0  0  0  0
    3.8128    3.0439    1.3727 H   0  0  0  0  0  0  0  0  0  0  0  0
    2.9112    0.9871    1.9750 H   0  0  0  0  0  0  0  0  0  0  0  0
    1.4114   -0.8952    1.5687 H   0  0  0  0  0  0  0  0  0  0  0  0
   -0.7344   -1.0405    4.7167 H   0  0  0  0  0  0  0  0  0  0  0  0
   -2.3160   -1.7698    6.4505 H   0  0  0  0  0  0  0  0  0  0  0  0
   -5.4202   -4.6013    4.8396 H   0  0  0  0  0  0  0  0  0  0  0  0
   -6.4495   -4.6065    6.2877 H   0  0  0  0  0  0  0  0  0  0  0  0
   -6.7915   -3.4544    4.9804 H   0  0  0  0  0  0  0  0  0  0  0  0
   -5.2815   -2.4794    3.4556 H   0  0  0  0  0  0  0  0  0  0  0  0
   -3.7256   -1.7249    1.7338 H   0  0  0  0  0  0  0  0  0  0  0  0
   -2.2176   -5.3027   -0.4959 H   0  0  0  0  0  0  0  0  0  0  0  0
   -2.1203   -7.4036   -1.1237 H   0  0  0  0  0  0  0  0  0  0  0  0
   -3.0520   -8.9037   -0.9985 H   0  0  0  0  0  0  0  0  0  0  0  0
   -5.1745   -7.6543   -0.9062 H   0  0  0  0  0  0  0  0  0  0  0  0
   -4.3171   -6.1125   -0.9433 H   0  0  0  0  0  0  0  0  0  0  0  0
   -4.2752   -7.1777   -2.3538 H   0  0  0  0  0  0  0  0  0  0  0  0
   -3.2451   -7.4478    3.7333 H   0  0  0  0  0  0  0  0  0  0  0  0
   -5.0431   -6.4982    8.6683 H   0  0  0  0  0  0  0  0  0  0  0  0
   -4.5440   -4.7781   10.4042 H   0  0  0  0  0  0  0  0  0  0  0  0
   -1.2427   -3.3331    8.0952 H   0  0  0  0  0  0  0  0  0  0  0  0
  1  2  2  0  0  0  0
  2  3  1  0  0  0  0
  3  4  2  0  0  0  0
  3  5  1  0  0  0  0
  5  6  2  0  0  0  0
  6  7  1  0  0  0  0
  7  8  2  0  0  0  0
  8  9  1  0  0  0  0
  9 10  2  0  0  0  0
 10 11  1  0  0  0  0
 11 12  2  0  0  0  0
 12 13  1  0  0  0  0
 13 14  3  0  0  0  0
 12 15  1  0  0  0  0
 15 16  3  0  0  0  0
  8 17  1  0  0  0  0
 17 18  1  0  0  0  0
 18 19  1  0  0  0  0
 19 20  2  0  0  0  0
 20 21  1  0  0  0  0
 21 22  1  0  0  0  0
 21 23  1  0  0  0  0
  1 24  1  0  0  0  0
 24 25  2  0  0  0  0
 25 26  1  0  0  0  0
 26 27  1  0  0  0  0
 27 28  1  0  0  0  0
 28 29  1  0  0  0  0
 26 30  2  0  0  0  0
 30 31  1  0  0  0  0
 30 32  1  0  0  0  0
 32 33  2  0  0  0  0
 33 34  1  0  0  0  0
 34 35  1  0  0  0  0
 35 36  2  0  0  0  0
 36 37  1  0  0  0  0
 37 38  2  0  0  0  0
 38 39  1  0  0  0  0
 39 40  1  0  0  0  0
 38 41  1  0  0  0  0
 41 42  2  0  0  0  0
 34 43  1  0  0  0  0
 43 44  2  0  0  0  0
 44 45  1  0  0  0  0
 45 46  2  0  0  0  0
 46 47  1  0  0  0  0
 47 48  1  0  0  0  0
 46 49  1  0  0  0  0
 49 50  2  0  0  0  0
 33 51  1  0  0  0  0
 51 52  1  0  0  0  0
 52 53  1  0  0  0  0
 53 54  2  0  0  0  0
 54 55  1  0  0  0  0
 55 56  1  0  0  0  0
 56 57  2  0  0  0  0
 57 58  1  0  0  0  0
 58 59  2  0  0  0  0
 59 60  1  0  0  0  0
 60 61  1  0  0  0  0
 59 62  1  0  0  0  0
 62 63  2  0  0  0  0
 55 64  1  0  0  0  0
 64 65  2  0  0  0  0
 65 66  1  0  0  0  0
 66 67  2  0  0  0  0
 67 68  1  0  0  0  0
 68 69  1  0  0  0  0
 67 70  1  0  0  0  0
 70 71  2  0  0  0  0
 54 72  1  0  0  0  0
 72 73  1  0  0  0  0
 53 74  1  0  0  0  0
 74 75  2  0  0  0  0
 75 76  1  0  0  0  0
 76 77  1  0  0  0  0
 77 78  1  0  0  0  0
 78 79  1  0  0  0  0
 76 80  2  0  0  0  0
 80 81  1  0  0  0  0
 80 82  1  0  0  0  0
 82 83  2  0  0  0  0
 83 84  1  0  0  0  0
 84 85  2  0  0  0  0
 84 86  1  0  0  0  0
 86 87  2  0  0  0  0
 87 88  1  0  0  0  0
 88 89  2  0  0  0  0
 89 90  1  0  0  0  0
 89 91  1  0  0  0  0
 91 92  2  0  0  0  0
 92 93  1  0  0  0  0
 93 94  2  0  0  0  0
 94 95  1  0  0  0  0
 95 96  3  0  0  0  0
 94 97  1  0  0  0  0
 97 98  3  0  0  0  0
 11  2  1  0  0  0  0
 23 17  1  0  0  0  0
 31 24  1  0  0  0  0
 73 32  1  0  0  0  0
 81 74  1  0  0  0  0
 93 83  1  0  0  0  0
 10  5  1  0  0  0  0
 22 18  1  0  0  0  0
 42 35  1  0  0  0  0
 50 43  1  0  0  0  0
 72 51  2  0  0  0  0
 92 86  1  0  0  0  0
 23  7  1  0  0  0  0
 63 56  1  0  0  0  0
 71 64  1  0  0  0  0
  1 99  1  0  0  0  0
  6100  1  0  0  0  0
  9101  1  0  0  0  0
 17102  1  0  0  0  0
 18103  1  0  0  0  0
 19104  1  0  0  0  0
 20105  1  0  0  0  0
 21106  1  0  0  0  0
 22107  1  0  0  0  0
 22108  1  0  0  0  0
 23109  1  0  0  0  0
 25110  1  0  0  0  0
 28111  1  0  0  0  0
 28112  1  0  0  0  0
 29113  1  0  0  0  0
 29114  1  0  0  0  0
 29115  1  0  0  0  0
 36116  1  0  0  0  0
 37117  1  0  0  0  0
 40118  1  0  0  0  0
 40119  1  0  0  0  0
 40120  1  0  0  0  0
 41121  1  0  0  0  0
 42122  1  0  0  0  0
 44123  1  0  0  0  0
 45124  1  0  0  0  0
 48125  1  0  0  0  0
 48126  1  0  0  0  0
 48127  1  0  0  0  0
 49128  1  0  0  0  0
 50129  1  0  0  0  0
 57130  1  0  0  0  0
 58131  1  0  0  0  0
 61132  1  0  0  0  0
 61133  1  0  0  0  0
 61134  1  0  0  0  0
 62135  1  0  0  0  0
 63136  1  0  0  0  0
 65137  1  0  0  0  0
 66138  1  0  0  0  0
 69139  1  0  0  0  0
 69140  1  0  0  0  0
 69141  1  0  0  0  0
 70142  1  0  0  0  0
 71143  1  0  0  0  0
 75144  1  0  0  0  0
 78145  1  0  0  0  0
 78146  1  0  0  0  0
 79147  1  0  0  0  0
 79148  1  0  0  0  0
 79149  1  0  0  0  0
 82150  1  0  0  0  0
 87151  1  0  0  0  0
 88152  1  0  0  0  0
 91153  1  0  0  0  0
M  END
