
  xtb     02072221233D
 energy: -363.811756610276 gnorm: 0.000245306258 xtb: 6.4.1 (unknown)
208231  0     0  0            999 V2000
   -6.8578   -3.7080    6.3421 C   0  0  0  0  0  0  0  0  0  0  0  0
   -8.1706   -3.4383    6.5944 C   0  0  0  0  0  0  0  0  0  0  0  0
   -8.9973   -2.4230    5.9144 C   0  0  0  0  0  0  0  0  0  0  0  0
   -8.6841   -1.7230    4.9708 O   0  0  0  0  0  0  0  0  0  0  0  0
  -10.2898   -2.4076    6.6166 C   0  0  0  0  0  0  0  0  0  0  0  0
  -11.3697   -1.5662    6.3578 C   0  0  0  0  0  0  0  0  0  0  0  0
  -12.4424   -1.7606    7.1935 C   0  0  0  0  0  0  0  0  0  0  0  0
  -12.4406   -2.7217    8.2141 C   0  0  0  0  0  0  0  0  0  0  0  0
  -11.3826   -3.5578    8.4792 C   0  0  0  0  0  0  0  0  0  0  0  0
  -10.2795   -3.3788    7.6385 C   0  0  0  0  0  0  0  0  0  0  0  0
   -8.9846   -4.0550    7.6306 C   0  0  0  0  0  0  0  0  0  0  0  0
   -8.6254   -5.0858    8.4583 C   0  0  0  0  0  0  0  0  0  0  0  0
   -7.3735   -5.7375    8.4804 C   0  0  0  0  0  0  0  0  0  0  0  0
   -6.3880   -6.3185    8.5836 N   0  0  0  0  0  0  0  0  0  0  0  0
   -9.4706   -5.6618    9.4312 C   0  0  0  0  0  0  0  0  0  0  0  0
  -10.0953   -6.1847   10.2402 N   0  0  0  0  0  0  0  0  0  0  0  0
  -13.8361   -2.3655    8.6608 C   0  0  0  0  0  0  0  0  0  0  0  0
  -14.9905   -3.3104    8.2452 C   0  0  0  0  0  0  0  0  0  0  0  0
  -14.5512   -3.9901    6.9720 C   0  0  0  0  0  0  0  0  0  0  0  0
  -14.5534   -3.0813    6.0061 C   0  0  0  0  0  0  0  0  0  0  0  0
  -14.9941   -1.7701    6.6087 C   0  0  0  0  0  0  0  0  0  0  0  0
  -15.9772   -2.2788    7.6751 C   0  0  0  0  0  0  0  0  0  0  0  0
  -13.8383   -1.2954    7.5237 C   0  0  0  0  0  0  0  0  0  0  0  0
   -5.9687   -3.1371    5.4030 C   0  0  0  0  0  0  0  0  0  0  0  0
   -4.6254   -3.4636    5.3923 C   0  0  0  0  0  0  0  0  0  0  0  0
   -3.8760   -2.7667    4.4331 C   0  0  0  0  0  0  0  0  0  0  0  0
   -2.4780   -2.7807    4.2178 C   0  0  0  0  0  0  0  0  0  0  0  0
   -1.6195   -3.7325    4.8948 C   0  0  0  0  0  0  0  0  0  0  0  0
   -0.0848   -3.2889    5.5845 S   0  0  0  0  0  0  0  0  0  0  0  0
    0.2403   -4.9002    6.1249 C   0  0  0  0  0  0  0  0  0  0  0  0
    1.4826   -5.2527    6.8656 C   0  0  0  0  0  0  0  0  0  0  0  0
    1.6563   -4.3959    8.1183 C   0  0  0  0  0  0  0  0  0  0  0  0
   -0.7874   -5.7233    5.7720 C   0  0  0  0  0  0  0  0  0  0  0  0
   -0.8005   -7.0380    6.0400 F   0  0  0  0  0  0  0  0  0  0  0  0
   -1.8369   -5.0717    5.0823 C   0  0  0  0  0  0  0  0  0  0  0  0
   -2.9066   -5.7270    4.6129 F   0  0  0  0  0  0  0  0  0  0  0  0
   -1.9804   -1.8426    3.3292 C   0  0  0  0  0  0  0  0  0  0  0  0
   -2.7943   -0.9658    2.5621 C   0  0  0  0  0  0  0  0  0  0  0  0
   -4.1893   -1.0277    2.7090 C   0  0  0  0  0  0  0  0  0  0  0  0
   -5.1150   -0.2379    1.9145 C   0  0  0  0  0  0  0  0  0  0  0  0
   -5.0431    1.4920    1.7917 S   0  0  0  0  0  0  0  0  0  0  0  0
   -6.4870    1.5671    0.8396 C   0  0  0  0  0  0  0  0  0  0  0  0
   -7.0935    2.8554    0.4045 C   0  0  0  0  0  0  0  0  0  0  0  0
   -7.6255    3.6439    1.6022 C   0  0  0  0  0  0  0  0  0  0  0  0
   -6.9754    0.3126    0.6316 C   0  0  0  0  0  0  0  0  0  0  0  0
   -6.2078   -0.7077    1.2392 C   0  0  0  0  0  0  0  0  0  0  0  0
   -6.4975   -2.0078    1.1123 F   0  0  0  0  0  0  0  0  0  0  0  0
   -8.0791    0.0670   -0.0900 F   0  0  0  0  0  0  0  0  0  0  0  0
   -4.6975   -1.8953    3.6734 C   0  0  0  0  0  0  0  0  0  0  0  0
   -6.3600   -1.9572    4.1736 S   0  0  0  0  0  0  0  0  0  0  0  0
   -2.0309   -0.1378    1.7008 C   0  0  0  0  0  0  0  0  0  0  0  0
   -0.6813   -0.3351    1.8076 C   0  0  0  0  0  0  0  0  0  0  0  0
   -0.2991   -1.6075    2.9614 S   0  0  0  0  0  0  0  0  0  0  0  0
    0.4371    0.2524    1.1521 C   0  0  0  0  0  0  0  0  0  0  0  0
    0.5590    1.2019    0.1419 C   0  0  0  0  0  0  0  0  0  0  0  0
   -0.4530    1.9209   -0.4857 N   0  0  0  0  0  0  0  0  0  0  0  0
   -1.3886    2.6743    0.2220 C   0  0  0  0  0  0  0  0  0  0  0  0
   -2.5087    3.1784   -0.4401 C   0  0  0  0  0  0  0  0  0  0  0  0
   -3.4083    3.9935    0.2146 C   0  0  0  0  0  0  0  0  0  0  0  0
   -3.2271    4.2979    1.5571 C   0  0  0  0  0  0  0  0  0  0  0  0
   -4.3237    5.3356    2.4748 S   0  0  0  0  0  0  0  0  0  0  0  0
   -5.0528    6.3915    1.1849 C   0  0  0  0  0  0  0  0  0  0  0  0
   -2.1425    3.7531    2.2371 C   0  0  0  0  0  0  0  0  0  0  0  0
   -1.2286    2.9602    1.5794 C   0  0  0  0  0  0  0  0  0  0  0  0
   -0.1949    2.2003   -1.8469 C   0  0  0  0  0  0  0  0  0  0  0  0
   -0.1920    3.4990   -2.3522 C   0  0  0  0  0  0  0  0  0  0  0  0
    0.2593    3.7415   -3.6315 C   0  0  0  0  0  0  0  0  0  0  0  0
    0.7410    2.7005   -4.4184 C   0  0  0  0  0  0  0  0  0  0  0  0
    1.4825    3.0997   -5.9743 S   0  0  0  0  0  0  0  0  0  0  0  0
    2.7804    1.8329   -6.0991 C   0  0  0  0  0  0  0  0  0  0  0  0
    0.6512    1.3947   -3.9545 C   0  0  0  0  0  0  0  0  0  0  0  0
    0.1773    1.1488   -2.6821 C   0  0  0  0  0  0  0  0  0  0  0  0
    1.9118    1.3306   -0.2686 C   0  0  0  0  0  0  0  0  0  0  0  0
    2.7158    2.3481   -1.4156 S   0  0  0  0  0  0  0  0  0  0  0  0
    4.2361    1.5142   -1.1119 C   0  0  0  0  0  0  0  0  0  0  0  0
    4.1414    0.6339   -0.0172 C   0  0  0  0  0  0  0  0  0  0  0  0
    5.1830   -0.0418    0.5730 N   0  0  0  0  0  0  0  0  0  0  0  0
    4.8659   -1.2297    1.2634 C   0  0  0  0  0  0  0  0  0  0  0  0
    5.2377   -1.4070    2.5947 C   0  0  0  0  0  0  0  0  0  0  0  0
    4.7887   -2.5054    3.2933 C   0  0  0  0  0  0  0  0  0  0  0  0
    3.9636   -3.4436    2.6774 C   0  0  0  0  0  0  0  0  0  0  0  0
    3.3460   -4.7596    3.6764 S   0  0  0  0  0  0  0  0  0  0  0  0
    1.8219   -5.2401    2.8130 C   0  0  0  0  0  0  0  0  0  0  0  0
    3.6609   -3.3128    1.3290 C   0  0  0  0  0  0  0  0  0  0  0  0
    4.1109   -2.2115    0.6284 C   0  0  0  0  0  0  0  0  0  0  0  0
    6.4500    0.5325    0.7426 C   0  0  0  0  0  0  0  0  0  0  0  0
    6.6196    1.9116    0.8344 C   0  0  0  0  0  0  0  0  0  0  0  0
    7.8787    2.4572    0.9829 C   0  0  0  0  0  0  0  0  0  0  0  0
    8.9956    1.6323    1.0496 C   0  0  0  0  0  0  0  0  0  0  0  0
   10.6459    2.2105    1.2407 S   0  0  0  0  0  0  0  0  0  0  0  0
   10.4947    4.0169    1.1357 C   0  0  0  0  0  0  0  0  0  0  0  0
    8.8272    0.2490    0.9759 C   0  0  0  0  0  0  0  0  0  0  0  0
    7.5736   -0.2950    0.8232 C   0  0  0  0  0  0  0  0  0  0  0  0
    2.8048    0.5285    0.4214 C   0  0  0  0  0  0  0  0  0  0  0  0
    2.0019   -0.3902    1.6438 S   0  0  0  0  0  0  0  0  0  0  0  0
    5.2801    1.5652   -2.0592 C   0  0  0  0  0  0  0  0  0  0  0  0
    6.4602    0.2808   -2.1025 S   0  0  0  0  0  0  0  0  0  0  0  0
    7.1343    0.8518   -3.6067 C   0  0  0  0  0  0  0  0  0  0  0  0
    6.5138    2.0197   -4.0112 C   0  0  0  0  0  0  0  0  0  0  0  0
    7.0003    2.8676   -5.1202 C   0  0  0  0  0  0  0  0  0  0  0  0
    8.1275    2.7948   -5.5718 O   0  0  0  0  0  0  0  0  0  0  0  0
    6.0124    3.8606   -5.5417 C   0  0  0  0  0  0  0  0  0  0  0  0
    6.0285    4.5378   -6.7315 C   0  0  0  0  0  0  0  0  0  0  0  0
    6.9095    4.3153   -7.9065 C   0  0  0  0  0  0  0  0  0  0  0  0
    6.2646    3.2941   -8.8485 C   0  0  0  0  0  0  0  0  0  0  0  0
    4.7149    5.6645   -6.8192 S   0  0  0  0  0  0  0  0  0  0  0  0
    4.1671    5.2614   -5.2282 C   0  0  0  0  0  0  0  0  0  0  0  0
    3.0258    5.9966   -4.6297 C   0  0  0  0  0  0  0  0  0  0  0  0
    3.4951    7.3277   -4.0353 C   0  0  0  0  0  0  0  0  0  0  0  0
    4.9436    4.2704   -4.6799 C   0  0  0  0  0  0  0  0  0  0  0  0
    4.6981    3.6426   -3.3864 C   0  0  0  0  0  0  0  0  0  0  0  0
    3.8942    4.0873   -2.5709 O   0  0  0  0  0  0  0  0  0  0  0  0
    5.4615    2.4221   -3.1566 C   0  0  0  0  0  0  0  0  0  0  0  0
    8.1994    0.1148   -4.1801 C   0  0  0  0  0  0  0  0  0  0  0  0
    8.4532   -0.0390   -5.5087 C   0  0  0  0  0  0  0  0  0  0  0  0
    7.5013    0.2527   -6.6099 C   0  0  0  0  0  0  0  0  0  0  0  0
    6.3848    0.7293   -6.5312 O   0  0  0  0  0  0  0  0  0  0  0  0
    8.1500   -0.2375   -7.8372 C   0  0  0  0  0  0  0  0  0  0  0  0
    7.6288   -0.2040   -9.1297 C   0  0  0  0  0  0  0  0  0  0  0  0
    8.4733   -0.7056  -10.0897 C   0  0  0  0  0  0  0  0  0  0  0  0
    9.7450   -1.2120   -9.7888 C   0  0  0  0  0  0  0  0  0  0  0  0
   10.2669   -1.2641   -8.5186 C   0  0  0  0  0  0  0  0  0  0  0  0
    9.4230   -0.7585   -7.5257 C   0  0  0  0  0  0  0  0  0  0  0  0
    9.6335   -0.6511   -6.0855 C   0  0  0  0  0  0  0  0  0  0  0  0
   10.7739   -1.0080   -5.4142 C   0  0  0  0  0  0  0  0  0  0  0  0
   10.9870   -0.8596   -4.0268 C   0  0  0  0  0  0  0  0  0  0  0  0
   11.2452   -0.7755   -2.9107 N   0  0  0  0  0  0  0  0  0  0  0  0
   11.9134   -1.5783   -6.0193 C   0  0  0  0  0  0  0  0  0  0  0  0
   12.8709   -2.0538   -6.4385 N   0  0  0  0  0  0  0  0  0  0  0  0
   10.0387   -1.5509  -11.2284 C   0  0  0  0  0  0  0  0  0  0  0  0
    9.9314   -3.0354  -11.6561 C   0  0  0  0  0  0  0  0  0  0  0  0
    8.9479   -3.6826  -10.7130 C   0  0  0  0  0  0  0  0  0  0  0  0
    7.7427   -3.2066  -10.9959 C   0  0  0  0  0  0  0  0  0  0  0  0
    7.8893   -2.2293  -12.1360 C   0  0  0  0  0  0  0  0  0  0  0  0
    9.0487   -2.8826  -12.9051 C   0  0  0  0  0  0  0  0  0  0  0  0
    8.6207   -0.9896  -11.5636 C   0  0  0  0  0  0  0  0  0  0  0  0
   -6.3805   -4.4554    6.9645 H   0  0  0  0  0  0  0  0  0  0  0  0
  -11.3243   -0.8365    5.5646 H   0  0  0  0  0  0  0  0  0  0  0  0
  -11.3980   -4.2858    9.2726 H   0  0  0  0  0  0  0  0  0  0  0  0
  -13.9328   -2.0190    9.6878 H   0  0  0  0  0  0  0  0  0  0  0  0
  -15.3480   -3.9613    9.0383 H   0  0  0  0  0  0  0  0  0  0  0  0
  -14.2389   -5.0165    6.9188 H   0  0  0  0  0  0  0  0  0  0  0  0
  -14.2427   -3.1963    4.9842 H   0  0  0  0  0  0  0  0  0  0  0  0
  -15.3558   -1.0185    5.9119 H   0  0  0  0  0  0  0  0  0  0  0  0
  -16.2706   -1.5153    8.3944 H   0  0  0  0  0  0  0  0  0  0  0  0
  -16.8650   -2.7388    7.2440 H   0  0  0  0  0  0  0  0  0  0  0  0
  -13.9367   -0.2495    7.8083 H   0  0  0  0  0  0  0  0  0  0  0  0
   -4.2082   -4.1654    6.0918 H   0  0  0  0  0  0  0  0  0  0  0  0
    1.4307   -6.3093    7.1358 H   0  0  0  0  0  0  0  0  0  0  0  0
    2.3465   -5.1082    6.2107 H   0  0  0  0  0  0  0  0  0  0  0  0
    0.8169   -4.5343    8.7957 H   0  0  0  0  0  0  0  0  0  0  0  0
    1.7160   -3.3442    7.8480 H   0  0  0  0  0  0  0  0  0  0  0  0
    2.5697   -4.6759    8.6354 H   0  0  0  0  0  0  0  0  0  0  0  0
   -7.9088    2.6325   -0.2871 H   0  0  0  0  0  0  0  0  0  0  0  0
   -6.3460    3.4493   -0.1261 H   0  0  0  0  0  0  0  0  0  0  0  0
   -8.0933    4.5669    1.2682 H   0  0  0  0  0  0  0  0  0  0  0  0
   -8.3666    3.0566    2.1383 H   0  0  0  0  0  0  0  0  0  0  0  0
   -6.8153    3.8849    2.2866 H   0  0  0  0  0  0  0  0  0  0  0  0
   -2.4769    0.5766    1.0353 H   0  0  0  0  0  0  0  0  0  0  0  0
   -2.6673    2.9368   -1.4805 H   0  0  0  0  0  0  0  0  0  0  0  0
   -4.2474    4.3892   -0.3347 H   0  0  0  0  0  0  0  0  0  0  0  0
   -5.8071    5.8479    0.6246 H   0  0  0  0  0  0  0  0  0  0  0  0
   -5.5166    7.2207    1.7094 H   0  0  0  0  0  0  0  0  0  0  0  0
   -4.2657    6.7569    0.5329 H   0  0  0  0  0  0  0  0  0  0  0  0
   -2.0109    3.9783    3.2839 H   0  0  0  0  0  0  0  0  0  0  0  0
   -0.3709    2.5813    2.1123 H   0  0  0  0  0  0  0  0  0  0  0  0
   -0.4930    4.3224   -1.7228 H   0  0  0  0  0  0  0  0  0  0  0  0
    0.2832    4.7487   -4.0160 H   0  0  0  0  0  0  0  0  0  0  0  0
    3.5129    2.2060   -6.8076 H   0  0  0  0  0  0  0  0  0  0  0  0
    2.3679    0.8963   -6.4623 H   0  0  0  0  0  0  0  0  0  0  0  0
    3.2444    1.7033   -5.1262 H   0  0  0  0  0  0  0  0  0  0  0  0
    0.9641    0.5682   -4.5728 H   0  0  0  0  0  0  0  0  0  0  0  0
    0.1350    0.1359   -2.3086 H   0  0  0  0  0  0  0  0  0  0  0  0
    5.8456   -0.6610    3.0839 H   0  0  0  0  0  0  0  0  0  0  0  0
    5.0442   -2.6324    4.3337 H   0  0  0  0  0  0  0  0  0  0  0  0
    1.2440   -4.3477    2.5904 H   0  0  0  0  0  0  0  0  0  0  0  0
    1.2774   -5.8781    3.5022 H   0  0  0  0  0  0  0  0  0  0  0  0
    2.0552   -5.7983    1.9112 H   0  0  0  0  0  0  0  0  0  0  0  0
    3.0668   -4.0537    0.8191 H   0  0  0  0  0  0  0  0  0  0  0  0
    3.8590   -2.0942   -0.4155 H   0  0  0  0  0  0  0  0  0  0  0  0
    5.7608    2.5650    0.7937 H   0  0  0  0  0  0  0  0  0  0  0  0
    7.9720    3.5287    1.0536 H   0  0  0  0  0  0  0  0  0  0  0  0
    9.9225    4.3963    1.9774 H   0  0  0  0  0  0  0  0  0  0  0  0
   10.0412    4.2953    0.1891 H   0  0  0  0  0  0  0  0  0  0  0  0
   11.5107    4.3964    1.1825 H   0  0  0  0  0  0  0  0  0  0  0  0
    9.6964   -0.3878    1.0249 H   0  0  0  0  0  0  0  0  0  0  0  0
    7.4504   -1.3648    0.7511 H   0  0  0  0  0  0  0  0  0  0  0  0
    7.8692    3.9330   -7.5569 H   0  0  0  0  0  0  0  0  0  0  0  0
    7.0695    5.2567   -8.4358 H   0  0  0  0  0  0  0  0  0  0  0  0
    5.3130    3.6669   -9.2236 H   0  0  0  0  0  0  0  0  0  0  0  0
    6.0913    2.3653   -8.3097 H   0  0  0  0  0  0  0  0  0  0  0  0
    6.9216    3.0968   -9.6917 H   0  0  0  0  0  0  0  0  0  0  0  0
    2.2717    6.1830   -5.3972 H   0  0  0  0  0  0  0  0  0  0  0  0
    2.5966    5.3841   -3.8359 H   0  0  0  0  0  0  0  0  0  0  0  0
    2.6491    7.8640   -3.6143 H   0  0  0  0  0  0  0  0  0  0  0  0
    3.9567    7.9478   -4.8011 H   0  0  0  0  0  0  0  0  0  0  0  0
    4.2191    7.1474   -3.2448 H   0  0  0  0  0  0  0  0  0  0  0  0
    8.8308   -0.3982   -3.4649 H   0  0  0  0  0  0  0  0  0  0  0  0
    6.6442    0.1916   -9.3237 H   0  0  0  0  0  0  0  0  0  0  0  0
   11.2437   -1.6633   -8.3028 H   0  0  0  0  0  0  0  0  0  0  0  0
   10.9010   -1.0536  -11.6678 H   0  0  0  0  0  0  0  0  0  0  0  0
   10.8859   -3.5407  -11.7754 H   0  0  0  0  0  0  0  0  0  0  0  0
    9.2291   -4.3554   -9.9241 H   0  0  0  0  0  0  0  0  0  0  0  0
    6.8153   -3.4021  -10.4900 H   0  0  0  0  0  0  0  0  0  0  0  0
    6.9841   -2.0022  -12.6931 H   0  0  0  0  0  0  0  0  0  0  0  0
    8.7747   -3.8395  -13.3467 H   0  0  0  0  0  0  0  0  0  0  0  0
    9.4828   -2.2366  -13.6669 H   0  0  0  0  0  0  0  0  0  0  0  0
    8.5567   -0.1282  -12.2257 H   0  0  0  0  0  0  0  0  0  0  0  0
  1  2  2  0  0  0  0
  2  3  1  0  0  0  0
  3  4  2  0  0  0  0
  3  5  1  0  0  0  0
  5  6  2  0  0  0  0
  6  7  1  0  0  0  0
  7  8  2  0  0  0  0
  8  9  1  0  0  0  0
  9 10  2  0  0  0  0
 10 11  1  0  0  0  0
 11 12  2  0  0  0  0
 12 13  1  0  0  0  0
 13 14  3  0  0  0  0
 12 15  1  0  0  0  0
 15 16  3  0  0  0  0
  8 17  1  0  0  0  0
 17 18  1  0  0  0  0
 18 19  1  0  0  0  0
 19 20  2  0  0  0  0
 20 21  1  0  0  0  0
 21 22  1  0  0  0  0
 21 23  1  0  0  0  0
  1 24  1  0  0  0  0
 24 25  2  0  0  0  0
 25 26  1  0  0  0  0
 26 27  2  0  0  0  0
 27 28  1  0  0  0  0
 28 29  1  0  0  0  0
 29 30  1  0  0  0  0
 30 31  1  0  0  0  0
 31 32  1  0  0  0  0
 30 33  2  0  0  0  0
 33 34  1  0  0  0  0
 33 35  1  0  0  0  0
 35 36  1  0  0  0  0
 27 37  1  0  0  0  0
 37 38  2  0  0  0  0
 38 39  1  0  0  0  0
 39 40  1  0  0  0  0
 40 41  1  0  0  0  0
 41 42  1  0  0  0  0
 42 43  1  0  0  0  0
 43 44  1  0  0  0  0
 42 45  2  0  0  0  0
 45 46  1  0  0  0  0
 46 47  1  0  0  0  0
 45 48  1  0  0  0  0
 39 49  2  0  0  0  0
 49 50  1  0  0  0  0
 38 51  1  0  0  0  0
 51 52  2  0  0  0  0
 52 53  1  0  0  0  0
 52 54  1  0  0  0  0
 54 55  2  0  0  0  0
 55 56  1  0  0  0  0
 56 57  1  0  0  0  0
 57 58  2  0  0  0  0
 58 59  1  0  0  0  0
 59 60  2  0  0  0  0
 60 61  1  0  0  0  0
 61 62  1  0  0  0  0
 60 63  1  0  0  0  0
 63 64  2  0  0  0  0
 56 65  1  0  0  0  0
 65 66  2  0  0  0  0
 66 67  1  0  0  0  0
 67 68  2  0  0  0  0
 68 69  1  0  0  0  0
 69 70  1  0  0  0  0
 68 71  1  0  0  0  0
 71 72  2  0  0  0  0
 55 73  1  0  0  0  0
 73 74  1  0  0  0  0
 74 75  1  0  0  0  0
 75 76  2  0  0  0  0
 76 77  1  0  0  0  0
 77 78  1  0  0  0  0
 78 79  2  0  0  0  0
 79 80  1  0  0  0  0
 80 81  2  0  0  0  0
 81 82  1  0  0  0  0
 82 83  1  0  0  0  0
 81 84  1  0  0  0  0
 84 85  2  0  0  0  0
 77 86  1  0  0  0  0
 86 87  2  0  0  0  0
 87 88  1  0  0  0  0
 88 89  2  0  0  0  0
 89 90  1  0  0  0  0
 90 91  1  0  0  0  0
 89 92  1  0  0  0  0
 92 93  2  0  0  0  0
 76 94  1  0  0  0  0
 94 95  1  0  0  0  0
 75 96  1  0  0  0  0
 96 97  1  0  0  0  0
 97 98  1  0  0  0  0
 98 99  2  0  0  0  0
 99100  1  0  0  0  0
100101  2  0  0  0  0
100102  1  0  0  0  0
102103  2  0  0  0  0
103104  1  0  0  0  0
104105  1  0  0  0  0
103106  1  0  0  0  0
106107  1  0  0  0  0
107108  1  0  0  0  0
108109  1  0  0  0  0
107110  2  0  0  0  0
110111  1  0  0  0  0
111112  2  0  0  0  0
111113  1  0  0  0  0
 98114  1  0  0  0  0
114115  2  0  0  0  0
115116  1  0  0  0  0
116117  2  0  0  0  0
116118  1  0  0  0  0
118119  2  0  0  0  0
119120  1  0  0  0  0
120121  2  0  0  0  0
121122  1  0  0  0  0
122123  2  0  0  0  0
123124  1  0  0  0  0
124125  2  0  0  0  0
125126  1  0  0  0  0
126127  3  0  0  0  0
125128  1  0  0  0  0
128129  3  0  0  0  0
121130  1  0  0  0  0
130131  1  0  0  0  0
131132  1  0  0  0  0
132133  2  0  0  0  0
133134  1  0  0  0  0
134135  1  0  0  0  0
134136  1  0  0  0  0
 11  2  1  0  0  0  0
 23 17  1  0  0  0  0
 50 24  1  0  0  0  0
 95 54  1  0  0  0  0
113 96  2  0  0  0  0
124115  1  0  0  0  0
136130  1  0  0  0  0
 10  5  1  0  0  0  0
 22 18  1  0  0  0  0
 49 26  1  0  0  0  0
 64 57  1  0  0  0  0
 72 65  1  0  0  0  0
 94 73  2  0  0  0  0
113 99  1  0  0  0  0
123118  1  0  0  0  0
135131  1  0  0  0  0
 23  7  1  0  0  0  0
 35 28  2  0  0  0  0
 53 37  1  0  0  0  0
 85 78  1  0  0  0  0
 93 86  1  0  0  0  0
110102  1  0  0  0  0
136120  1  0  0  0  0
 46 40  2  0  0  0  0
  1137  1  0  0  0  0
  6138  1  0  0  0  0
  9139  1  0  0  0  0
 17140  1  0  0  0  0
 18141  1  0  0  0  0
 19142  1  0  0  0  0
 20143  1  0  0  0  0
 21144  1  0  0  0  0
 22145  1  0  0  0  0
 22146  1  0  0  0  0
 23147  1  0  0  0  0
 25148  1  0  0  0  0
 31149  1  0  0  0  0
 31150  1  0  0  0  0
 32151  1  0  0  0  0
 32152  1  0  0  0  0
 32153  1  0  0  0  0
 43154  1  0  0  0  0
 43155  1  0  0  0  0
 44156  1  0  0  0  0
 44157  1  0  0  0  0
 44158  1  0  0  0  0
 51159  1  0  0  0  0
 58160  1  0  0  0  0
 59161  1  0  0  0  0
 62162  1  0  0  0  0
 62163  1  0  0  0  0
 62164  1  0  0  0  0
 63165  1  0  0  0  0
 64166  1  0  0  0  0
 66167  1  0  0  0  0
 67168  1  0  0  0  0
 70169  1  0  0  0  0
 70170  1  0  0  0  0
 70171  1  0  0  0  0
 71172  1  0  0  0  0
 72173  1  0  0  0  0
 79174  1  0  0  0  0
 80175  1  0  0  0  0
 83176  1  0  0  0  0
 83177  1  0  0  0  0
 83178  1  0  0  0  0
 84179  1  0  0  0  0
 85180  1  0  0  0  0
 87181  1  0  0  0  0
 88182  1  0  0  0  0
 91183  1  0  0  0  0
 91184  1  0  0  0  0
 91185  1  0  0  0  0
 92186  1  0  0  0  0
 93187  1  0  0  0  0
104188  1  0  0  0  0
104189  1  0  0  0  0
105190  1  0  0  0  0
105191  1  0  0  0  0
105192  1  0  0  0  0
108193  1  0  0  0  0
108194  1  0  0  0  0
109195  1  0  0  0  0
109196  1  0  0  0  0
109197  1  0  0  0  0
114198  1  0  0  0  0
119199  1  0  0  0  0
122200  1  0  0  0  0
130201  1  0  0  0  0
131202  1  0  0  0  0
132203  1  0  0  0  0
133204  1  0  0  0  0
134205  1  0  0  0  0
135206  1  0  0  0  0
135207  1  0  0  0  0
136208  1  0  0  0  0
M  END
