153

C          2.07490       -3.06890       -5.41970
C          2.15800       -4.37640       -5.02640
C          2.24320       -4.84450       -3.64060
O          2.26410       -4.15950       -2.62910
C          2.32530       -6.30990       -3.69830
C          2.42930       -7.18760       -2.62140
C          2.48590       -8.51160       -2.98500
C          2.44730       -8.93110       -4.32170
C          2.35090       -8.07450       -5.39300
C          2.28590       -6.72230       -5.04690
C          2.16970       -5.53760       -5.89540
C          2.04950       -5.54430       -7.26030
C          1.90960       -4.40780       -8.08330
N          1.79170       -3.54760       -8.83630
C          2.03610       -6.70880       -8.05690
N          2.01760       -7.60600       -8.77310
C          2.52930      -10.38980       -3.94940
C          1.22310      -11.22040       -4.00840
C          0.08710      -10.25130       -3.79290
C          0.12610       -9.85650       -2.52730
C          1.29010      -10.55080       -1.86420
C          1.27710      -11.88660       -2.62420
C          2.57440       -9.92260       -2.46020
C          1.90390       -1.91080       -4.64390
C          1.73840       -0.65280       -5.21040
C          1.38610        0.33650       -4.30000
S          1.15980        2.01750       -4.78060
C          2.12200        2.89580       -3.49330
C          3.57250        2.46000       -3.46520
C          1.25790       -0.15860       -3.00810
S          1.70930       -1.83140       -2.91080
C          0.69230        0.49010       -1.87150
C         -0.51590        1.17740       -1.82550
N         -1.39170        1.29670       -2.88570
C         -2.24870        2.40220       -2.93530
C         -1.79470        3.65230       -2.52090
C         -2.65590        4.72840       -2.45000
C         -3.98730        4.57590       -2.81000
S         -5.16870        5.88260       -2.71290
C         -4.45650        6.99240       -1.46220
C         -4.42740        3.34610       -3.29570
C         -3.57200        2.26850       -3.35460
C         -1.51340        0.22970       -3.79460
C         -1.46020       -1.08830       -3.33850
C         -1.42120       -2.13270       -4.23300
C         -1.44620       -1.88790       -5.60470
S         -1.25690       -3.30110       -6.64680
C         -1.29200       -2.62030       -8.32660
C         -1.59280       -0.58450       -6.05970
C         -1.62910        0.46520       -5.16020
C         -0.78080        1.62550       -0.50680
S         -2.03070        2.56630        0.21820
C         -1.28800        2.38510        1.80620
C         -0.11430        1.63860        1.75700
N          0.72370        1.28500        2.80410
C          1.29930        0.00100        2.69480
C          0.46740       -1.08580        2.43100
C          1.00670       -2.33420        2.19830
C          2.38200       -2.50780        2.22950
S          3.07190       -4.11040        1.86960
C          3.90790       -3.72260        0.29790
C          3.21160       -1.44130        2.54670
C          2.67640       -0.18960        2.77540
C          1.13160        2.17260        3.79600
C          1.06940        3.55550        3.60770
C          1.43310        4.41250        4.62120
C          1.88180        3.91930        5.84570
S          2.27440        5.11740        7.08100
C          2.92020        4.12990        8.46040
C          1.97000        2.54490        6.02970
C          1.59200        1.68350        5.01810
C          0.15500        1.21900        0.43020
S          1.42670        0.29020       -0.28980
C         -1.95920        3.03770        2.87340
C         -1.83540        2.86430        4.24020
C         -2.67840        3.70460        4.96260
S         -2.78620        3.79690        6.69750
C         -1.38150        2.75750        7.24680
C         -1.15690        2.98690        8.72900
C         -3.50190        4.51770        4.15240
S         -3.15540        4.22820        2.46450
C         -4.45710        5.38930        4.66920
C         -5.39260        6.16610        4.02100
C         -5.57690        6.25370        2.57280
O         -4.87830        5.76510        1.69760
C         -6.77570        7.08280        2.36020
C         -7.40960        7.41200        1.17760
C         -8.53850        8.21410        1.23240
C         -9.00430        8.66570        2.46120
Cl       -10.40790        9.66390        2.51050
C         -8.37910        8.33390        3.66030
C         -7.25400        7.53040        3.60410
C         -6.39450        6.98890        4.66120
C         -6.54240        7.24220        6.00110
C         -5.72700        6.73970        7.03700
N         -5.11950        6.38410        7.94510
C         -7.54700        8.07090        6.54340
N         -8.33530        8.72880        7.05750
H          2.08300       -2.86810       -6.48350
H          2.45660       -6.82180       -1.60670
H          2.32710       -8.41530       -6.41450
H          3.38560      -10.93570       -4.34010
H          1.14120      -11.87050       -4.87520
H         -0.57250       -9.91900       -4.57300
H         -0.49430       -9.12840       -2.03850
H          1.27000      -10.59180       -0.77830
H          2.17280      -12.48550       -2.46530
H          0.39230      -12.48400       -2.41000
H          3.46230      -10.16050       -1.87770
H          1.84990       -0.46730       -6.26380
H          2.02800        3.94450       -3.77360
H          1.63760        2.73510       -2.53090
H          4.12240        3.05760       -2.74100
H          4.02770        2.58960       -4.44430
H          3.65370        1.41260       -3.17980
H         -0.75720        3.78210       -2.25060
H         -2.27740        5.67820       -2.10970
H         -4.27440        6.43640       -0.54620
H         -3.54930        7.45600       -1.83790
H         -5.20460        7.76110       -1.29260
H         -5.45710        3.24060       -3.60110
H         -3.92870        1.30940       -3.69920
H         -1.42470       -1.28870       -2.27780
H         -1.35160       -3.15070       -3.88090
H         -0.45690       -1.94090       -8.46750
H         -2.24490       -2.13220       -8.50860
H         -1.17900       -3.47250       -8.98940
H         -1.65220       -0.36620       -7.11320
H         -1.70930        1.47910       -5.52070
H         -0.60160       -0.93530        2.38560
H          0.36870       -3.17560        1.97760
H          3.16830       -3.60580       -0.48930
H          4.55580       -4.56550        0.07990
H          4.49620       -2.81820        0.41300
H          4.28000       -1.58850        2.59860
H          3.32020        0.64910        2.99550
H          0.73980        3.95470        2.66140
H          1.37530        5.48020        4.47650
H          3.22230        4.84940        9.21500
H          2.14120        3.48660        8.85900
H          3.78170        3.55500        8.13370
H          2.31640        2.12790        6.96140
H          1.64430        0.61720        5.18120
H         -1.18900        2.13210        4.68340
H         -0.50870        3.05430        6.66750
H         -1.63250        1.71630        7.04220
H         -2.05730        2.75820        9.29380
H         -0.88900        4.02430        8.91470
H         -0.35330        2.34360        9.08230
H         -4.46760        5.41680        5.75290
H         -7.03520        7.03850        0.23740
H         -9.06110        8.48930        0.33010
H         -8.78040        8.69960        4.59070
