198

C         -0.62260       -7.02110       -5.55820
C         -0.01820       -6.87040       -6.78020
C          0.23100       -5.57210       -7.44170
O         -0.17650       -4.47110       -7.12660
C          1.20440       -5.85410       -8.51570
C          1.80520       -4.92170       -9.35600
C          2.74090       -5.45720      -10.20680
C          3.05480       -6.82210      -10.22730
C          2.46320       -7.75420       -9.40830
C          1.51340       -7.22760       -8.52810
C          0.73070       -7.88500       -7.48480
C          0.67730       -9.23690       -7.25080
C         -0.14890       -9.85110       -6.28750
N         -0.80050      -10.42830       -5.53770
C          1.42550      -10.19830       -7.95740
N          2.01700      -11.03110       -8.48340
C          4.11380       -6.64400      -11.28780
C          5.59480       -6.66710      -10.83280
C          5.60440       -6.22850       -9.38980
C          5.30130       -4.93780       -9.35530
C          5.09000       -4.47860      -10.77740
C          6.09700       -5.38110      -11.50800
C          3.76610       -5.12220      -11.25960
C         -1.40420       -6.04480       -4.91980
S         -1.30010       -5.86520       -3.19030
C         -2.10970       -4.33950       -3.26990
C         -2.58550       -4.06470       -4.54890
C         -2.22060       -5.05760       -5.49010
O         -2.57250       -5.24220       -6.77370
C         -3.54480       -4.43530       -7.39550
C         -3.36060       -2.94140       -7.16100
C         -3.94540       -2.52310       -5.81660
O         -3.12290       -2.82580       -4.71710
C         -2.24430       -3.45470       -2.15380
C         -1.26710       -3.10390       -1.24710
N          0.02460       -3.57500       -1.15210
C          0.78360       -3.93400       -2.27080
C          1.67020       -5.00560       -2.20220
C          2.38920       -5.39310       -3.31510
C          2.22380       -4.71920       -4.51750
S          3.08930       -5.14370       -5.99860
C          3.59540       -6.86430       -5.71410
C          1.36030       -3.62830       -4.58410
C          0.65160       -3.23410       -3.47140
C          0.58810       -3.57120        0.13560
C          1.91870       -3.22790        0.34720
C          2.44290       -3.20450        1.62660
C          1.63620       -3.50440        2.71790
S          2.18590       -3.49450        4.39250
C          3.85160       -2.78410        4.29620
C          0.30420       -3.85630        2.50710
C         -0.21190       -3.89820        1.23270
C         -1.64440       -2.04130       -0.41930
S         -3.94700       -0.78370       -2.29230
C         -3.01920        0.08080        0.16210
C         -4.04830        0.16560       -0.75070
N         -5.14220        0.98350       -0.69520
C         -5.64420        1.50330       -1.90610
C         -7.00390        1.43750       -2.20500
C         -7.47040        1.93490       -3.40040
C         -6.59230        2.50300       -4.32350
S         -7.30870        3.09360       -5.82220
C         -5.88440        3.64220       -6.80520
C         -5.23840        2.57630       -4.02330
C         -4.77150        2.08280       -2.82100
C         -5.86110        1.19900        0.48730
C         -6.55660        2.39710        0.66330
C         -7.23020        2.64070        1.83770
C         -7.22080        1.70030        2.86390
S         -8.06400        2.11090        4.36190
C         -7.06740        1.25160        5.61270
C         -6.57300        0.48790        2.67580
C         -5.89960        0.23800        1.49610
C         -2.17280       -1.00500       -0.07990
S         -3.88830       -2.81130       -1.90740
C         -2.60800        0.95960        1.22730
C         -1.29410        1.05680        1.60090
C         -1.04860        1.99030        2.63100
C          0.18580        2.35230        3.20540
C          1.46300        1.84670        2.73810
C          2.58240        2.60880        2.55480
C          3.73560        1.93020        2.11740
C          3.58230        0.58550        1.96280
S          4.79530       -0.57100        1.44140
C          6.34070        0.16910        2.08390
C          6.35460        0.26220        3.59610
Se         1.83170        0.02890        2.36780
C          0.13510        3.28420        4.23960
C         -1.07890        3.83650        4.72890
C         -2.31840        3.49290        4.13400
C         -3.59040        3.98190        4.61620
C         -4.68100        4.32490        3.86380
C         -5.85410        4.64670        4.57330
C         -5.74890        4.53980        5.92970
S         -6.95650        4.76360        7.17060
C         -8.36760        5.47290        6.25460
C         -8.12960        6.91940        5.86800
Se        -4.02410        4.03520        6.46390
C         -2.24870        2.60440        3.06980
S         -3.61990        2.04340        2.14770
C         -0.84280        4.74370        5.77110
C          0.49140        4.89490        6.10470
S          1.51770        3.88370        5.11070
C          0.90900        5.80270        7.09900
C          2.16370        6.14670        7.51790
C          3.43480        5.60710        7.00450
O          3.59410        4.72260        6.18410
C          4.50440        6.35510        7.68530
C          5.87640        6.21610        7.48490
C          6.64110        7.06540        8.24690
C          6.08150        7.98680        9.14250
C          4.73060        8.13310        9.34980
C          3.93210        7.27580        8.58520
C          2.47710        7.14880        8.52200
C          1.58920        7.85730        9.28990
C          1.95740        8.81350       10.26000
N          2.17630        9.60180       11.06570
C          0.18290        7.74980        9.24810
N         -0.96540        7.73580        9.28610
C          7.42970        8.51400        9.56690
C          7.96180        8.03060       10.93250
C          9.44660        8.30460       10.85900
C          9.97670        7.43200       10.01160
C          8.85890        6.55340        9.49780
C          7.96490        6.50810       10.74360
C          8.05340        7.48630        8.56870
H         -0.40410       -7.90620       -4.97190
H          1.54570       -3.87630       -9.30030
H          2.72260       -8.80000       -9.42460
H          3.95640       -7.18560      -12.21840
H          6.12220       -7.59020      -11.05870
H          5.77120       -6.89440       -8.56320
H          5.15010       -4.31520       -8.49300
H          5.16020       -3.40780      -10.95020
H          7.13110       -5.14950      -11.25650
H          5.97300       -5.38210      -12.59020
H          3.39150       -4.66660      -12.17430
H         -4.54760       -4.74540       -7.05960
H         -3.44320       -4.67640       -8.45700
H         -2.29360       -2.70880       -7.19270
H         -3.86670       -2.39100       -7.95400
H         -4.06160       -1.43750       -5.75810
H         -4.93600       -2.98500       -5.68030
H          1.78050       -5.54680       -1.27480
H          3.06740       -6.22730       -3.23530
H          3.89020       -7.24670       -6.68680
H          2.75240       -7.43140       -5.33010
H          4.43870       -6.90480       -5.03090
H          1.24320       -3.10560       -5.51990
H         -0.01610       -2.38730       -3.52860
H          2.55010       -2.97270       -0.49070
H          3.48210       -2.94990        1.75160
H          4.51870       -3.45800        3.76640
H          3.80010       -1.81510        3.80810
H          4.18100       -2.66760        5.32420
H         -0.31490       -4.10480        3.35540
H         -1.23920       -4.19410        1.07980
H         -7.68600        0.98510       -1.50110
H         -8.52070        1.87990       -3.64200
H         -5.39340        4.47950       -6.31770
H         -5.19870        2.81390       -6.95690
H         -6.29420        3.96160       -7.75830
H         -4.53650        3.01900       -4.71080
H         -3.71900        2.14330       -2.58750
H         -6.54160        3.14310       -0.11660
H         -7.75940        3.57040        1.97730
H         -6.01530        1.40170        5.38700
H         -7.31460        1.71250        6.56420
H         -7.31760        0.19520        5.63970
H         -6.58700       -0.26970        3.44320
H         -5.39930       -0.70880        1.35530
H         -0.52300        0.47940        1.11820
H          2.58090        3.67650        2.69000
H          4.65730        2.44920        1.91880
H          6.47030        1.14190        1.61170
H          7.11670       -0.50460        1.72120
H          7.29680        0.69420        3.92680
H          6.24990       -0.72580        4.03930
H          5.54200        0.89230        3.95290
H         -4.64500        4.38600        2.78900
H         -6.75870        4.93130        4.06740
H         -9.20010        5.38720        6.95260
H         -8.56060        4.83030        5.39660
H         -7.26130        7.01250        5.21940
H         -9.00010        7.30760        5.34300
H         -7.95990        7.52460        6.75570
H         -1.61540        5.31300        6.26140
H          0.07780        6.31130        7.57250
H          6.26190        5.49700        6.77910
H          4.31960        8.85290       10.03720
H          7.59880        9.57540        9.39570
H          7.43210        8.42830       11.79360
H          9.93330        9.11380       11.37110
H         10.99460        7.36670        9.67430
H          9.14730        5.60490        9.05260
H          8.44270        5.99150       11.57440
H          6.97950        6.08060       10.56760
H          8.63890        7.86280        7.73180
