
  xtb     02072215513D
 energy: -348.105758270429 gnorm: 0.000233832567 xtb: 6.4.1 (unknown)
219242  0     0  0            999 V2000
   -0.3839   10.4200    2.6597 C   0  0  0  0  0  0  0  0  0  0  0  0
   -0.8330   10.8933    3.8597 C   0  0  0  0  0  0  0  0  0  0  0  0
   -1.9492   10.3458    4.6522 C   0  0  0  0  0  0  0  0  0  0  0  0
   -2.7678    9.5143    4.3115 O   0  0  0  0  0  0  0  0  0  0  0  0
   -1.8806   11.0097    5.9657 C   0  0  0  0  0  0  0  0  0  0  0  0
   -2.6835   10.7507    7.0746 C   0  0  0  0  0  0  0  0  0  0  0  0
   -2.3632   11.4976    8.1823 C   0  0  0  0  0  0  0  0  0  0  0  0
   -1.3250   12.4391    8.1851 C   0  0  0  0  0  0  0  0  0  0  0  0
   -0.5343   12.7130    7.0948 C   0  0  0  0  0  0  0  0  0  0  0  0
   -0.8390   11.9587    5.9567 C   0  0  0  0  0  0  0  0  0  0  0  0
   -0.2100   11.9495    4.6377 C   0  0  0  0  0  0  0  0  0  0  0  0
    0.7756   12.8082    4.2237 C   0  0  0  0  0  0  0  0  0  0  0  0
    1.3360   13.8260    5.0237 C   0  0  0  0  0  0  0  0  0  0  0  0
    1.8410   14.6725    5.6129 N   0  0  0  0  0  0  0  0  0  0  0  0
    1.3668   12.8293    2.9430 C   0  0  0  0  0  0  0  0  0  0  0  0
    1.9014   12.9229    1.9302 N   0  0  0  0  0  0  0  0  0  0  0  0
   -1.5470   12.7981    9.6335 C   0  0  0  0  0  0  0  0  0  0  0  0
   -0.5495   12.2024   10.6498 C   0  0  0  0  0  0  0  0  0  0  0  0
   -1.2721   12.3117   11.9730 C   0  0  0  0  0  0  0  0  0  0  0  0
   -2.2559   11.4213   11.9704 C   0  0  0  0  0  0  0  0  0  0  0  0
   -2.2146   10.6951   10.6452 C   0  0  0  0  0  0  0  0  0  0  0  0
   -0.7017   10.6979   10.3904 C   0  0  0  0  0  0  0  0  0  0  0  0
   -2.7051   11.7494    9.6298 C   0  0  0  0  0  0  0  0  0  0  0  0
   -0.8296    9.3331    1.8787 C   0  0  0  0  0  0  0  0  0  0  0  0
   -0.0997    8.8785    0.7945 C   0  0  0  0  0  0  0  0  0  0  0  0
   -0.6213    7.7220    0.1966 C   0  0  0  0  0  0  0  0  0  0  0  0
   -0.0680    6.9614   -0.8578 C   0  0  0  0  0  0  0  0  0  0  0  0
    1.2366    7.2745   -1.4524 C   0  0  0  0  0  0  0  0  0  0  0  0
    1.3896    7.3231   -2.8355 C   0  0  0  0  0  0  0  0  0  0  0  0
    2.6242    7.5861   -3.3948 C   0  0  0  0  0  0  0  0  0  0  0  0
    3.7405    7.7968   -2.5944 C   0  0  0  0  0  0  0  0  0  0  0  0
    5.0694    8.1336   -3.2075 C   0  0  0  0  0  0  0  0  0  0  0  0
    5.1785    9.6422   -3.4399 C   0  0  0  0  0  0  0  0  0  0  0  0
    3.5879    7.7350   -1.2146 C   0  0  0  0  0  0  0  0  0  0  0  0
    2.3551    7.4778   -0.6480 C   0  0  0  0  0  0  0  0  0  0  0  0
   -0.7782    5.8410   -1.2392 C   0  0  0  0  0  0  0  0  0  0  0  0
   -2.0011    5.4492   -0.6343 C   0  0  0  0  0  0  0  0  0  0  0  0
   -2.5586    6.2145    0.4022 C   0  0  0  0  0  0  0  0  0  0  0  0
   -3.8079    5.7689    1.0350 C   0  0  0  0  0  0  0  0  0  0  0  0
   -3.8804    5.5400    2.4051 C   0  0  0  0  0  0  0  0  0  0  0  0
   -5.0265    5.0061    2.9624 C   0  0  0  0  0  0  0  0  0  0  0  0
   -6.1308    4.7032    2.1757 C   0  0  0  0  0  0  0  0  0  0  0  0
   -7.3303    4.0163    2.7615 C   0  0  0  0  0  0  0  0  0  0  0  0
   -7.1579    2.4981    2.6635 C   0  0  0  0  0  0  0  0  0  0  0  0
   -6.0725    4.9838    0.8162 C   0  0  0  0  0  0  0  0  0  0  0  0
   -4.9263    5.5037    0.2488 C   0  0  0  0  0  0  0  0  0  0  0  0
   -1.8392    7.3248    0.8162 C   0  0  0  0  0  0  0  0  0  0  0  0
   -2.2599    8.3568    2.1536 S   0  0  0  0  0  0  0  0  0  0  0  0
   -2.4199    4.1663   -1.0606 C   0  0  0  0  0  0  0  0  0  0  0  0
   -1.5529    3.5707   -1.9321 C   0  0  0  0  0  0  0  0  0  0  0  0
   -0.2192    4.6264   -2.3653 S   0  0  0  0  0  0  0  0  0  0  0  0
   -1.4850    2.1913   -2.2785 C   0  0  0  0  0  0  0  0  0  0  0  0
   -2.4538    1.2074   -2.1316 C   0  0  0  0  0  0  0  0  0  0  0  0
   -3.8097    1.4549   -1.9927 N   0  0  0  0  0  0  0  0  0  0  0  0
   -4.5406    0.7402   -1.0355 C   0  0  0  0  0  0  0  0  0  0  0  0
   -5.8572    0.3498   -1.2852 C   0  0  0  0  0  0  0  0  0  0  0  0
   -6.5763   -0.3163   -0.3202 C   0  0  0  0  0  0  0  0  0  0  0  0
   -5.9989   -0.6212    0.9121 C   0  0  0  0  0  0  0  0  0  0  0  0
   -7.0346   -1.4518    2.0750 S   0  0  0  0  0  0  0  0  0  0  0  0
   -6.0079   -1.5761    3.5665 C   0  0  0  0  0  0  0  0  0  0  0  0
   -4.6809   -0.2616    1.1534 C   0  0  0  0  0  0  0  0  0  0  0  0
   -3.9619    0.4172    0.1883 C   0  0  0  0  0  0  0  0  0  0  0  0
   -4.4178    2.4476   -2.7712 C   0  0  0  0  0  0  0  0  0  0  0  0
   -5.4848    3.1928   -2.2676 C   0  0  0  0  0  0  0  0  0  0  0  0
   -6.0739    4.1716   -3.0348 C   0  0  0  0  0  0  0  0  0  0  0  0
   -5.6102    4.4415   -4.3208 C   0  0  0  0  0  0  0  0  0  0  0  0
   -6.4403    5.7279   -5.2000 S   0  0  0  0  0  0  0  0  0  0  0  0
   -5.6474    5.7274   -6.8325 C   0  0  0  0  0  0  0  0  0  0  0  0
   -4.5474    3.7052   -4.8257 C   0  0  0  0  0  0  0  0  0  0  0  0
   -3.9630    2.7165   -4.0590 C   0  0  0  0  0  0  0  0  0  0  0  0
   -1.8687   -0.0835   -2.1712 C   0  0  0  0  0  0  0  0  0  0  0  0
   -2.4589   -1.6980   -1.9836 S   0  0  0  0  0  0  0  0  0  0  0  0
   -0.8206   -2.3367   -2.1115 C   0  0  0  0  0  0  0  0  0  0  0  0
    0.1167   -1.3487   -2.3439 C   0  0  0  0  0  0  0  0  0  0  0  0
    1.4869   -1.5174   -2.4776 N   0  0  0  0  0  0  0  0  0  0  0  0
    2.0325   -2.6461   -3.1099 C   0  0  0  0  0  0  0  0  0  0  0  0
    1.4773   -3.1462   -4.2854 C   0  0  0  0  0  0  0  0  0  0  0  0
    1.9571   -4.3131   -4.8397 C   0  0  0  0  0  0  0  0  0  0  0  0
    3.0051   -5.0030   -4.2365 C   0  0  0  0  0  0  0  0  0  0  0  0
    3.4684   -6.5414   -4.9709 S   0  0  0  0  0  0  0  0  0  0  0  0
    4.4830   -7.3397   -3.6966 C   0  0  0  0  0  0  0  0  0  0  0  0
    3.6224   -4.4566   -3.1178 C   0  0  0  0  0  0  0  0  0  0  0  0
    3.1414   -3.2865   -2.5633 C   0  0  0  0  0  0  0  0  0  0  0  0
    2.3199   -0.4537   -2.0879 C   0  0  0  0  0  0  0  0  0  0  0  0
    3.3396   -0.0086   -2.9253 C   0  0  0  0  0  0  0  0  0  0  0  0
    4.0584    1.1262   -2.6073 C   0  0  0  0  0  0  0  0  0  0  0  0
    3.7731    1.8314   -1.4447 C   0  0  0  0  0  0  0  0  0  0  0  0
    4.5736    3.3573   -1.0354 S   0  0  0  0  0  0  0  0  0  0  0  0
    4.7001    4.1453   -2.6695 C   0  0  0  0  0  0  0  0  0  0  0  0
    2.8176    1.3421   -0.5629 C   0  0  0  0  0  0  0  0  0  0  0  0
    2.0964    0.2120   -0.8813 C   0  0  0  0  0  0  0  0  0  0  0  0
   -0.4989   -0.0708   -2.3733 C   0  0  0  0  0  0  0  0  0  0  0  0
    0.1031    1.5296   -2.6099 S   0  0  0  0  0  0  0  0  0  0  0  0
   -0.5785   -3.7606   -2.0429 C   0  0  0  0  0  0  0  0  0  0  0  0
   -0.0125   -4.4718   -1.0031 C   0  0  0  0  0  0  0  0  0  0  0  0
    0.1902   -3.8816    0.3616 C   0  0  0  0  0  0  0  0  0  0  0  0
    1.5386   -3.1895    0.5507 C   0  0  0  0  0  0  0  0  0  0  0  0
    0.2478   -5.8014   -1.3799 C   0  0  0  0  0  0  0  0  0  0  0  0
   -0.1573   -6.0774   -2.6799 C   0  0  0  0  0  0  0  0  0  0  0  0
   -0.9206   -4.7517   -3.4468 S   0  0  0  0  0  0  0  0  0  0  0  0
    0.2445   -7.3835   -3.0336 C   0  0  0  0  0  0  0  0  0  0  0  0
    0.9037   -7.9644   -1.9414 C   0  0  0  0  0  0  0  0  0  0  0  0
    0.8936   -7.0281   -0.7530 C   0  0  0  0  0  0  0  0  0  0  0  0
   -0.0073   -7.5451    0.3990 C   0  0  0  0  0  0  0  0  0  0  0  0
   -0.0751   -9.0599    0.5551 C   0  0  0  0  0  0  0  0  0  0  0  0
    2.3135   -6.6622   -0.2783 C   0  0  0  0  0  0  0  0  0  0  0  0
    3.2042   -7.8170    0.1618 C   0  0  0  0  0  0  0  0  0  0  0  0
    1.4224   -9.2088   -2.2448 C   0  0  0  0  0  0  0  0  0  0  0  0
    1.1862   -9.5839   -3.5655 C   0  0  0  0  0  0  0  0  0  0  0  0
    0.2314   -8.3729   -4.4201 S   0  0  0  0  0  0  0  0  0  0  0  0
    1.5566  -10.7474   -4.2569 C   0  0  0  0  0  0  0  0  0  0  0  0
    2.5638  -11.6291   -3.9516 C   0  0  0  0  0  0  0  0  0  0  0  0
    3.7211  -11.3724   -3.0702 C   0  0  0  0  0  0  0  0  0  0  0  0
    3.9269  -10.4174   -2.3430 O   0  0  0  0  0  0  0  0  0  0  0  0
    4.6630  -12.4816   -3.3087 C   0  0  0  0  0  0  0  0  0  0  0  0
    5.9175  -12.6462   -2.7248 C   0  0  0  0  0  0  0  0  0  0  0  0
    6.5786  -13.7799   -3.1310 C   0  0  0  0  0  0  0  0  0  0  0  0
    6.0375  -14.6790   -4.0595 C   0  0  0  0  0  0  0  0  0  0  0  0
    4.8049  -14.5243   -4.6486 C   0  0  0  0  0  0  0  0  0  0  0  0
    4.1110  -13.3811   -4.2410 C   0  0  0  0  0  0  0  0  0  0  0  0
    2.7897  -12.8909   -4.6255 C   0  0  0  0  0  0  0  0  0  0  0  0
    1.8869  -13.5632   -5.4097 C   0  0  0  0  0  0  0  0  0  0  0  0
    0.5669  -13.1386   -5.6696 C   0  0  0  0  0  0  0  0  0  0  0  0
   -0.5279  -12.8805   -5.9030 N   0  0  0  0  0  0  0  0  0  0  0  0
    2.1375  -14.8043   -6.0290 C   0  0  0  0  0  0  0  0  0  0  0  0
    2.2764  -15.8105   -6.5649 N   0  0  0  0  0  0  0  0  0  0  0  0
    7.2393  -15.5889   -3.9987 C   0  0  0  0  0  0  0  0  0  0  0  0
    7.0817  -16.8829   -3.1726 C   0  0  0  0  0  0  0  0  0  0  0  0
    8.5048  -17.3101   -2.8945 C   0  0  0  0  0  0  0  0  0  0  0  0
    9.0167  -16.4598   -2.0138 C   0  0  0  0  0  0  0  0  0  0  0  0
    7.9480  -15.4434   -1.6821 C   0  0  0  0  0  0  0  0  0  0  0  0
    6.6993  -16.3275   -1.7945 C   0  0  0  0  0  0  0  0  0  0  0  0
    7.8417  -14.5872   -2.9619 C   0  0  0  0  0  0  0  0  0  0  0  0
    0.4976   10.8959    2.2459 H   0  0  0  0  0  0  0  0  0  0  0  0
   -3.4726   10.0167    7.0266 H   0  0  0  0  0  0  0  0  0  0  0  0
    0.2593   13.4409    7.1150 H   0  0  0  0  0  0  0  0  0  0  0  0
   -1.7873   13.8403    9.8338 H   0  0  0  0  0  0  0  0  0  0  0  0
    0.4523   12.6205   10.6029 H   0  0  0  0  0  0  0  0  0  0  0  0
   -1.0360   13.0393   12.7271 H   0  0  0  0  0  0  0  0  0  0  0  0
   -3.0058   11.2565   12.7217 H   0  0  0  0  0  0  0  0  0  0  0  0
   -2.7296    9.7395   10.5946 H   0  0  0  0  0  0  0  0  0  0  0  0
   -0.1605   10.0979   11.1203 H   0  0  0  0  0  0  0  0  0  0  0  0
   -0.4199   10.3895    9.3853 H   0  0  0  0  0  0  0  0  0  0  0  0
   -3.7190   12.0919    9.8277 H   0  0  0  0  0  0  0  0  0  0  0  0
    0.7958    9.3711    0.4581 H   0  0  0  0  0  0  0  0  0  0  0  0
    0.5298    7.1728   -3.4719 H   0  0  0  0  0  0  0  0  0  0  0  0
    2.7253    7.6277   -4.4702 H   0  0  0  0  0  0  0  0  0  0  0  0
    5.8776    7.8141   -2.5458 H   0  0  0  0  0  0  0  0  0  0  0  0
    5.1811    7.6139   -4.1621 H   0  0  0  0  0  0  0  0  0  0  0  0
    6.1422    9.8909   -3.8780 H   0  0  0  0  0  0  0  0  0  0  0  0
    4.3930    9.9791   -4.1125 H   0  0  0  0  0  0  0  0  0  0  0  0
    5.0754   10.1777   -2.4990 H   0  0  0  0  0  0  0  0  0  0  0  0
    4.4471    7.8836   -0.5760 H   0  0  0  0  0  0  0  0  0  0  0  0
    2.2605    7.4042    0.4255 H   0  0  0  0  0  0  0  0  0  0  0  0
   -3.0253    5.7529    3.0290 H   0  0  0  0  0  0  0  0  0  0  0  0
   -5.0613    4.8128    4.0252 H   0  0  0  0  0  0  0  0  0  0  0  0
   -8.2319    4.3114    2.2215 H   0  0  0  0  0  0  0  0  0  0  0  0
   -7.4497    4.2993    3.8091 H   0  0  0  0  0  0  0  0  0  0  0  0
   -8.0167    1.9846    3.0892 H   0  0  0  0  0  0  0  0  0  0  0  0
   -7.0527    2.1910    1.6246 H   0  0  0  0  0  0  0  0  0  0  0  0
   -6.2632    2.1868    3.1994 H   0  0  0  0  0  0  0  0  0  0  0  0
   -6.9350    4.7851    0.1955 H   0  0  0  0  0  0  0  0  0  0  0  0
   -4.8914    5.7093   -0.8116 H   0  0  0  0  0  0  0  0  0  0  0  0
   -3.2746    3.6686   -0.6425 H   0  0  0  0  0  0  0  0  0  0  0  0
   -6.3092    0.5768   -2.2388 H   0  0  0  0  0  0  0  0  0  0  0  0
   -7.5967   -0.6131   -0.5080 H   0  0  0  0  0  0  0  0  0  0  0  0
   -5.1389   -2.1980    3.3715 H   0  0  0  0  0  0  0  0  0  0  0  0
   -6.6368   -2.0481    4.3148 H   0  0  0  0  0  0  0  0  0  0  0  0
   -5.7191   -0.5837    3.8998 H   0  0  0  0  0  0  0  0  0  0  0  0
   -4.2022   -0.4899    2.0919 H   0  0  0  0  0  0  0  0  0  0  0  0
   -2.9433    0.7153    0.3915 H   0  0  0  0  0  0  0  0  0  0  0  0
   -5.8434    3.0040   -1.2673 H   0  0  0  0  0  0  0  0  0  0  0  0
   -6.8981    4.7489   -2.6444 H   0  0  0  0  0  0  0  0  0  0  0  0
   -5.7740    4.7580   -7.3056 H   0  0  0  0  0  0  0  0  0  0  0  0
   -6.1654    6.4886   -7.4077 H   0  0  0  0  0  0  0  0  0  0  0  0
   -4.5974    5.9887   -6.7380 H   0  0  0  0  0  0  0  0  0  0  0  0
   -4.1657    3.8840   -5.8178 H   0  0  0  0  0  0  0  0  0  0  0  0
   -3.1446    2.1442   -4.4696 H   0  0  0  0  0  0  0  0  0  0  0  0
    0.6541   -2.6233   -4.7495 H   0  0  0  0  0  0  0  0  0  0  0  0
    1.5099   -4.7154   -5.7356 H   0  0  0  0  0  0  0  0  0  0  0  0
    4.6135   -8.3677   -4.0193 H   0  0  0  0  0  0  0  0  0  0  0  0
    5.4509   -6.8524   -3.6206 H   0  0  0  0  0  0  0  0  0  0  0  0
    3.9556   -7.3284   -2.7490 H   0  0  0  0  0  0  0  0  0  0  0  0
    4.4766   -4.9378   -2.6677 H   0  0  0  0  0  0  0  0  0  0  0  0
    3.6214   -2.8683   -1.6911 H   0  0  0  0  0  0  0  0  0  0  0  0
    3.5431   -0.5406   -3.8430 H   0  0  0  0  0  0  0  0  0  0  0  0
    4.8262    1.4722   -3.2814 H   0  0  0  0  0  0  0  0  0  0  0  0
    5.5540    3.7567   -3.2168 H   0  0  0  0  0  0  0  0  0  0  0  0
    3.7750    3.9777   -3.2120 H   0  0  0  0  0  0  0  0  0  0  0  0
    4.8303    5.2063   -2.4821 H   0  0  0  0  0  0  0  0  0  0  0  0
    2.6249    1.8731    0.3562 H   0  0  0  0  0  0  0  0  0  0  0  0
    1.3218   -0.1325   -0.2118 H   0  0  0  0  0  0  0  0  0  0  0  0
   -0.6040   -3.1518    0.5391 H   0  0  0  0  0  0  0  0  0  0  0  0
    0.0852   -4.6791    1.0992 H   0  0  0  0  0  0  0  0  0  0  0  0
    1.6179   -2.8061    1.5658 H   0  0  0  0  0  0  0  0  0  0  0  0
    1.6373   -2.3611   -0.1402 H   0  0  0  0  0  0  0  0  0  0  0  0
    2.3613   -3.8761    0.3750 H   0  0  0  0  0  0  0  0  0  0  0  0
    0.3466   -7.1051    1.3334 H   0  0  0  0  0  0  0  0  0  0  0  0
   -1.0229   -7.1796    0.2267 H   0  0  0  0  0  0  0  0  0  0  0  0
    0.9089   -9.4934    0.7020 H   0  0  0  0  0  0  0  0  0  0  0  0
   -0.5285   -9.5201   -0.3189 H   0  0  0  0  0  0  0  0  0  0  0  0
   -0.6872   -9.3024    1.4216 H   0  0  0  0  0  0  0  0  0  0  0  0
    2.8020   -6.1182   -1.0919 H   0  0  0  0  0  0  0  0  0  0  0  0
    2.2079   -5.9728    0.5605 H   0  0  0  0  0  0  0  0  0  0  0  0
    2.7614   -8.3563    0.9943 H   0  0  0  0  0  0  0  0  0  0  0  0
    3.3989   -8.5125   -0.6486 H   0  0  0  0  0  0  0  0  0  0  0  0
    4.1605   -7.4176    0.4958 H   0  0  0  0  0  0  0  0  0  0  0  0
    1.9349   -9.8559   -1.5615 H   0  0  0  0  0  0  0  0  0  0  0  0
    0.9914  -10.9351   -5.1623 H   0  0  0  0  0  0  0  0  0  0  0  0
    6.2986  -11.9251   -2.0183 H   0  0  0  0  0  0  0  0  0  0  0  0
    4.4076  -15.2189   -5.3696 H   0  0  0  0  0  0  0  0  0  0  0  0
    7.7652  -15.7451   -4.9386 H   0  0  0  0  0  0  0  0  0  0  0  0
    6.4240  -17.6269   -3.6135 H   0  0  0  0  0  0  0  0  0  0  0  0
    8.9944  -18.1264   -3.3924 H   0  0  0  0  0  0  0  0  0  0  0  0
   10.0191  -16.4238   -1.6292 H   0  0  0  0  0  0  0  0  0  0  0  0
    8.0801  -14.8766   -0.7641 H   0  0  0  0  0  0  0  0  0  0  0  0
    5.7616  -15.7749   -1.7835 H   0  0  0  0  0  0  0  0  0  0  0  0
    6.6739  -17.1030   -1.0308 H   0  0  0  0  0  0  0  0  0  0  0  0
    8.7700  -14.0757   -3.2102 H   0  0  0  0  0  0  0  0  0  0  0  0
  1  2  2  0  0  0  0
  2  3  1  0  0  0  0
  3  4  2  0  0  0  0
  3  5  1  0  0  0  0
  5  6  2  0  0  0  0
  6  7  1  0  0  0  0
  7  8  2  0  0  0  0
  8  9  1  0  0  0  0
  9 10  2  0  0  0  0
 10 11  1  0  0  0  0
 11 12  2  0  0  0  0
 12 13  1  0  0  0  0
 13 14  3  0  0  0  0
 12 15  1  0  0  0  0
 15 16  3  0  0  0  0
  8 17  1  0  0  0  0
 17 18  1  0  0  0  0
 18 19  1  0  0  0  0
 19 20  2  0  0  0  0
 20 21  1  0  0  0  0
 21 22  1  0  0  0  0
 21 23  1  0  0  0  0
  1 24  1  0  0  0  0
 24 25  2  0  0  0  0
 25 26  1  0  0  0  0
 26 27  2  0  0  0  0
 27 28  1  0  0  0  0
 28 29  2  0  0  0  0
 29 30  1  0  0  0  0
 30 31  2  0  0  0  0
 31 32  1  0  0  0  0
 32 33  1  0  0  0  0
 31 34  1  0  0  0  0
 34 35  2  0  0  0  0
 27 36  1  0  0  0  0
 36 37  2  0  0  0  0
 37 38  1  0  0  0  0
 38 39  1  0  0  0  0
 39 40  2  0  0  0  0
 40 41  1  0  0  0  0
 41 42  2  0  0  0  0
 42 43  1  0  0  0  0
 43 44  1  0  0  0  0
 42 45  1  0  0  0  0
 45 46  2  0  0  0  0
 38 47  2  0  0  0  0
 47 48  1  0  0  0  0
 37 49  1  0  0  0  0
 49 50  2  0  0  0  0
 50 51  1  0  0  0  0
 50 52  1  0  0  0  0
 52 53  2  0  0  0  0
 53 54  1  0  0  0  0
 54 55  1  0  0  0  0
 55 56  2  0  0  0  0
 56 57  1  0  0  0  0
 57 58  2  0  0  0  0
 58 59  1  0  0  0  0
 59 60  1  0  0  0  0
 58 61  1  0  0  0  0
 61 62  2  0  0  0  0
 54 63  1  0  0  0  0
 63 64  2  0  0  0  0
 64 65  1  0  0  0  0
 65 66  2  0  0  0  0
 66 67  1  0  0  0  0
 67 68  1  0  0  0  0
 66 69  1  0  0  0  0
 69 70  2  0  0  0  0
 53 71  1  0  0  0  0
 71 72  1  0  0  0  0
 72 73  1  0  0  0  0
 73 74  2  0  0  0  0
 74 75  1  0  0  0  0
 75 76  1  0  0  0  0
 76 77  2  0  0  0  0
 77 78  1  0  0  0  0
 78 79  2  0  0  0  0
 79 80  1  0  0  0  0
 80 81  1  0  0  0  0
 79 82  1  0  0  0  0
 82 83  2  0  0  0  0
 75 84  1  0  0  0  0
 84 85  2  0  0  0  0
 85 86  1  0  0  0  0
 86 87  2  0  0  0  0
 87 88  1  0  0  0  0
 88 89  1  0  0  0  0
 87 90  1  0  0  0  0
 90 91  2  0  0  0  0
 74 92  1  0  0  0  0
 92 93  1  0  0  0  0
 73 94  1  0  0  0  0
 94 95  2  0  0  0  0
 95 96  1  0  0  0  0
 96 97  1  0  0  0  0
 95 98  1  0  0  0  0
 98 99  2  0  0  0  0
 99100  1  0  0  0  0
 99101  1  0  0  0  0
101102  2  0  0  0  0
102103  1  0  0  0  0
103104  1  0  0  0  0
104105  1  0  0  0  0
103106  1  0  0  0  0
106107  1  0  0  0  0
102108  1  0  0  0  0
108109  2  0  0  0  0
109110  1  0  0  0  0
109111  1  0  0  0  0
111112  2  0  0  0  0
112113  1  0  0  0  0
113114  2  0  0  0  0
113115  1  0  0  0  0
115116  2  0  0  0  0
116117  1  0  0  0  0
117118  2  0  0  0  0
118119  1  0  0  0  0
119120  2  0  0  0  0
120121  1  0  0  0  0
121122  2  0  0  0  0
122123  1  0  0  0  0
123124  3  0  0  0  0
122125  1  0  0  0  0
125126  3  0  0  0  0
118127  1  0  0  0  0
127128  1  0  0  0  0
128129  1  0  0  0  0
129130  2  0  0  0  0
130131  1  0  0  0  0
131132  1  0  0  0  0
131133  1  0  0  0  0
 11  2  1  0  0  0  0
 23 17  1  0  0  0  0
 48 24  1  0  0  0  0
 93 52  1  0  0  0  0
100 94  1  0  0  0  0
110101  1  0  0  0  0
121112  1  0  0  0  0
133127  1  0  0  0  0
 10  5  1  0  0  0  0
 22 18  1  0  0  0  0
 47 26  1  0  0  0  0
 62 55  1  0  0  0  0
 70 63  1  0  0  0  0
 92 71  2  0  0  0  0
103 98  1  0  0  0  0
120115  1  0  0  0  0
132128  1  0  0  0  0
 23  7  1  0  0  0  0
 35 28  1  0  0  0  0
 51 36  1  0  0  0  0
 83 76  1  0  0  0  0
 91 84  1  0  0  0  0
133117  1  0  0  0  0
 46 39  1  0  0  0  0
  1134  1  0  0  0  0
  6135  1  0  0  0  0
  9136  1  0  0  0  0
 17137  1  0  0  0  0
 18138  1  0  0  0  0
 19139  1  0  0  0  0
 20140  1  0  0  0  0
 21141  1  0  0  0  0
 22142  1  0  0  0  0
 22143  1  0  0  0  0
 23144  1  0  0  0  0
 25145  1  0  0  0  0
 29146  1  0  0  0  0
 30147  1  0  0  0  0
 32148  1  0  0  0  0
 32149  1  0  0  0  0
 33150  1  0  0  0  0
 33151  1  0  0  0  0
 33152  1  0  0  0  0
 34153  1  0  0  0  0
 35154  1  0  0  0  0
 40155  1  0  0  0  0
 41156  1  0  0  0  0
 43157  1  0  0  0  0
 43158  1  0  0  0  0
 44159  1  0  0  0  0
 44160  1  0  0  0  0
 44161  1  0  0  0  0
 45162  1  0  0  0  0
 46163  1  0  0  0  0
 49164  1  0  0  0  0
 56165  1  0  0  0  0
 57166  1  0  0  0  0
 60167  1  0  0  0  0
 60168  1  0  0  0  0
 60169  1  0  0  0  0
 61170  1  0  0  0  0
 62171  1  0  0  0  0
 64172  1  0  0  0  0
 65173  1  0  0  0  0
 68174  1  0  0  0  0
 68175  1  0  0  0  0
 68176  1  0  0  0  0
 69177  1  0  0  0  0
 70178  1  0  0  0  0
 77179  1  0  0  0  0
 78180  1  0  0  0  0
 81181  1  0  0  0  0
 81182  1  0  0  0  0
 81183  1  0  0  0  0
 82184  1  0  0  0  0
 83185  1  0  0  0  0
 85186  1  0  0  0  0
 86187  1  0  0  0  0
 89188  1  0  0  0  0
 89189  1  0  0  0  0
 89190  1  0  0  0  0
 90191  1  0  0  0  0
 91192  1  0  0  0  0
 96193  1  0  0  0  0
 96194  1  0  0  0  0
 97195  1  0  0  0  0
 97196  1  0  0  0  0
 97197  1  0  0  0  0
104198  1  0  0  0  0
104199  1  0  0  0  0
105200  1  0  0  0  0
105201  1  0  0  0  0
105202  1  0  0  0  0
106203  1  0  0  0  0
106204  1  0  0  0  0
107205  1  0  0  0  0
107206  1  0  0  0  0
107207  1  0  0  0  0
108208  1  0  0  0  0
111209  1  0  0  0  0
116210  1  0  0  0  0
119211  1  0  0  0  0
127212  1  0  0  0  0
128213  1  0  0  0  0
129214  1  0  0  0  0
130215  1  0  0  0  0
131216  1  0  0  0  0
132217  1  0  0  0  0
132218  1  0  0  0  0
133219  1  0  0  0  0
M  END
