
  xtb     02042208193D
 energy: -280.516161718426 gnorm: 0.000410964645 xtb: 6.4.1 (unknown)
151167  0     0  0            999 V2000
   -3.4468   -1.0281   -5.3741 C   0  0  0  0  0  0  0  0  0  0  0  0
   -3.8469   -0.4580   -6.5495 C   0  0  0  0  0  0  0  0  0  0  0  0
   -3.3739    0.8113   -7.1509 C   0  0  0  0  0  0  0  0  0  0  0  0
   -2.7854    1.7310   -6.6199 O   0  0  0  0  0  0  0  0  0  0  0  0
   -3.7118    0.7170   -8.5839 C   0  0  0  0  0  0  0  0  0  0  0  0
   -3.3544    1.6193   -9.5839 C   0  0  0  0  0  0  0  0  0  0  0  0
   -3.7776    1.2579  -10.8403 C   0  0  0  0  0  0  0  0  0  0  0  0
   -4.5016    0.0835  -11.0891 C   0  0  0  0  0  0  0  0  0  0  0  0
   -4.8641   -0.8137  -10.1125 C   0  0  0  0  0  0  0  0  0  0  0  0
   -4.4446   -0.4624   -8.8260 C   0  0  0  0  0  0  0  0  0  0  0  0
   -4.6252   -1.1550   -7.5568 C   0  0  0  0  0  0  0  0  0  0  0  0
   -5.4687   -2.2093   -7.3203 C   0  0  0  0  0  0  0  0  0  0  0  0
   -6.2370   -2.8512   -8.3129 C   0  0  0  0  0  0  0  0  0  0  0  0
   -6.8795   -3.4166   -9.0780 N   0  0  0  0  0  0  0  0  0  0  0  0
   -5.7310   -2.7332   -6.0387 C   0  0  0  0  0  0  0  0  0  0  0  0
   -6.0192   -3.1764   -5.0183 N   0  0  0  0  0  0  0  0  0  0  0  0
   -4.5779    0.3500  -12.5718 C   0  0  0  0  0  0  0  0  0  0  0  0
   -5.9223    0.8823  -13.1115 C   0  0  0  0  0  0  0  0  0  0  0  0
   -5.5590    1.4907  -14.4469 C   0  0  0  0  0  0  0  0  0  0  0  0
   -4.8758    2.6034  -14.2111 C   0  0  0  0  0  0  0  0  0  0  0  0
   -4.7653    2.7659  -12.7122 C   0  0  0  0  0  0  0  0  0  0  0  0
   -6.1067    2.1591  -12.2812 C   0  0  0  0  0  0  0  0  0  0  0  0
   -3.7730    1.6602  -12.2939 C   0  0  0  0  0  0  0  0  0  0  0  0
   -2.7557   -0.4533   -4.2877 C   0  0  0  0  0  0  0  0  0  0  0  0
   -2.5842    0.8659   -3.9175 C   0  0  0  0  0  0  0  0  0  0  0  0
   -1.8693    1.0212   -2.7297 C   0  0  0  0  0  0  0  0  0  0  0  0
   -1.3462    2.5338   -2.0159 S   0  0  0  0  0  0  0  0  0  0  0  0
   -2.1062    3.8055   -3.0846 C   0  0  0  0  0  0  0  0  0  0  0  0
   -1.3494    4.0329   -4.3788 C   0  0  0  0  0  0  0  0  0  0  0  0
   -1.5057   -0.1919   -2.1490 C   0  0  0  0  0  0  0  0  0  0  0  0
   -2.0213   -1.5280   -3.1205 S   0  0  0  0  0  0  0  0  0  0  0  0
   -0.8609   -0.3804   -0.8912 C   0  0  0  0  0  0  0  0  0  0  0  0
   -1.1950    0.2326    0.3132 C   0  0  0  0  0  0  0  0  0  0  0  0
   -2.2981    1.0261    0.5287 N   0  0  0  0  0  0  0  0  0  0  0  0
   -2.2279    1.9893    1.5512 C   0  0  0  0  0  0  0  0  0  0  0  0
   -1.1043    2.8087    1.6605 C   0  0  0  0  0  0  0  0  0  0  0  0
   -0.9796    3.6726    2.7249 C   0  0  0  0  0  0  0  0  0  0  0  0
   -1.9746    3.7381    3.6973 C   0  0  0  0  0  0  0  0  0  0  0  0
   -1.6784    4.8236    5.0567 S   0  0  0  0  0  0  0  0  0  0  0  0
   -2.8995    4.2962    6.2935 C   0  0  0  0  0  0  0  0  0  0  0  0
   -3.1252    2.9734    3.5536 C   0  0  0  0  0  0  0  0  0  0  0  0
   -3.2493    2.1040    2.4872 C   0  0  0  0  0  0  0  0  0  0  0  0
   -3.4742    0.8653   -0.2179 C   0  0  0  0  0  0  0  0  0  0  0  0
   -4.1975    1.9848   -0.6278 C   0  0  0  0  0  0  0  0  0  0  0  0
   -5.2880    1.8399   -1.4564 C   0  0  0  0  0  0  0  0  0  0  0  0
   -5.6849    0.5765   -1.8911 C   0  0  0  0  0  0  0  0  0  0  0  0
   -7.0281    0.5072   -3.0341 S   0  0  0  0  0  0  0  0  0  0  0  0
   -7.6022   -1.2109   -2.9193 C   0  0  0  0  0  0  0  0  0  0  0  0
   -5.0045   -0.5452   -1.4366 C   0  0  0  0  0  0  0  0  0  0  0  0
   -3.9166   -0.3992   -0.5980 C   0  0  0  0  0  0  0  0  0  0  0  0
   -0.2860   -0.1401    1.3319 C   0  0  0  0  0  0  0  0  0  0  0  0
   -0.0677    0.3548    2.9774 S   0  0  0  0  0  0  0  0  0  0  0  0
    1.3156   -0.7151    3.1295 C   0  0  0  0  0  0  0  0  0  0  0  0
    1.6470   -1.3425    1.9134 C   0  0  0  0  0  0  0  0  0  0  0  0
    2.8216   -2.0008    1.6531 N   0  0  0  0  0  0  0  0  0  0  0  0
    2.8090   -3.0652    0.7463 C   0  0  0  0  0  0  0  0  0  0  0  0
    3.8386   -3.2352   -0.1752 C   0  0  0  0  0  0  0  0  0  0  0  0
    3.8083   -4.2801   -1.0766 C   0  0  0  0  0  0  0  0  0  0  0  0
    2.7430   -5.1729   -1.0736 C   0  0  0  0  0  0  0  0  0  0  0  0
    2.5883   -6.5368   -2.1756 S   0  0  0  0  0  0  0  0  0  0  0  0
    4.0867   -6.4541   -3.1968 C   0  0  0  0  0  0  0  0  0  0  0  0
    1.7129   -5.0075   -0.1469 C   0  0  0  0  0  0  0  0  0  0  0  0
    1.7443   -3.9690    0.7534 C   0  0  0  0  0  0  0  0  0  0  0  0
    4.0202   -1.5599    2.2256 C   0  0  0  0  0  0  0  0  0  0  0  0
    4.2229   -0.1986    2.4680 C   0  0  0  0  0  0  0  0  0  0  0  0
    5.3848    0.2364    3.0571 C   0  0  0  0  0  0  0  0  0  0  0  0
    6.3835   -0.6708    3.4181 C   0  0  0  0  0  0  0  0  0  0  0  0
    7.8246    0.0163    4.1415 S   0  0  0  0  0  0  0  0  0  0  0  0
    8.7839   -1.4310    4.6556 C   0  0  0  0  0  0  0  0  0  0  0  0
    6.1981   -2.0233    3.1539 C   0  0  0  0  0  0  0  0  0  0  0  0
    5.0307   -2.4592    2.5608 C   0  0  0  0  0  0  0  0  0  0  0  0
    0.6865   -1.0406    0.9228 C   0  0  0  0  0  0  0  0  0  0  0  0
    0.4941   -1.4886   -0.7384 S   0  0  0  0  0  0  0  0  0  0  0  0
    1.9222   -0.8392    4.3935 C   0  0  0  0  0  0  0  0  0  0  0  0
    1.7431    0.1635    5.3770 C   0  0  0  0  0  0  0  0  0  0  0  0
    2.4840    0.1858    6.6142 C   0  0  0  0  0  0  0  0  0  0  0  0
    2.2020    1.2712    7.3291 N   0  0  0  0  0  0  0  0  0  0  0  0
    1.1098    2.1596    6.5509 S   0  0  0  0  0  4  0  0  0  0  0  0
    0.9476    1.2235    5.2502 N   0  0  0  0  0  0  0  0  0  0  0  0
    3.4218   -0.8242    6.9623 C   0  0  0  0  0  0  0  0  0  0  0  0
    3.3903   -1.9503    6.1000 C   0  0  0  0  0  0  0  0  0  0  0  0
    3.9138   -3.1429    6.3616 N   0  0  0  0  0  0  0  0  0  0  0  0
    3.6040   -4.1421    5.1442 S   0  0  0  0  0  0  0  0  0  0  0  0
    2.7681   -3.1251    4.2196 N   0  0  0  0  0  0  0  0  0  0  0  0
    2.6891   -1.9457    4.8340 C   0  0  0  0  0  0  0  0  0  0  0  0
    4.2184   -0.6653    8.1077 C   0  0  0  0  0  0  0  0  0  0  0  0
    5.3714   -1.3384    8.4411 C   0  0  0  0  0  0  0  0  0  0  0  0
    6.2056   -2.1482    7.5501 C   0  0  0  0  0  0  0  0  0  0  0  0
    6.1983   -2.1918    6.3354 O   0  0  0  0  0  0  0  0  0  0  0  0
    7.1830   -2.8361    8.4356 C   0  0  0  0  0  0  0  0  0  0  0  0
    8.0524   -3.8663    8.1359 C   0  0  0  0  0  0  0  0  0  0  0  0
    8.2035   -4.4782    6.5473 Cl  0  0  0  0  0  0  0  0  0  0  0  0
    8.7938   -4.4414    9.1756 C   0  0  0  0  0  0  0  0  0  0  0  0
    9.9079   -5.6982    8.8416 Cl  0  0  0  0  0  0  0  0  0  0  0  0
    8.5910   -4.0212   10.4875 C   0  0  0  0  0  0  0  0  0  0  0  0
    9.4399   -4.7979   11.7551 Cl  0  0  0  0  0  0  0  0  0  0  0  0
    7.6874   -2.9897   10.7918 C   0  0  0  0  0  0  0  0  0  0  0  0
    7.3514   -2.6716   12.4440 Cl  0  0  0  0  0  0  0  0  0  0  0  0
    7.0348   -2.3471    9.7476 C   0  0  0  0  0  0  0  0  0  0  0  0
    6.0504   -1.2634    9.7202 C   0  0  0  0  0  0  0  0  0  0  0  0
    5.9266   -0.2703   10.6584 C   0  0  0  0  0  0  0  0  0  0  0  0
    6.8761    0.0100   11.6646 C   0  0  0  0  0  0  0  0  0  0  0  0
    7.6438    0.3854   12.4314 N   0  0  0  0  0  0  0  0  0  0  0  0
    4.9317    0.7316   10.6708 C   0  0  0  0  0  0  0  0  0  0  0  0
    4.1523    1.5648   10.8024 N   0  0  0  0  0  0  0  0  0  0  0  0
   -3.6454   -2.0873   -5.2531 H   0  0  0  0  0  0  0  0  0  0  0  0
   -2.7886    2.5082   -9.3525 H   0  0  0  0  0  0  0  0  0  0  0  0
   -5.4090   -1.7207  -10.3163 H   0  0  0  0  0  0  0  0  0  0  0  0
   -4.1329   -0.4090  -13.2123 H   0  0  0  0  0  0  0  0  0  0  0  0
   -6.7329    0.1591  -13.1066 H   0  0  0  0  0  0  0  0  0  0  0  0
   -5.7810    1.0351  -15.3940 H   0  0  0  0  0  0  0  0  0  0  0  0
   -4.4128    3.2628  -14.9216 H   0  0  0  0  0  0  0  0  0  0  0  0
   -4.5224    3.7591  -12.3442 H   0  0  0  0  0  0  0  0  0  0  0  0
   -6.9543    2.7517  -12.6212 H   0  0  0  0  0  0  0  0  0  0  0  0
   -6.1914    1.9839  -11.2103 H   0  0  0  0  0  0  0  0  0  0  0  0
   -2.7912    1.7752  -12.7496 H   0  0  0  0  0  0  0  0  0  0  0  0
   -2.9826    1.6706   -4.5025 H   0  0  0  0  0  0  0  0  0  0  0  0
   -3.1440    3.5186   -3.2488 H   0  0  0  0  0  0  0  0  0  0  0  0
   -2.0826    4.7010   -2.4620 H   0  0  0  0  0  0  0  0  0  0  0  0
   -1.7920    4.8728   -4.9106 H   0  0  0  0  0  0  0  0  0  0  0  0
   -0.3072    4.2640   -4.1703 H   0  0  0  0  0  0  0  0  0  0  0  0
   -1.3908    3.1615   -5.0266 H   0  0  0  0  0  0  0  0  0  0  0  0
   -0.3335    2.7508    0.9070 H   0  0  0  0  0  0  0  0  0  0  0  0
   -0.1053    4.2965    2.8248 H   0  0  0  0  0  0  0  0  0  0  0  0
   -2.6283    4.8083    7.2113 H   0  0  0  0  0  0  0  0  0  0  0  0
   -2.8317    3.2216    6.4329 H   0  0  0  0  0  0  0  0  0  0  0  0
   -3.8994    4.5940    5.9911 H   0  0  0  0  0  0  0  0  0  0  0  0
   -3.9259    3.0337    4.2729 H   0  0  0  0  0  0  0  0  0  0  0  0
   -4.1350    1.4939    2.3876 H   0  0  0  0  0  0  0  0  0  0  0  0
   -3.8801    2.9657   -0.3071 H   0  0  0  0  0  0  0  0  0  0  0  0
   -5.8379    2.7059   -1.7922 H   0  0  0  0  0  0  0  0  0  0  0  0
   -7.7189   -1.4808   -1.8743 H   0  0  0  0  0  0  0  0  0  0  0  0
   -8.5677   -1.2284   -3.4158 H   0  0  0  0  0  0  0  0  0  0  0  0
   -6.9182   -1.8818   -3.4332 H   0  0  0  0  0  0  0  0  0  0  0  0
   -5.3032   -1.5353   -1.7415 H   0  0  0  0  0  0  0  0  0  0  0  0
   -3.3933   -1.2771   -0.2485 H   0  0  0  0  0  0  0  0  0  0  0  0
    4.6609   -2.5354   -0.1924 H   0  0  0  0  0  0  0  0  0  0  0  0
    4.6168   -4.3798   -1.7822 H   0  0  0  0  0  0  0  0  0  0  0  0
    4.9689   -6.5577   -2.5722 H   0  0  0  0  0  0  0  0  0  0  0  0
    4.0196   -7.2948   -3.8804 H   0  0  0  0  0  0  0  0  0  0  0  0
    4.1036   -5.5243   -3.7578 H   0  0  0  0  0  0  0  0  0  0  0  0
    0.8948   -5.7110   -0.1425 H   0  0  0  0  0  0  0  0  0  0  0  0
    0.9591   -3.8551    1.4848 H   0  0  0  0  0  0  0  0  0  0  0  0
    3.4661    0.5169    2.1830 H   0  0  0  0  0  0  0  0  0  0  0  0
    5.5421    1.2881    3.2410 H   0  0  0  0  0  0  0  0  0  0  0  0
    9.6183   -1.0471    5.2341 H   0  0  0  0  0  0  0  0  0  0  0  0
    9.1524   -1.9665    3.7853 H   0  0  0  0  0  0  0  0  0  0  0  0
    8.1493   -2.0559    5.2757 H   0  0  0  0  0  0  0  0  0  0  0  0
    6.9489   -2.7480    3.4203 H   0  0  0  0  0  0  0  0  0  0  0  0
    4.8857   -3.5126    2.3720 H   0  0  0  0  0  0  0  0  0  0  0  0
    3.8537    0.0920    8.7904 H   0  0  0  0  0  0  0  0  0  0  0  0
  1  2  2  0  0  0  0
  2  3  1  0  0  0  0
  3  4  2  0  0  0  0
  3  5  1  0  0  0  0
  5  6  2  0  0  0  0
  6  7  1  0  0  0  0
  7  8  2  0  0  0  0
  8  9  1  0  0  0  0
  9 10  2  0  0  0  0
 10 11  1  0  0  0  0
 11 12  2  0  0  0  0
 12 13  1  0  0  0  0
 13 14  3  0  0  0  0
 12 15  1  0  0  0  0
 15 16  3  0  0  0  0
  8 17  1  0  0  0  0
 17 18  1  0  0  0  0
 18 19  1  0  0  0  0
 19 20  2  0  0  0  0
 20 21  1  0  0  0  0
 21 22  1  0  0  0  0
 21 23  1  0  0  0  0
  1 24  1  0  0  0  0
 24 25  2  0  0  0  0
 25 26  1  0  0  0  0
 26 27  1  0  0  0  0
 27 28  1  0  0  0  0
 28 29  1  0  0  0  0
 26 30  2  0  0  0  0
 30 31  1  0  0  0  0
 30 32  1  0  0  0  0
 32 33  2  0  0  0  0
 33 34  1  0  0  0  0
 34 35  1  0  0  0  0
 35 36  2  0  0  0  0
 36 37  1  0  0  0  0
 37 38  2  0  0  0  0
 38 39  1  0  0  0  0
 39 40  1  0  0  0  0
 38 41  1  0  0  0  0
 41 42  2  0  0  0  0
 34 43  1  0  0  0  0
 43 44  2  0  0  0  0
 44 45  1  0  0  0  0
 45 46  2  0  0  0  0
 46 47  1  0  0  0  0
 47 48  1  0  0  0  0
 46 49  1  0  0  0  0
 49 50  2  0  0  0  0
 33 51  1  0  0  0  0
 51 52  1  0  0  0  0
 52 53  1  0  0  0  0
 53 54  2  0  0  0  0
 54 55  1  0  0  0  0
 55 56  1  0  0  0  0
 56 57  2  0  0  0  0
 57 58  1  0  0  0  0
 58 59  2  0  0  0  0
 59 60  1  0  0  0  0
 60 61  1  0  0  0  0
 59 62  1  0  0  0  0
 62 63  2  0  0  0  0
 55 64  1  0  0  0  0
 64 65  2  0  0  0  0
 65 66  1  0  0  0  0
 66 67  2  0  0  0  0
 67 68  1  0  0  0  0
 68 69  1  0  0  0  0
 67 70  1  0  0  0  0
 70 71  2  0  0  0  0
 54 72  1  0  0  0  0
 72 73  1  0  0  0  0
 53 74  1  0  0  0  0
 74 75  2  0  0  0  0
 75 76  1  0  0  0  0
 76 77  1  0  0  0  0
 77 78  2  0  0  0  0
 78 79  2  0  0  0  0
 76 80  2  0  0  0  0
 80 81  1  0  0  0  0
 81 82  2  0  0  0  0
 82 83  1  0  0  0  0
 83 84  1  0  0  0  0
 84 85  2  0  0  0  0
 80 86  1  0  0  0  0
 86 87  2  0  0  0  0
 87 88  1  0  0  0  0
 88 89  2  0  0  0  0
 88 90  1  0  0  0  0
 90 91  2  0  0  0  0
 91 92  1  0  0  0  0
 91 93  1  0  0  0  0
 93 94  1  0  0  0  0
 93 95  2  0  0  0  0
 95 96  1  0  0  0  0
 95 97  1  0  0  0  0
 97 98  1  0  0  0  0
 97 99  2  0  0  0  0
 99100  1  0  0  0  0
100101  2  0  0  0  0
101102  1  0  0  0  0
102103  3  0  0  0  0
101104  1  0  0  0  0
104105  3  0  0  0  0
 11  2  1  0  0  0  0
 23 17  1  0  0  0  0
 31 24  1  0  0  0  0
 73 32  1  0  0  0  0
 85 74  1  0  0  0  0
100 87  1  0  0  0  0
 10  5  1  0  0  0  0
 22 18  1  0  0  0  0
 42 35  1  0  0  0  0
 50 43  1  0  0  0  0
 72 51  2  0  0  0  0
 79 75  1  0  0  0  0
 85 81  1  0  0  0  0
 99 90  1  0  0  0  0
 23  7  1  0  0  0  0
 63 56  1  0  0  0  0
 71 64  1  0  0  0  0
  1106  1  0  0  0  0
  6107  1  0  0  0  0
  9108  1  0  0  0  0
 17109  1  0  0  0  0
 18110  1  0  0  0  0
 19111  1  0  0  0  0
 20112  1  0  0  0  0
 21113  1  0  0  0  0
 22114  1  0  0  0  0
 22115  1  0  0  0  0
 23116  1  0  0  0  0
 25117  1  0  0  0  0
 28118  1  0  0  0  0
 28119  1  0  0  0  0
 29120  1  0  0  0  0
 29121  1  0  0  0  0
 29122  1  0  0  0  0
 36123  1  0  0  0  0
 37124  1  0  0  0  0
 40125  1  0  0  0  0
 40126  1  0  0  0  0
 40127  1  0  0  0  0
 41128  1  0  0  0  0
 42129  1  0  0  0  0
 44130  1  0  0  0  0
 45131  1  0  0  0  0
 48132  1  0  0  0  0
 48133  1  0  0  0  0
 48134  1  0  0  0  0
 49135  1  0  0  0  0
 50136  1  0  0  0  0
 57137  1  0  0  0  0
 58138  1  0  0  0  0
 61139  1  0  0  0  0
 61140  1  0  0  0  0
 61141  1  0  0  0  0
 62142  1  0  0  0  0
 63143  1  0  0  0  0
 65144  1  0  0  0  0
 66145  1  0  0  0  0
 69146  1  0  0  0  0
 69147  1  0  0  0  0
 69148  1  0  0  0  0
 70149  1  0  0  0  0
 71150  1  0  0  0  0
 86151  1  0  0  0  0
M  END
