172

C          5.18480        8.96310        4.86290
C          4.25620        9.40960        5.76630
C          2.85060        8.99300        5.81880
O          2.28780        8.19390        5.08920
C          2.23900        9.73250        6.93460
C          0.91650        9.65850        7.36490
C          0.63380       10.46320        8.44230
C          1.59540       11.28680        9.04230
C          2.90220       11.37260        8.62390
C          3.21410       10.55560        7.53380
C          4.48260       10.36800        6.83010
C          5.66360       10.98740        7.15080
C          5.82440       11.90610        8.20910
N          6.03860       12.65610        9.05210
C          6.89810       10.80460        6.49340
N          7.94230       10.71820        6.02160
C          0.62580       11.80280       10.07510
C          0.72800       11.22370       11.50800
C          1.32070        9.84310       11.37210
C          0.40850        9.06460       10.80570
C         -0.81740        9.90520       10.54720
C         -0.74670       10.86280       11.74740
C         -0.44640       10.88560        9.40670
C          5.05650        8.03080        3.82220
C          6.13380        7.66210        3.01990
C          5.82950        6.71300        2.05850
S          7.07570        6.05060        0.98810
C          7.13710        4.33680        1.65770
C          8.05840        3.48400        0.81070
C          4.48320        6.34050        2.07830
S          3.62140        7.15540        3.34520
C          3.80380        5.42620        1.23620
S          2.20000        4.85930        1.71450
C          2.13930        3.84010        0.32520
C          1.35570        2.86060       -0.28280
C          2.06430        2.41970       -1.42180
N          3.22480        3.13240       -1.54860
C          4.19560        3.04690       -2.61000
C          5.29680        2.03620       -2.30590
C          3.29830        3.97700       -0.47300
C          4.23060        4.87480        0.04340
C          1.44590        1.34650       -2.07550
C          0.27010        0.98840       -1.46320
S         -0.12710        2.00610       -0.08220
C         -0.52240       -0.17190       -1.74650
C         -0.04920       -1.46900       -1.86980
N          1.26390       -1.87470       -1.69710
C          2.11030       -1.26560       -0.77040
C          1.61380       -0.71020        0.40750
C          2.42400        0.04360        1.23340
C          3.76350        0.21790        0.91750
S          4.86490        1.27910        1.80280
C          3.87450        1.88420        3.19600
C          4.29450       -0.44820       -0.18460
C          3.47840       -1.16820       -1.02870
C          1.68850       -2.98170       -2.45410
C          1.40120       -3.03400       -3.81660
C          1.69570       -4.16670       -4.54490
C          2.27930       -5.25880       -3.91790
S          2.53680       -6.74090       -4.85340
C          1.89060       -7.96120       -3.66670
C          2.62980       -5.18510       -2.57610
C          2.33590       -4.05280       -1.84600
C         -1.10010       -2.37280       -2.16250
S         -1.16680       -4.08520       -2.38830
C         -2.91420       -3.99340       -2.61790
C         -3.40650       -2.67770       -2.42570
N         -4.72580       -2.30830       -2.44880
C         -5.74250       -3.10690       -1.89960
C         -5.49880       -3.89730       -0.77910
C         -6.49990       -4.67850       -0.23800
C         -7.77040       -4.66990       -0.80090
S         -9.12920       -5.61840       -0.19820
C         -8.45150       -6.50250        1.23620
C         -8.02110       -3.86510       -1.91090
C         -7.02080       -3.09450       -2.45910
C         -5.04660       -1.02180       -2.92090
C         -5.94320       -0.21090       -2.23420
C         -6.24070        1.05580       -2.69700
C         -5.64100        1.53230       -3.85590
S         -5.92710        3.13090       -4.53830
C         -7.10120        3.90060       -3.38780
C         -4.74950        0.71600       -4.55160
C         -4.45660       -0.54710       -4.09280
C         -2.35180       -1.77430       -2.20700
S         -2.26860       -0.07000       -1.88790
C         -3.70930       -5.03970       -3.07990
C         -3.40220       -6.35840       -3.32950
C         -2.15090       -7.04150       -3.00170
O         -1.12250       -6.55310       -2.55630
C         -2.36800       -8.46870       -3.30300
C         -1.46890       -9.51700       -3.11960
C         -1.94650      -10.74230       -3.51830
C         -3.22720      -10.91570       -4.05670
C         -4.12900       -9.89250       -4.23220
C         -3.66330       -8.63710       -3.83220
C         -4.32120       -7.33070       -3.87390
C         -5.57860       -7.09300       -4.37540
C         -6.45060       -8.09260       -4.85180
N         -7.21870       -8.85180       -5.24300
C         -6.17980       -5.82810       -4.52320
N         -6.73360       -4.83720       -4.70760
C         -3.04010      -12.40250       -4.23210
C         -3.72930      -13.31210       -3.19340
C         -2.99510      -14.62730       -3.32000
C         -1.78200      -14.46330       -2.80810
C         -1.67590      -13.03410       -2.32700
C         -3.12440      -12.79770       -1.88060
C         -1.61130      -12.20920       -3.62970
H          6.18490        9.37190        4.94010
H          0.20870        9.01220        6.86980
H          3.62610       12.01420        9.09730
H          0.45180       12.87680       10.07340
H          1.20670       11.88240       12.22750
H          2.33120        9.59640       11.64080
H          0.50450        8.03730       10.50620
H         -1.74720        9.36390       10.39280
H         -0.90760       10.35800       12.69880
H         -1.42090       11.71420       11.66380
H         -1.32100       11.36090        8.96660
H          7.12020        8.07290        3.14660
H          6.12190        3.94150        1.64850
H          7.49580        4.40940        2.68420
H          8.05270        2.46280        1.18520
H          9.07460        3.86920        0.84190
H          7.72560        3.47710       -0.22480
H          3.67370        2.76980       -3.52990
H          4.62860        4.04230       -2.74370
H          6.06870        2.08770       -3.06900
H          5.74230        2.24720       -1.33650
H          4.88730        1.03050       -2.28500
H          5.16620        5.13340       -0.41670
H          1.83050        0.84050       -2.94200
H          0.57560       -0.84960        0.66820
H          1.99300        0.49270        2.11350
H          3.01250        2.43490        2.83120
H          4.52600        2.55070        3.75320
H          3.57530        1.05060        3.82460
H          5.35260       -0.37000       -0.38240
H          3.89040       -1.64570       -1.90570
H          0.91710       -2.19220       -4.29050
H          1.45540       -4.22310       -5.59520
H          2.65620       -8.23480       -2.94610
H          1.02480       -7.52570       -3.17560
H          1.60550       -8.83130       -4.25030
H          3.11260       -6.02020       -2.09340
H          2.58130       -4.00030       -0.79570
H         -4.51690       -3.90240       -0.32910
H         -6.27650       -5.28030        0.62800
H         -8.11380       -5.79310        1.98610
H         -9.27510       -7.08970        1.63030
H         -7.64720       -7.16170        0.92280
H         -9.00700       -3.86500       -2.34790
H         -7.21920       -2.48960       -3.32910
H         -6.40450       -0.57280       -1.32740
H         -6.93510        1.66200       -2.13860
H         -8.02780        3.33460       -3.36710
H         -7.28630        4.89440       -3.78340
H         -6.65780        3.97450       -2.39920
H         -4.29700        1.08720       -5.45810
H         -3.77460       -1.18030       -4.64040
H         -4.73140       -4.74960       -3.28640
H         -0.49060       -9.34690       -2.69860
H         -5.11190      -10.04340       -4.64550
H         -3.12970      -12.77510       -5.25070
H         -4.81280      -13.34670       -3.26690
H         -3.40050      -15.49660       -3.80360
H         -0.97160      -15.16800       -2.77880
H         -0.88850      -12.81660       -1.60990
H         -3.35730      -11.75690       -1.66310
H         -3.39950      -13.41850       -1.02950
H         -0.74890      -12.45490       -4.24700
