122

C         -6.77440        1.01420        0.67410
C         -7.68910        0.04120        0.95150
C         -7.47570       -1.42570        1.03270
O         -6.55080       -2.08600        0.60570
C         -8.62780       -1.95380        1.78410
C         -8.81320       -3.27200        2.19800
C         -9.97030       -3.47630        2.90900
C        -10.87890       -2.44600        3.19020
C        -10.71520       -1.14540        2.77720
C         -9.54260       -0.91590        2.04970
C         -9.02850        0.31270        1.45600
C         -9.72150        1.48520        1.32020
C        -11.03040        1.69510        1.80390
N        -12.08860        1.93550        2.17820
C         -9.25790        2.62570        0.62820
N         -8.96470        3.57900        0.05950
C        -11.79650       -3.35900        3.96440
C        -11.72650       -3.26090        5.50350
C        -12.34410       -4.55710        5.97640
C        -11.48860       -5.53440        5.70540
C        -10.27790       -4.91520        5.04520
C        -10.24580       -3.56290        5.76890
C        -10.78690       -4.50820        3.64580
C         -5.43880        0.90240        0.22090
C         -4.75080       -0.13050       -0.37830
C         -3.40810        0.16310       -0.63770
S         -2.28730       -1.01920       -1.27930
C         -2.85820       -2.54020       -0.41780
C         -2.79490       -2.41390        1.09000
C         -3.04820        1.45050       -0.24650
S         -4.40190        2.29410        0.42190
C         -1.74920        2.06460       -0.30240
C         -1.29540        2.93550        0.67740
F         -2.09210        3.26550        1.70870
C          0.00310        3.45050        0.68200
F          0.34790        4.23360        1.71880
C          0.93550        3.12390       -0.29060
C          0.48110        2.28140       -1.34520
N          1.31900        1.98590       -2.34830
C          0.90450        1.26460       -3.36050
C          1.92150        0.96980       -4.41740
C          2.87900       -0.12740       -3.94390
C         -0.45150        0.82620       -3.41740
N         -1.27190        1.08640       -2.42860
C         -0.84420        1.78370       -1.36660
C         -1.05250        0.09810       -4.58050
C         -0.65610       -1.37870       -4.60630
C          2.30570        3.55500       -0.24500
C          2.81840        4.68150        0.37280
C          4.20160        4.74360        0.29330
S          5.14680        6.07280        0.98580
C          5.55670        5.32720        2.61070
C          4.34330        5.22250        3.51030
C          4.77880        3.65530       -0.37740
S          3.53830        2.57610       -0.95850
C          6.17150        3.50570       -0.49110
C          6.91010        2.50460       -1.05750
C          6.38080        1.37040       -1.82390
O          5.21180        1.06360       -1.98000
C          7.54660        0.66950       -2.38450
C          7.53190       -0.44750       -3.21670
C          8.78080       -0.88620       -3.58420
C          9.95900       -0.25570       -3.16120
C          9.98710        0.84880       -2.34310
C          8.72670        1.30680       -1.94920
C          8.35900        2.41350       -1.06810
C          9.23070        3.15570       -0.31570
C          8.86190        4.10990        0.65680
N          8.64900        4.86020        1.49990
C         10.63430        3.01750       -0.35350
N         11.78090        2.96140       -0.33550
C         10.84030       -1.23250       -3.89830
C         11.54190       -2.33630       -3.06850
C         10.68260       -2.56980       -1.85070
C          9.56770       -3.16690       -2.25020
C          9.65290       -3.34780       -3.74570
C         11.16540       -3.56920       -3.90580
C          9.52780       -1.93520       -4.36880
H         -7.07000        2.03520        0.88750
H         -8.08730       -4.03400        1.96090
H        -11.42220       -0.36400        3.00010
H        -12.81480       -3.43890        3.58930
H        -12.13380       -2.34380        5.91980
H        -13.33020       -4.63380        6.39520
H        -11.61710       -6.59070        5.85240
H         -9.36540       -5.50540        5.04420
H         -9.55920       -2.84070        5.33090
H        -10.03210       -3.66990        6.83110
H        -11.13070       -5.35440        3.05410
H         -5.21470       -1.06690       -0.62040
H         -2.16550       -3.30120       -0.77710
H         -3.86190       -2.78700       -0.75750
H         -1.80160       -2.10300        1.40760
H         -3.02400       -3.37410        1.54740
H         -3.52180       -1.68690        1.44610
H          2.50130        1.87700       -4.59450
H          1.43620        0.67190       -5.34610
H          2.33350       -1.02330       -3.65530
H          3.56880       -0.38230       -4.74500
H          3.44820        0.22440       -3.08920
H         -2.13550        0.17010       -4.47610
H         -0.75710        0.57880       -5.51540
H         -1.18450       -1.88550       -5.40990
H          0.41110       -1.49940       -4.76650
H         -0.92470       -1.84710       -3.66330
H          2.22490        5.43870        0.85150
H          6.30880        5.99670        3.02410
H          6.01220        4.35540        2.42340
H          3.59280        4.56420        3.07600
H          4.63740        4.82020        4.47770
H          3.89690        6.20250        3.66180
H          6.71790        4.33140       -0.04650
H          6.60060       -0.90070       -3.51910
H         10.90190        1.32480       -2.03210
H         11.49260       -0.80760       -4.65840
H         12.59780       -2.15920       -2.88360
H         10.94110       -2.23590       -0.86290
H          8.70790       -3.43140       -1.66290
H          8.98930       -4.09220       -4.17800
H         11.50550       -3.51270       -4.93890
H         11.50410       -4.50200       -3.45750
H          9.32260       -1.96930       -5.43700
