208

C         -6.85780       -3.70800        6.34210
C         -8.17060       -3.43830        6.59440
C         -8.99730       -2.42300        5.91440
O         -8.68410       -1.72300        4.97080
C        -10.28980       -2.40760        6.61660
C        -11.36970       -1.56620        6.35780
C        -12.44240       -1.76060        7.19350
C        -12.44060       -2.72170        8.21410
C        -11.38260       -3.55780        8.47920
C        -10.27950       -3.37880        7.63850
C         -8.98460       -4.05500        7.63060
C         -8.62540       -5.08580        8.45830
C         -7.37350       -5.73750        8.48040
N         -6.38800       -6.31850        8.58360
C         -9.47060       -5.66180        9.43120
N        -10.09530       -6.18470       10.24020
C        -13.83610       -2.36550        8.66080
C        -14.99050       -3.31040        8.24520
C        -14.55120       -3.99010        6.97200
C        -14.55340       -3.08130        6.00610
C        -14.99410       -1.77010        6.60870
C        -15.97720       -2.27880        7.67510
C        -13.83830       -1.29540        7.52370
C         -5.96870       -3.13710        5.40300
C         -4.62540       -3.46360        5.39230
C         -3.87600       -2.76670        4.43310
C         -2.47800       -2.78070        4.21780
C         -1.61950       -3.73250        4.89480
S         -0.08480       -3.28890        5.58450
C          0.24030       -4.90020        6.12490
C          1.48260       -5.25270        6.86560
C          1.65630       -4.39590        8.11830
C         -0.78740       -5.72330        5.77200
F         -0.80050       -7.03800        6.04000
C         -1.83690       -5.07170        5.08230
F         -2.90660       -5.72700        4.61290
C         -1.98040       -1.84260        3.32920
C         -2.79430       -0.96580        2.56210
C         -4.18930       -1.02770        2.70900
C         -5.11500       -0.23790        1.91450
S         -5.04310        1.49200        1.79170
C         -6.48700        1.56710        0.83960
C         -7.09350        2.85540        0.40450
C         -7.62550        3.64390        1.60220
C         -6.97540        0.31260        0.63160
C         -6.20780       -0.70770        1.23920
F         -6.49750       -2.00780        1.11230
F         -8.07910        0.06700       -0.09000
C         -4.69750       -1.89530        3.67340
S         -6.36000       -1.95720        4.17360
C         -2.03090       -0.13780        1.70080
C         -0.68130       -0.33510        1.80760
S         -0.29910       -1.60750        2.96140
C          0.43710        0.25240        1.15210
C          0.55900        1.20190        0.14190
N         -0.45300        1.92090       -0.48570
C         -1.38860        2.67430        0.22200
C         -2.50870        3.17840       -0.44010
C         -3.40830        3.99350        0.21460
C         -3.22710        4.29790        1.55710
S         -4.32370        5.33560        2.47480
C         -5.05280        6.39150        1.18490
C         -2.14250        3.75310        2.23710
C         -1.22860        2.96020        1.57940
C         -0.19490        2.20030       -1.84690
C         -0.19200        3.49900       -2.35220
C          0.25930        3.74150       -3.63150
C          0.74100        2.70050       -4.41840
S          1.48250        3.09970       -5.97430
C          2.78040        1.83290       -6.09910
C          0.65120        1.39470       -3.95450
C          0.17730        1.14880       -2.68210
C          1.91180        1.33060       -0.26860
S          2.71580        2.34810       -1.41560
C          4.23610        1.51420       -1.11190
C          4.14140        0.63390       -0.01720
N          5.18300       -0.04180        0.57300
C          4.86590       -1.22970        1.26340
C          5.23770       -1.40700        2.59470
C          4.78870       -2.50540        3.29330
C          3.96360       -3.44360        2.67740
S          3.34600       -4.75960        3.67640
C          1.82190       -5.24010        2.81300
C          3.66090       -3.31280        1.32900
C          4.11090       -2.21150        0.62840
C          6.45000        0.53250        0.74260
C          6.61960        1.91160        0.83440
C          7.87870        2.45720        0.98290
C          8.99560        1.63230        1.04960
S         10.64590        2.21050        1.24070
C         10.49470        4.01690        1.13570
C          8.82720        0.24900        0.97590
C          7.57360       -0.29500        0.82320
C          2.80480        0.52850        0.42140
S          2.00190       -0.39020        1.64380
C          5.28010        1.56520       -2.05920
S          6.46020        0.28080       -2.10250
C          7.13430        0.85180       -3.60670
C          6.51380        2.01970       -4.01120
C          7.00030        2.86760       -5.12020
O          8.12750        2.79480       -5.57180
C          6.01240        3.86060       -5.54170
C          6.02850        4.53780       -6.73150
C          6.90950        4.31530       -7.90650
C          6.26460        3.29410       -8.84850
S          4.71490        5.66450       -6.81920
C          4.16710        5.26140       -5.22820
C          3.02580        5.99660       -4.62970
C          3.49510        7.32770       -4.03530
C          4.94360        4.27040       -4.67990
C          4.69810        3.64260       -3.38640
O          3.89420        4.08730       -2.57090
C          5.46150        2.42210       -3.15660
C          8.19940        0.11480       -4.18010
C          8.45320       -0.03900       -5.50870
C          7.50130        0.25270       -6.60990
O          6.38480        0.72930       -6.53120
C          8.15000       -0.23750       -7.83720
C          7.62880       -0.20400       -9.12970
C          8.47330       -0.70560      -10.08970
C          9.74500       -1.21200       -9.78880
C         10.26690       -1.26410       -8.51860
C          9.42300       -0.75850       -7.52570
C          9.63350       -0.65110       -6.08550
C         10.77390       -1.00800       -5.41420
C         10.98700       -0.85960       -4.02680
N         11.24520       -0.77550       -2.91070
C         11.91340       -1.57830       -6.01930
N         12.87090       -2.05380       -6.43850
C         10.03870       -1.55090      -11.22840
C          9.93140       -3.03540      -11.65610
C          8.94790       -3.68260      -10.71300
C          7.74270       -3.20660      -10.99590
C          7.88930       -2.22930      -12.13600
C          9.04870       -2.88260      -12.90510
C          8.62070       -0.98960      -11.56360
H         -6.38050       -4.45540        6.96450
H        -11.32430       -0.83650        5.56460
H        -11.39800       -4.28580        9.27260
H        -13.93280       -2.01900        9.68780
H        -15.34800       -3.96130        9.03830
H        -14.23890       -5.01650        6.91880
H        -14.24270       -3.19630        4.98420
H        -15.35580       -1.01850        5.91190
H        -16.27060       -1.51530        8.39440
H        -16.86500       -2.73880        7.24400
H        -13.93670       -0.24950        7.80830
H         -4.20820       -4.16540        6.09180
H          1.43070       -6.30930        7.13580
H          2.34650       -5.10820        6.21070
H          0.81690       -4.53430        8.79570
H          1.71600       -3.34420        7.84800
H          2.56970       -4.67590        8.63540
H         -7.90880        2.63250       -0.28710
H         -6.34600        3.44930       -0.12610
H         -8.09330        4.56690        1.26820
H         -8.36660        3.05660        2.13830
H         -6.81530        3.88490        2.28660
H         -2.47690        0.57660        1.03530
H         -2.66730        2.93680       -1.48050
H         -4.24740        4.38920       -0.33470
H         -5.80710        5.84790        0.62460
H         -5.51660        7.22070        1.70940
H         -4.26570        6.75690        0.53290
H         -2.01090        3.97830        3.28390
H         -0.37090        2.58130        2.11230
H         -0.49300        4.32240       -1.72280
H          0.28320        4.74870       -4.01600
H          3.51290        2.20600       -6.80760
H          2.36790        0.89630       -6.46230
H          3.24440        1.70330       -5.12620
H          0.96410        0.56820       -4.57280
H          0.13500        0.13590       -2.30860
H          5.84560       -0.66100        3.08390
H          5.04420       -2.63240        4.33370
H          1.24400       -4.34770        2.59040
H          1.27740       -5.87810        3.50220
H          2.05520       -5.79830        1.91120
H          3.06680       -4.05370        0.81910
H          3.85900       -2.09420       -0.41550
H          5.76080        2.56500        0.79370
H          7.97200        3.52870        1.05360
H          9.92250        4.39630        1.97740
H         10.04120        4.29530        0.18910
H         11.51070        4.39640        1.18250
H          9.69640       -0.38780        1.02490
H          7.45040       -1.36480        0.75110
H          7.86920        3.93300       -7.55690
H          7.06950        5.25670       -8.43580
H          5.31300        3.66690       -9.22360
H          6.09130        2.36530       -8.30970
H          6.92160        3.09680       -9.69170
H          2.27170        6.18300       -5.39720
H          2.59660        5.38410       -3.83590
H          2.64910        7.86400       -3.61430
H          3.95670        7.94780       -4.80110
H          4.21910        7.14740       -3.24480
H          8.83080       -0.39820       -3.46490
H          6.64420        0.19160       -9.32370
H         11.24370       -1.66330       -8.30280
H         10.90100       -1.05360      -11.66780
H         10.88590       -3.54070      -11.77540
H          9.22910       -4.35540       -9.92410
H          6.81530       -3.40210      -10.49000
H          6.98410       -2.00220      -12.69310
H          8.77470       -3.83950      -13.34670
H          9.48280       -2.23660      -13.66690
H          8.55670       -0.12820      -12.22570
