
  xtb     02152221473D
 energy: -207.385893206685 gnorm: 0.000494639032 xtb: 6.4.1 (unknown)
122135  0     0  0            999 V2000
   -6.7744    1.0142    0.6741 C   0  0  0  0  0  0  0  0  0  0  0  0
   -7.6891    0.0412    0.9515 C   0  0  0  0  0  0  0  0  0  0  0  0
   -7.4757   -1.4257    1.0327 C   0  0  0  0  0  0  0  0  0  0  0  0
   -6.5508   -2.0860    0.6057 O   0  0  0  0  0  0  0  0  0  0  0  0
   -8.6278   -1.9538    1.7841 C   0  0  0  0  0  0  0  0  0  0  0  0
   -8.8132   -3.2720    2.1980 C   0  0  0  0  0  0  0  0  0  0  0  0
   -9.9703   -3.4763    2.9090 C   0  0  0  0  0  0  0  0  0  0  0  0
  -10.8789   -2.4460    3.1902 C   0  0  0  0  0  0  0  0  0  0  0  0
  -10.7152   -1.1454    2.7772 C   0  0  0  0  0  0  0  0  0  0  0  0
   -9.5426   -0.9159    2.0497 C   0  0  0  0  0  0  0  0  0  0  0  0
   -9.0285    0.3127    1.4560 C   0  0  0  0  0  0  0  0  0  0  0  0
   -9.7215    1.4852    1.3202 C   0  0  0  0  0  0  0  0  0  0  0  0
  -11.0304    1.6951    1.8039 C   0  0  0  0  0  0  0  0  0  0  0  0
  -12.0886    1.9355    2.1782 N   0  0  0  0  0  0  0  0  0  0  0  0
   -9.2579    2.6257    0.6282 C   0  0  0  0  0  0  0  0  0  0  0  0
   -8.9647    3.5790    0.0595 N   0  0  0  0  0  0  0  0  0  0  0  0
  -11.7965   -3.3590    3.9644 C   0  0  0  0  0  0  0  0  0  0  0  0
  -11.7265   -3.2609    5.5035 C   0  0  0  0  0  0  0  0  0  0  0  0
  -12.3441   -4.5571    5.9764 C   0  0  0  0  0  0  0  0  0  0  0  0
  -11.4886   -5.5344    5.7054 C   0  0  0  0  0  0  0  0  0  0  0  0
  -10.2779   -4.9152    5.0452 C   0  0  0  0  0  0  0  0  0  0  0  0
  -10.2458   -3.5629    5.7689 C   0  0  0  0  0  0  0  0  0  0  0  0
  -10.7869   -4.5082    3.6458 C   0  0  0  0  0  0  0  0  0  0  0  0
   -5.4388    0.9024    0.2209 C   0  0  0  0  0  0  0  0  0  0  0  0
   -4.7508   -0.1305   -0.3783 C   0  0  0  0  0  0  0  0  0  0  0  0
   -3.4081    0.1631   -0.6377 C   0  0  0  0  0  0  0  0  0  0  0  0
   -2.2873   -1.0192   -1.2793 S   0  0  0  0  0  0  0  0  0  0  0  0
   -2.8582   -2.5402   -0.4178 C   0  0  0  0  0  0  0  0  0  0  0  0
   -2.7949   -2.4139    1.0900 C   0  0  0  0  0  0  0  0  0  0  0  0
   -3.0482    1.4505   -0.2465 C   0  0  0  0  0  0  0  0  0  0  0  0
   -4.4019    2.2941    0.4219 S   0  0  0  0  0  0  0  0  0  0  0  0
   -1.7492    2.0646   -0.3024 C   0  0  0  0  0  0  0  0  0  0  0  0
   -1.2954    2.9355    0.6774 C   0  0  0  0  0  0  0  0  0  0  0  0
   -2.0921    3.2655    1.7087 F   0  0  0  0  0  0  0  0  0  0  0  0
    0.0031    3.4505    0.6820 C   0  0  0  0  0  0  0  0  0  0  0  0
    0.3479    4.2336    1.7188 F   0  0  0  0  0  0  0  0  0  0  0  0
    0.9355    3.1239   -0.2906 C   0  0  0  0  0  0  0  0  0  0  0  0
    0.4811    2.2814   -1.3452 C   0  0  0  0  0  0  0  0  0  0  0  0
    1.3190    1.9859   -2.3483 N   0  0  0  0  0  0  0  0  0  0  0  0
    0.9045    1.2646   -3.3605 C   0  0  0  0  0  0  0  0  0  0  0  0
    1.9215    0.9698   -4.4174 C   0  0  0  0  0  0  0  0  0  0  0  0
    2.8790   -0.1274   -3.9439 C   0  0  0  0  0  0  0  0  0  0  0  0
   -0.4515    0.8262   -3.4174 C   0  0  0  0  0  0  0  0  0  0  0  0
   -1.2719    1.0864   -2.4286 N   0  0  0  0  0  0  0  0  0  0  0  0
   -0.8442    1.7837   -1.3666 C   0  0  0  0  0  0  0  0  0  0  0  0
   -1.0525    0.0981   -4.5805 C   0  0  0  0  0  0  0  0  0  0  0  0
   -0.6561   -1.3787   -4.6063 C   0  0  0  0  0  0  0  0  0  0  0  0
    2.3057    3.5550   -0.2450 C   0  0  0  0  0  0  0  0  0  0  0  0
    2.8184    4.6815    0.3728 C   0  0  0  0  0  0  0  0  0  0  0  0
    4.2016    4.7436    0.2933 C   0  0  0  0  0  0  0  0  0  0  0  0
    5.1468    6.0728    0.9858 S   0  0  0  0  0  0  0  0  0  0  0  0
    5.5567    5.3272    2.6107 C   0  0  0  0  0  0  0  0  0  0  0  0
    4.3433    5.2225    3.5103 C   0  0  0  0  0  0  0  0  0  0  0  0
    4.7788    3.6553   -0.3774 C   0  0  0  0  0  0  0  0  0  0  0  0
    3.5383    2.5761   -0.9585 S   0  0  0  0  0  0  0  0  0  0  0  0
    6.1715    3.5057   -0.4911 C   0  0  0  0  0  0  0  0  0  0  0  0
    6.9101    2.5046   -1.0575 C   0  0  0  0  0  0  0  0  0  0  0  0
    6.3808    1.3704   -1.8239 C   0  0  0  0  0  0  0  0  0  0  0  0
    5.2118    1.0636   -1.9800 O   0  0  0  0  0  0  0  0  0  0  0  0
    7.5466    0.6695   -2.3845 C   0  0  0  0  0  0  0  0  0  0  0  0
    7.5319   -0.4475   -3.2167 C   0  0  0  0  0  0  0  0  0  0  0  0
    8.7808   -0.8862   -3.5842 C   0  0  0  0  0  0  0  0  0  0  0  0
    9.9590   -0.2557   -3.1612 C   0  0  0  0  0  0  0  0  0  0  0  0
    9.9871    0.8488   -2.3431 C   0  0  0  0  0  0  0  0  0  0  0  0
    8.7267    1.3068   -1.9492 C   0  0  0  0  0  0  0  0  0  0  0  0
    8.3590    2.4135   -1.0681 C   0  0  0  0  0  0  0  0  0  0  0  0
    9.2307    3.1557   -0.3157 C   0  0  0  0  0  0  0  0  0  0  0  0
    8.8619    4.1099    0.6568 C   0  0  0  0  0  0  0  0  0  0  0  0
    8.6490    4.8602    1.4999 N   0  0  0  0  0  0  0  0  0  0  0  0
   10.6343    3.0175   -0.3535 C   0  0  0  0  0  0  0  0  0  0  0  0
   11.7809    2.9614   -0.3355 N   0  0  0  0  0  0  0  0  0  0  0  0
   10.8403   -1.2325   -3.8983 C   0  0  0  0  0  0  0  0  0  0  0  0
   11.5419   -2.3363   -3.0685 C   0  0  0  0  0  0  0  0  0  0  0  0
   10.6826   -2.5698   -1.8507 C   0  0  0  0  0  0  0  0  0  0  0  0
    9.5677   -3.1669   -2.2502 C   0  0  0  0  0  0  0  0  0  0  0  0
    9.6529   -3.3478   -3.7457 C   0  0  0  0  0  0  0  0  0  0  0  0
   11.1654   -3.5692   -3.9058 C   0  0  0  0  0  0  0  0  0  0  0  0
    9.5278   -1.9352   -4.3688 C   0  0  0  0  0  0  0  0  0  0  0  0
   -7.0700    2.0352    0.8875 H   0  0  0  0  0  0  0  0  0  0  0  0
   -8.0873   -4.0340    1.9609 H   0  0  0  0  0  0  0  0  0  0  0  0
  -11.4222   -0.3640    3.0001 H   0  0  0  0  0  0  0  0  0  0  0  0
  -12.8148   -3.4389    3.5893 H   0  0  0  0  0  0  0  0  0  0  0  0
  -12.1338   -2.3438    5.9198 H   0  0  0  0  0  0  0  0  0  0  0  0
  -13.3302   -4.6338    6.3952 H   0  0  0  0  0  0  0  0  0  0  0  0
  -11.6171   -6.5907    5.8524 H   0  0  0  0  0  0  0  0  0  0  0  0
   -9.3654   -5.5054    5.0442 H   0  0  0  0  0  0  0  0  0  0  0  0
   -9.5592   -2.8407    5.3309 H   0  0  0  0  0  0  0  0  0  0  0  0
  -10.0321   -3.6699    6.8311 H   0  0  0  0  0  0  0  0  0  0  0  0
  -11.1307   -5.3544    3.0541 H   0  0  0  0  0  0  0  0  0  0  0  0
   -5.2147   -1.0669   -0.6204 H   0  0  0  0  0  0  0  0  0  0  0  0
   -2.1655   -3.3012   -0.7771 H   0  0  0  0  0  0  0  0  0  0  0  0
   -3.8619   -2.7870   -0.7575 H   0  0  0  0  0  0  0  0  0  0  0  0
   -1.8016   -2.1030    1.4076 H   0  0  0  0  0  0  0  0  0  0  0  0
   -3.0240   -3.3741    1.5474 H   0  0  0  0  0  0  0  0  0  0  0  0
   -3.5218   -1.6869    1.4461 H   0  0  0  0  0  0  0  0  0  0  0  0
    2.5013    1.8770   -4.5945 H   0  0  0  0  0  0  0  0  0  0  0  0
    1.4362    0.6719   -5.3461 H   0  0  0  0  0  0  0  0  0  0  0  0
    2.3335   -1.0233   -3.6553 H   0  0  0  0  0  0  0  0  0  0  0  0
    3.5688   -0.3823   -4.7450 H   0  0  0  0  0  0  0  0  0  0  0  0
    3.4482    0.2244   -3.0892 H   0  0  0  0  0  0  0  0  0  0  0  0
   -2.1355    0.1701   -4.4761 H   0  0  0  0  0  0  0  0  0  0  0  0
   -0.7571    0.5788   -5.5154 H   0  0  0  0  0  0  0  0  0  0  0  0
   -1.1845   -1.8855   -5.4099 H   0  0  0  0  0  0  0  0  0  0  0  0
    0.4111   -1.4994   -4.7665 H   0  0  0  0  0  0  0  0  0  0  0  0
   -0.9247   -1.8471   -3.6633 H   0  0  0  0  0  0  0  0  0  0  0  0
    2.2249    5.4387    0.8515 H   0  0  0  0  0  0  0  0  0  0  0  0
    6.3088    5.9967    3.0241 H   0  0  0  0  0  0  0  0  0  0  0  0
    6.0122    4.3554    2.4234 H   0  0  0  0  0  0  0  0  0  0  0  0
    3.5928    4.5642    3.0760 H   0  0  0  0  0  0  0  0  0  0  0  0
    4.6374    4.8202    4.4777 H   0  0  0  0  0  0  0  0  0  0  0  0
    3.8969    6.2025    3.6618 H   0  0  0  0  0  0  0  0  0  0  0  0
    6.7179    4.3314   -0.0465 H   0  0  0  0  0  0  0  0  0  0  0  0
    6.6006   -0.9007   -3.5191 H   0  0  0  0  0  0  0  0  0  0  0  0
   10.9019    1.3248   -2.0321 H   0  0  0  0  0  0  0  0  0  0  0  0
   11.4926   -0.8076   -4.6584 H   0  0  0  0  0  0  0  0  0  0  0  0
   12.5978   -2.1592   -2.8836 H   0  0  0  0  0  0  0  0  0  0  0  0
   10.9411   -2.2359   -0.8629 H   0  0  0  0  0  0  0  0  0  0  0  0
    8.7079   -3.4314   -1.6629 H   0  0  0  0  0  0  0  0  0  0  0  0
    8.9893   -4.0922   -4.1780 H   0  0  0  0  0  0  0  0  0  0  0  0
   11.5055   -3.5127   -4.9389 H   0  0  0  0  0  0  0  0  0  0  0  0
   11.5041   -4.5020   -3.4575 H   0  0  0  0  0  0  0  0  0  0  0  0
    9.3226   -1.9693   -5.4370 H   0  0  0  0  0  0  0  0  0  0  0  0
  1  2  2  0  0  0  0
  2  3  1  0  0  0  0
  3  4  2  0  0  0  0
  3  5  1  0  0  0  0
  5  6  2  0  0  0  0
  6  7  1  0  0  0  0
  7  8  2  0  0  0  0
  8  9  1  0  0  0  0
  9 10  2  0  0  0  0
 10 11  1  0  0  0  0
 11 12  2  0  0  0  0
 12 13  1  0  0  0  0
 13 14  3  0  0  0  0
 12 15  1  0  0  0  0
 15 16  3  0  0  0  0
  8 17  1  0  0  0  0
 17 18  1  0  0  0  0
 18 19  1  0  0  0  0
 19 20  2  0  0  0  0
 20 21  1  0  0  0  0
 21 22  1  0  0  0  0
 21 23  1  0  0  0  0
  1 24  1  0  0  0  0
 24 25  2  0  0  0  0
 25 26  1  0  0  0  0
 26 27  1  0  0  0  0
 27 28  1  0  0  0  0
 28 29  1  0  0  0  0
 26 30  2  0  0  0  0
 30 31  1  0  0  0  0
 30 32  1  0  0  0  0
 32 33  2  0  0  0  0
 33 34  1  0  0  0  0
 33 35  1  0  0  0  0
 35 36  1  0  0  0  0
 35 37  2  0  0  0  0
 37 38  1  0  0  0  0
 38 39  2  0  0  0  0
 39 40  1  0  0  0  0
 40 41  1  0  0  0  0
 41 42  1  0  0  0  0
 40 43  2  0  0  0  0
 43 44  1  0  0  0  0
 44 45  2  0  0  0  0
 43 46  1  0  0  0  0
 46 47  1  0  0  0  0
 37 48  1  0  0  0  0
 48 49  2  0  0  0  0
 49 50  1  0  0  0  0
 50 51  1  0  0  0  0
 51 52  1  0  0  0  0
 52 53  1  0  0  0  0
 50 54  2  0  0  0  0
 54 55  1  0  0  0  0
 54 56  1  0  0  0  0
 56 57  2  0  0  0  0
 57 58  1  0  0  0  0
 58 59  2  0  0  0  0
 58 60  1  0  0  0  0
 60 61  2  0  0  0  0
 61 62  1  0  0  0  0
 62 63  2  0  0  0  0
 63 64  1  0  0  0  0
 64 65  2  0  0  0  0
 65 66  1  0  0  0  0
 66 67  2  0  0  0  0
 67 68  1  0  0  0  0
 68 69  3  0  0  0  0
 67 70  1  0  0  0  0
 70 71  3  0  0  0  0
 63 72  1  0  0  0  0
 72 73  1  0  0  0  0
 73 74  1  0  0  0  0
 74 75  2  0  0  0  0
 75 76  1  0  0  0  0
 76 77  1  0  0  0  0
 76 78  1  0  0  0  0
 11  2  1  0  0  0  0
 23 17  1  0  0  0  0
 31 24  1  0  0  0  0
 45 32  1  0  0  0  0
 55 48  1  0  0  0  0
 66 57  1  0  0  0  0
 78 72  1  0  0  0  0
 10  5  1  0  0  0  0
 22 18  1  0  0  0  0
 45 38  1  0  0  0  0
 65 60  1  0  0  0  0
 77 73  1  0  0  0  0
 23  7  1  0  0  0  0
 78 62  1  0  0  0  0
  1 79  1  0  0  0  0
  6 80  1  0  0  0  0
  9 81  1  0  0  0  0
 17 82  1  0  0  0  0
 18 83  1  0  0  0  0
 19 84  1  0  0  0  0
 20 85  1  0  0  0  0
 21 86  1  0  0  0  0
 22 87  1  0  0  0  0
 22 88  1  0  0  0  0
 23 89  1  0  0  0  0
 25 90  1  0  0  0  0
 28 91  1  0  0  0  0
 28 92  1  0  0  0  0
 29 93  1  0  0  0  0
 29 94  1  0  0  0  0
 29 95  1  0  0  0  0
 41 96  1  0  0  0  0
 41 97  1  0  0  0  0
 42 98  1  0  0  0  0
 42 99  1  0  0  0  0
 42100  1  0  0  0  0
 46101  1  0  0  0  0
 46102  1  0  0  0  0
 47103  1  0  0  0  0
 47104  1  0  0  0  0
 47105  1  0  0  0  0
 49106  1  0  0  0  0
 52107  1  0  0  0  0
 52108  1  0  0  0  0
 53109  1  0  0  0  0
 53110  1  0  0  0  0
 53111  1  0  0  0  0
 56112  1  0  0  0  0
 61113  1  0  0  0  0
 64114  1  0  0  0  0
 72115  1  0  0  0  0
 73116  1  0  0  0  0
 74117  1  0  0  0  0
 75118  1  0  0  0  0
 76119  1  0  0  0  0
 77120  1  0  0  0  0
 77121  1  0  0  0  0
 78122  1  0  0  0  0
M  END
