143

C         -1.28530        6.36330       -1.45050
C         -2.37370        6.29420       -0.63100
C         -2.71930        7.47270        0.20630
O         -2.34140        8.61310        0.04890
C         -3.53410        6.93200        1.31110
C         -3.97310        7.61410        2.44370
C         -4.68360        6.83610        3.32560
C         -4.95410        5.48050        3.09510
C         -4.53980        4.79720        1.97710
C         -3.79420        5.56480        1.07880
C         -3.19390        5.18940       -0.19710
C         -3.52910        4.09800       -0.95890
C         -4.29360        3.01110       -0.49850
N         -4.86880        2.07690       -0.15790
C         -3.19280        4.00220       -2.32480
N         -2.99250        3.93380       -3.45360
C         -5.71300        5.32900        4.38940
C         -7.25260        5.29710        4.28720
C         -7.71530        5.62590        5.68820
C         -7.46140        6.90990        5.90600
C         -6.82280        7.47080        4.65590
C         -7.54520        6.63340        3.59250
C         -5.41370        6.84100        4.64550
C         -0.42790        5.34160       -1.90260
C          0.72840        5.53030       -2.64260
C          1.51810        4.39360       -2.75680
S          3.05040        4.40180       -3.64160
C          2.45820        3.97320       -5.32200
C          1.53710        5.02380       -5.90470
C          1.02470        3.29280       -2.05100
S         -0.51270        3.68800       -1.34910
C          1.60920        2.01490       -1.90850
C          1.25250        0.94490       -1.07430
N          0.29200        0.90180       -0.08340
C          0.03460        1.94140        0.80630
C          0.99860        2.90490        1.10530
C          0.68900        3.98630        1.90660
C         -0.58580        4.11410        2.44080
S         -1.09370        5.49810        3.41680
C         -0.07080        6.84120        2.74350
C         -1.52660        3.11340        2.21170
C         -1.22840        2.04620        1.39770
C         -0.35600       -0.34200        0.10380
C         -0.90470       -1.00400       -0.99360
C         -1.48950       -2.23940       -0.83330
C         -1.54620       -2.83630        0.42570
S         -2.29340       -4.42780        0.51640
C         -2.72340       -4.59750        2.27210
C         -1.00840       -2.17290        1.52300
C         -0.41940       -0.93420        1.36110
C          2.02690       -0.19910       -1.37880
S          2.10300       -1.79130       -0.71420
C          3.39490       -2.24260       -1.82670
C          3.77360       -1.15220       -2.62780
N          4.77560       -1.14790       -3.57430
C          6.01870       -1.75390       -3.34840
C          6.73680       -2.29190       -4.41760
C          7.96270       -2.87910       -4.20270
C          8.50090       -2.95020       -2.91800
S         10.07390       -3.73270       -2.77160
C         10.43720       -3.66580       -0.99450
C          7.79000       -2.41260       -1.85260
C          6.56400       -1.81560       -2.06870
C          4.58200       -0.35550       -4.71980
C          3.35500       -0.38560       -5.37700
C          3.12350        0.41370       -6.47870
C          4.12440        1.25470       -6.94600
S          3.94210        2.34070       -8.32460
C          2.24070        2.05620       -8.88890
C          5.36110        1.27260       -6.30160
C          5.59010        0.47900       -5.20090
C          2.96950       -0.01990       -2.37410
S          2.96290        1.60390       -2.96940
C          3.88990       -3.55710       -1.95130
C          3.56150       -4.68780       -1.25360
C          2.68720       -4.78630       -0.15560
C          2.35510       -5.95610        0.46810
C          1.47370       -5.96480        1.56250
C          1.06940       -7.06690        2.26570
C          0.14440       -6.98030        3.40020
O         -0.36050       -5.97570        3.86410
C         -0.05170       -8.37460        3.87260
C         -0.83000       -8.85120        4.90840
C         -0.83660      -10.22110        5.14940
Cl        -1.79420      -10.84850        6.43220
C         -0.07440      -11.08950        4.36180
Cl        -0.10030      -12.77830        4.68290
C          0.70780      -10.60370        3.31880
C          0.71100       -9.24380        3.08360
C          1.45120       -8.46810        2.04710
O          2.20700       -8.92540        1.21600
H         -0.93870        7.37070       -1.66370
H         -3.75180        8.66090        2.58190
H         -4.75510        3.75510        1.80450
H         -5.31500        4.59520        5.08750
H         -7.66040        4.39720        3.83500
H         -8.11540        4.90180        6.37340
H         -7.60720        7.47250        6.80960
H         -6.84040        8.55120        4.54030
H         -7.11770        6.71790        2.59510
H         -8.61120        6.85120        3.55150
H         -4.81700        7.11270        5.51400
H          1.00180        6.47740       -3.07160
H          1.97920        2.99580       -5.25970
H          3.37730        3.88570       -5.89980
H          0.60440        5.07840       -5.34630
H          1.30530        4.77570       -6.93860
H          2.01680        5.99950       -5.88490
H          1.99280        2.81700        0.69250
H          1.44810        4.72580        2.10670
H         -0.55220        7.76530        3.04710
H         -0.05530        6.77190        1.66000
H          0.93420        6.79830        3.15340
H         -2.50310        3.20080        2.66090
H         -1.98290        1.30480        1.18400
H         -0.86980       -0.53840       -1.96780
H         -1.91670       -2.75640       -1.67820
H         -3.41990       -5.42930        2.31990
H         -1.84360       -4.82800        2.86720
H         -3.20990       -3.68790        2.61070
H         -1.02630       -2.62350        2.50250
H          0.00930       -0.42530        2.21190
H          6.32320       -2.24810       -5.41390
H          8.51830       -3.29770       -5.02740
H         11.39900       -4.15540       -0.87660
H          9.67750       -4.20760       -0.43880
H         10.50820       -2.63260       -0.66730
H          8.18170       -2.44140       -0.84900
H          6.02380       -1.39150       -1.23550
H          2.57480       -1.04190       -5.01910
H          2.16150        0.36590       -6.96240
H          2.12420        1.02690       -9.21490
H          2.09830        2.72590       -9.73140
H          1.53860        2.30350       -8.09810
H          6.13470        1.92820       -6.67010
H          6.54490        0.50980       -4.69870
H          4.60870       -3.67740       -2.75270
H          4.02560       -5.60980       -1.57870
H          2.24720       -3.88160        0.23860
H          2.75920       -6.89850        0.12830
H          1.06930       -5.01090        1.88770
H         -1.41750       -8.18200        5.51710
H          1.29540      -11.27380        2.71130
