
  xtb     02052201493D
 energy: -289.868188151988 gnorm: 0.000725214540 xtb: 6.4.1 (unknown)
178197  0     0  0            999 V2000
   -3.2600   -1.1378    7.7196 C   0  0  0  0  0  0  0  0  0  0  0  0
   -2.7606   -0.2520    8.6432 C   0  0  0  0  0  0  0  0  0  0  0  0
   -1.7020    0.7312    8.4038 C   0  0  0  0  0  0  0  0  0  0  0  0
   -1.1332    0.9717    7.3495 O   0  0  0  0  0  0  0  0  0  0  0  0
   -1.4388    1.3820    9.6975 C   0  0  0  0  0  0  0  0  0  0  0  0
   -0.4909    2.3662    9.9653 C   0  0  0  0  0  0  0  0  0  0  0  0
   -0.4592    2.7698   11.2786 C   0  0  0  0  0  0  0  0  0  0  0  0
   -1.3056    2.2296   12.2553 C   0  0  0  0  0  0  0  0  0  0  0  0
   -2.2479    1.2602   12.0032 C   0  0  0  0  0  0  0  0  0  0  0  0
   -2.3020    0.8408   10.6718 C   0  0  0  0  0  0  0  0  0  0  0  0
   -3.1648   -0.1509   10.0303 C   0  0  0  0  0  0  0  0  0  0  0  0
   -4.1995   -0.8138   10.6413 C   0  0  0  0  0  0  0  0  0  0  0  0
   -4.5656   -0.6504   11.9933 C   0  0  0  0  0  0  0  0  0  0  0  0
   -4.9271   -0.5693   13.0803 N   0  0  0  0  0  0  0  0  0  0  0  0
   -5.0711   -1.7315   10.0191 C   0  0  0  0  0  0  0  0  0  0  0  0
   -5.8298   -2.4805    9.5901 N   0  0  0  0  0  0  0  0  0  0  0  0
   -0.7305    3.0959   13.3473 C   0  0  0  0  0  0  0  0  0  0  0  0
   -1.5583    4.3220   13.8051 C   0  0  0  0  0  0  0  0  0  0  0  0
   -2.4142    4.7243   12.6298 C   0  0  0  0  0  0  0  0  0  0  0  0
   -1.6151    5.2379   11.7042 C   0  0  0  0  0  0  0  0  0  0  0  0
   -0.2042    5.1922   12.2368 C   0  0  0  0  0  0  0  0  0  0  0  0
   -0.4733    5.4085   13.7345 C   0  0  0  0  0  0  0  0  0  0  0  0
    0.2110    3.7001   12.2582 C   0  0  0  0  0  0  0  0  0  0  0  0
   -2.9747   -1.2721    6.3546 C   0  0  0  0  0  0  0  0  0  0  0  0
   -3.5925   -2.2353    5.5565 C   0  0  0  0  0  0  0  0  0  0  0  0
   -3.2473   -2.1631    4.2150 C   0  0  0  0  0  0  0  0  0  0  0  0
   -3.7091   -3.2656    2.9287 S   0  0  0  0  0  0  0  0  0  0  0  0
   -4.5513   -4.6196    3.8216 C   0  0  0  0  0  0  0  0  0  0  0  0
   -6.0108   -4.3227    4.1065 C   0  0  0  0  0  0  0  0  0  0  0  0
   -2.3639   -1.1131    3.9598 C   0  0  0  0  0  0  0  0  0  0  0  0
   -1.9088   -0.2737    5.4015 S   0  0  0  0  0  0  0  0  0  0  0  0
   -1.8692   -0.6633    2.7037 C   0  0  0  0  0  0  0  0  0  0  0  0
   -2.5764   -0.4102    1.5360 C   0  0  0  0  0  0  0  0  0  0  0  0
   -3.9487   -0.5132    1.3954 N   0  0  0  0  0  0  0  0  0  0  0  0
   -4.7909   -0.2283    2.4779 C   0  0  0  0  0  0  0  0  0  0  0  0
   -4.4528    0.7602    3.3993 C   0  0  0  0  0  0  0  0  0  0  0  0
   -5.1970    0.9425    4.5481 C   0  0  0  0  0  0  0  0  0  0  0  0
   -6.3090    0.1473    4.7873 C   0  0  0  0  0  0  0  0  0  0  0  0
   -7.2713    0.2203    6.2671 S   0  0  0  0  0  0  0  0  0  0  0  0
   -6.1950    1.1117    7.4240 C   0  0  0  0  0  0  0  0  0  0  0  0
   -6.7096   -0.7719    3.8199 C   0  0  0  0  0  0  0  0  0  0  0  0
   -5.9603   -0.9613    2.6804 C   0  0  0  0  0  0  0  0  0  0  0  0
   -4.4666   -0.8831    0.1491 C   0  0  0  0  0  0  0  0  0  0  0  0
   -5.6247   -0.2928   -0.3475 C   0  0  0  0  0  0  0  0  0  0  0  0
   -6.1075   -0.6311   -1.5967 C   0  0  0  0  0  0  0  0  0  0  0  0
   -5.4329   -1.5623   -2.3745 C   0  0  0  0  0  0  0  0  0  0  0  0
   -5.9299   -2.0508   -3.9974 S   0  0  0  0  0  0  0  0  0  0  0  0
   -7.4448   -1.0991   -4.3016 C   0  0  0  0  0  0  0  0  0  0  0  0
   -4.2830   -2.1692   -1.8730 C   0  0  0  0  0  0  0  0  0  0  0  0
   -3.8072   -1.8395   -0.6248 C   0  0  0  0  0  0  0  0  0  0  0  0
   -1.7169    0.1096    0.5365 C   0  0  0  0  0  0  0  0  0  0  0  0
   -1.9327    0.5980   -1.1080 S   0  0  0  0  0  0  0  0  0  0  0  0
   -0.2587    1.1109   -1.1994 C   0  0  0  0  0  0  0  0  0  0  0  0
    0.4412    0.8641   -0.0335 C   0  0  0  0  0  0  0  0  0  0  0  0
    1.7999    1.0701    0.1608 N   0  0  0  0  0  0  0  0  0  0  0  0
    2.7069    0.9006   -0.8938 C   0  0  0  0  0  0  0  0  0  0  0  0
    2.5206   -0.1015   -1.8421 C   0  0  0  0  0  0  0  0  0  0  0  0
    3.3302   -0.1810   -2.9578 C   0  0  0  0  0  0  0  0  0  0  0  0
    4.3595    0.7325   -3.1350 C   0  0  0  0  0  0  0  0  0  0  0  0
    5.3988    0.7912   -4.5605 S   0  0  0  0  0  0  0  0  0  0  0  0
    4.7869   -0.5470   -5.6182 C   0  0  0  0  0  0  0  0  0  0  0  0
    4.6024    1.6842   -2.1461 C   0  0  0  0  0  0  0  0  0  0  0  0
    3.7878    1.7706   -1.0401 C   0  0  0  0  0  0  0  0  0  0  0  0
    2.2446    1.3903    1.4503 C   0  0  0  0  0  0  0  0  0  0  0  0
    1.4915    2.2359    2.2628 C   0  0  0  0  0  0  0  0  0  0  0  0
    1.8544    2.4635    3.5756 C   0  0  0  0  0  0  0  0  0  0  0  0
    2.9887    1.8564    4.0939 C   0  0  0  0  0  0  0  0  0  0  0  0
    3.4978    2.0401    5.7750 S   0  0  0  0  0  0  0  0  0  0  0  0
    1.9522    2.4550    6.6362 C   0  0  0  0  0  0  0  0  0  0  0  0
    3.7861    1.0701    3.2651 C   0  0  0  0  0  0  0  0  0  0  0  0
    3.4189    0.8350    1.9590 C   0  0  0  0  0  0  0  0  0  0  0  0
   -0.4104    0.3022    0.9537 C   0  0  0  0  0  0  0  0  0  0  0  0
   -0.1855   -0.1744    2.5981 S   0  0  0  0  0  0  0  0  0  0  0  0
    0.2894    1.6024   -2.4517 C   0  0  0  0  0  0  0  0  0  0  0  0
    0.0551    0.8877   -3.6199 C   0  0  0  0  0  0  0  0  0  0  0  0
    0.7745    1.2341   -4.7510 C   0  0  0  0  0  0  0  0  0  0  0  0
    0.8314    0.6082   -5.9695 N   0  0  0  0  0  0  0  0  0  0  0  0
    0.0586   -0.5400   -6.3644 C   0  0  0  0  0  0  0  0  0  0  0  0
   -1.2794   -0.1345   -6.9793 C   0  0  0  0  0  0  0  0  0  0  0  0
    1.7741    1.2442   -6.7402 C   0  0  0  0  0  0  0  0  0  0  0  0
    2.3329    2.3240   -6.0056 C   0  0  0  0  0  0  0  0  0  0  0  0
    1.6881    2.3193   -4.7326 C   0  0  0  0  0  0  0  0  0  0  0  0
    1.8298    3.0895   -3.5826 C   0  0  0  0  0  0  0  0  0  0  0  0
    1.1364    2.7244   -2.4538 C   0  0  0  0  0  0  0  0  0  0  0  0
    3.3323    3.1078   -6.5772 C   0  0  0  0  0  0  0  0  0  0  0  0
    3.7750    2.7961   -7.8391 C   0  0  0  0  0  0  0  0  0  0  0  0
    3.2600    1.6907   -8.5503 C   0  0  0  0  0  0  0  0  0  0  0  0
    2.2186    0.9333   -8.0109 C   0  0  0  0  0  0  0  0  0  0  0  0
    3.8279    1.3829   -9.8337 C   0  0  0  0  0  0  0  0  0  0  0  0
    4.0113    0.1520  -10.3815 C   0  0  0  0  0  0  0  0  0  0  0  0
    3.9670   -1.1498   -9.6640 C   0  0  0  0  0  0  0  0  0  0  0  0
    3.5384   -1.3924   -8.5540 O   0  0  0  0  0  0  0  0  0  0  0  0
    4.6336   -2.1162  -10.5560 C   0  0  0  0  0  0  0  0  0  0  0  0
    4.8934   -3.4570  -10.2783 C   0  0  0  0  0  0  0  0  0  0  0  0
    5.5347   -4.1249  -11.2926 C   0  0  0  0  0  0  0  0  0  0  0  0
    5.8964   -3.5052  -12.4972 C   0  0  0  0  0  0  0  0  0  0  0  0
    5.6439   -2.1857  -12.7857 C   0  0  0  0  0  0  0  0  0  0  0  0
    4.9895   -1.4878  -11.7659 C   0  0  0  0  0  0  0  0  0  0  0  0
    4.5585   -0.0967  -11.7073 C   0  0  0  0  0  0  0  0  0  0  0  0
    4.5790    0.7956  -12.7452 C   0  0  0  0  0  0  0  0  0  0  0  0
    5.0960    0.5166  -14.0277 C   0  0  0  0  0  0  0  0  0  0  0  0
    5.5045    0.3574  -15.0887 N   0  0  0  0  0  0  0  0  0  0  0  0
    4.0457    2.1021  -12.6957 C   0  0  0  0  0  0  0  0  0  0  0  0
    3.6117    3.1640  -12.7468 N   0  0  0  0  0  0  0  0  0  0  0  0
    6.5197   -4.7625  -13.0488 C   0  0  0  0  0  0  0  0  0  0  0  0
    8.0649   -4.8676  -13.0348 C   0  0  0  0  0  0  0  0  0  0  0  0
    8.5449   -3.9946  -11.9019 C   0  0  0  0  0  0  0  0  0  0  0  0
    8.2005   -4.5821  -10.7638 C   0  0  0  0  0  0  0  0  0  0  0  0
    7.4811   -5.8633  -11.1065 C   0  0  0  0  0  0  0  0  0  0  0  0
    8.2247   -6.2553  -12.3934 C   0  0  0  0  0  0  0  0  0  0  0  0
    6.1142   -5.4536  -11.7088 C   0  0  0  0  0  0  0  0  0  0  0  0
   -4.0023   -1.8449    8.0704 H   0  0  0  0  0  0  0  0  0  0  0  0
    0.1432    2.7519    9.1822 H   0  0  0  0  0  0  0  0  0  0  0  0
   -2.8879    0.8538   12.7682 H   0  0  0  0  0  0  0  0  0  0  0  0
   -0.2725    2.5692   14.1821 H   0  0  0  0  0  0  0  0  0  0  0  0
   -2.0750    4.1897   14.7517 H   0  0  0  0  0  0  0  0  0  0  0  0
   -3.4721    4.5467   12.5713 H   0  0  0  0  0  0  0  0  0  0  0  0
   -1.8720    5.5755   10.7171 H   0  0  0  0  0  0  0  0  0  0  0  0
    0.5123    5.8534   11.7563 H   0  0  0  0  0  0  0  0  0  0  0  0
    0.3903    5.2008   14.3649 H   0  0  0  0  0  0  0  0  0  0  0  0
   -0.8583    6.4031   13.9540 H   0  0  0  0  0  0  0  0  0  0  0  0
    1.2843    3.5699   12.3828 H   0  0  0  0  0  0  0  0  0  0  0  0
   -4.2750   -2.9485    5.9813 H   0  0  0  0  0  0  0  0  0  0  0  0
   -4.4552   -5.4748    3.1522 H   0  0  0  0  0  0  0  0  0  0  0  0
   -3.9817   -4.8183    4.7283 H   0  0  0  0  0  0  0  0  0  0  0  0
   -6.4552   -5.1563    4.6468 H   0  0  0  0  0  0  0  0  0  0  0  0
   -6.1221   -3.4211    4.7038 H   0  0  0  0  0  0  0  0  0  0  0  0
   -6.5546   -4.1826    3.1754 H   0  0  0  0  0  0  0  0  0  0  0  0
   -3.5876    1.3826    3.2258 H   0  0  0  0  0  0  0  0  0  0  0  0
   -4.8944    1.7037    5.2490 H   0  0  0  0  0  0  0  0  0  0  0  0
   -6.6394    0.9709    8.4047 H   0  0  0  0  0  0  0  0  0  0  0  0
   -5.1993    0.6776    7.4012 H   0  0  0  0  0  0  0  0  0  0  0  0
   -6.1686    2.1702    7.1805 H   0  0  0  0  0  0  0  0  0  0  0  0
   -7.6023   -1.3542    3.9902 H   0  0  0  0  0  0  0  0  0  0  0  0
   -6.2521   -1.7047    1.9546 H   0  0  0  0  0  0  0  0  0  0  0  0
   -6.1448    0.4445    0.2460 H   0  0  0  0  0  0  0  0  0  0  0  0
   -7.0037   -0.1501   -1.9534 H   0  0  0  0  0  0  0  0  0  0  0  0
   -7.7760   -1.3869   -5.2946 H   0  0  0  0  0  0  0  0  0  0  0  0
   -8.2027   -1.3631   -3.5697 H   0  0  0  0  0  0  0  0  0  0  0  0
   -7.2264   -0.0353   -4.2800 H   0  0  0  0  0  0  0  0  0  0  0  0
   -3.7738   -2.9059   -2.4751 H   0  0  0  0  0  0  0  0  0  0  0  0
   -2.9281   -2.3262   -0.2305 H   0  0  0  0  0  0  0  0  0  0  0  0
    1.7199   -0.8148   -1.7133 H   0  0  0  0  0  0  0  0  0  0  0  0
    3.1426   -0.9548   -3.6846 H   0  0  0  0  0  0  0  0  0  0  0  0
    3.7496   -0.3744   -5.8851 H   0  0  0  0  0  0  0  0  0  0  0  0
    5.3949   -0.5140   -6.5165 H   0  0  0  0  0  0  0  0  0  0  0  0
    4.9175   -1.5042   -5.1221 H   0  0  0  0  0  0  0  0  0  0  0  0
    5.4242    2.3720   -2.2732 H   0  0  0  0  0  0  0  0  0  0  0  0
    3.9651    2.5304   -0.2936 H   0  0  0  0  0  0  0  0  0  0  0  0
    0.6070    2.7115    1.8639 H   0  0  0  0  0  0  0  0  0  0  0  0
    1.2429    3.1082    4.1860 H   0  0  0  0  0  0  0  0  0  0  0  0
    1.6765    3.4885    6.4433 H   0  0  0  0  0  0  0  0  0  0  0  0
    2.1725    2.3282    7.6922 H   0  0  0  0  0  0  0  0  0  0  0  0
    1.1617    1.7726    6.3381 H   0  0  0  0  0  0  0  0  0  0  0  0
    4.6819    0.6233    3.6680 H   0  0  0  0  0  0  0  0  0  0  0  0
    4.0221    0.1976    1.3301 H   0  0  0  0  0  0  0  0  0  0  0  0
   -0.6234    0.0478   -3.6074 H   0  0  0  0  0  0  0  0  0  0  0  0
    0.6469   -1.1191   -7.0809 H   0  0  0  0  0  0  0  0  0  0  0  0
   -0.1112   -1.1629   -5.4818 H   0  0  0  0  0  0  0  0  0  0  0  0
   -1.8647    0.4372   -6.2627 H   0  0  0  0  0  0  0  0  0  0  0  0
   -1.1192    0.4788   -7.8630 H   0  0  0  0  0  0  0  0  0  0  0  0
   -1.8436   -1.0186   -7.2634 H   0  0  0  0  0  0  0  0  0  0  0  0
    2.4957    3.9382   -3.5721 H   0  0  0  0  0  0  0  0  0  0  0  0
    1.2471    3.2923   -1.5429 H   0  0  0  0  0  0  0  0  0  0  0  0
    3.7543    3.9363   -6.0303 H   0  0  0  0  0  0  0  0  0  0  0  0
    4.5622    3.3792   -8.2931 H   0  0  0  0  0  0  0  0  0  0  0  0
    1.7688    0.1431   -8.5874 H   0  0  0  0  0  0  0  0  0  0  0  0
    4.2069    2.2375  -10.3829 H   0  0  0  0  0  0  0  0  0  0  0  0
    4.5984   -3.8945   -9.3371 H   0  0  0  0  0  0  0  0  0  0  0  0
    5.9314   -1.7214  -13.7143 H   0  0  0  0  0  0  0  0  0  0  0  0
    6.0867   -5.1437  -13.9714 H   0  0  0  0  0  0  0  0  0  0  0  0
    8.5368   -4.7040  -13.9998 H   0  0  0  0  0  0  0  0  0  0  0  0
    9.0206   -3.0414  -12.0406 H   0  0  0  0  0  0  0  0  0  0  0  0
    8.3307   -4.2176   -9.7616 H   0  0  0  0  0  0  0  0  0  0  0  0
    7.4219   -6.6071  -10.3162 H   0  0  0  0  0  0  0  0  0  0  0  0
    7.7345   -7.0510  -12.9527 H   0  0  0  0  0  0  0  0  0  0  0  0
    9.2658   -6.5190  -12.2141 H   0  0  0  0  0  0  0  0  0  0  0  0
    5.4148   -6.2860  -11.7562 H   0  0  0  0  0  0  0  0  0  0  0  0
  1  2  2  0  0  0  0
  2  3  1  0  0  0  0
  3  4  2  0  0  0  0
  3  5  1  0  0  0  0
  5  6  2  0  0  0  0
  6  7  1  0  0  0  0
  7  8  2  0  0  0  0
  8  9  1  0  0  0  0
  9 10  2  0  0  0  0
 10 11  1  0  0  0  0
 11 12  2  0  0  0  0
 12 13  1  0  0  0  0
 13 14  3  0  0  0  0
 12 15  1  0  0  0  0
 15 16  3  0  0  0  0
  8 17  1  0  0  0  0
 17 18  1  0  0  0  0
 18 19  1  0  0  0  0
 19 20  2  0  0  0  0
 20 21  1  0  0  0  0
 21 22  1  0  0  0  0
 21 23  1  0  0  0  0
  1 24  1  0  0  0  0
 24 25  2  0  0  0  0
 25 26  1  0  0  0  0
 26 27  1  0  0  0  0
 27 28  1  0  0  0  0
 28 29  1  0  0  0  0
 26 30  2  0  0  0  0
 30 31  1  0  0  0  0
 30 32  1  0  0  0  0
 32 33  2  0  0  0  0
 33 34  1  0  0  0  0
 34 35  1  0  0  0  0
 35 36  2  0  0  0  0
 36 37  1  0  0  0  0
 37 38  2  0  0  0  0
 38 39  1  0  0  0  0
 39 40  1  0  0  0  0
 38 41  1  0  0  0  0
 41 42  2  0  0  0  0
 34 43  1  0  0  0  0
 43 44  2  0  0  0  0
 44 45  1  0  0  0  0
 45 46  2  0  0  0  0
 46 47  1  0  0  0  0
 47 48  1  0  0  0  0
 46 49  1  0  0  0  0
 49 50  2  0  0  0  0
 33 51  1  0  0  0  0
 51 52  1  0  0  0  0
 52 53  1  0  0  0  0
 53 54  2  0  0  0  0
 54 55  1  0  0  0  0
 55 56  1  0  0  0  0
 56 57  2  0  0  0  0
 57 58  1  0  0  0  0
 58 59  2  0  0  0  0
 59 60  1  0  0  0  0
 60 61  1  0  0  0  0
 59 62  1  0  0  0  0
 62 63  2  0  0  0  0
 55 64  1  0  0  0  0
 64 65  2  0  0  0  0
 65 66  1  0  0  0  0
 66 67  2  0  0  0  0
 67 68  1  0  0  0  0
 68 69  1  0  0  0  0
 67 70  1  0  0  0  0
 70 71  2  0  0  0  0
 54 72  1  0  0  0  0
 72 73  1  0  0  0  0
 53 74  1  0  0  0  0
 74 75  2  0  0  0  0
 75 76  1  0  0  0  0
 76 77  1  0  0  0  0
 77 78  1  0  0  0  0
 78 79  1  0  0  0  0
 77 80  1  0  0  0  0
 80 81  2  0  0  0  0
 81 82  1  0  0  0  0
 82 83  1  0  0  0  0
 83 84  2  0  0  0  0
 81 85  1  0  0  0  0
 85 86  2  0  0  0  0
 86 87  1  0  0  0  0
 87 88  2  0  0  0  0
 87 89  1  0  0  0  0
 89 90  2  0  0  0  0
 90 91  1  0  0  0  0
 91 92  2  0  0  0  0
 91 93  1  0  0  0  0
 93 94  2  0  0  0  0
 94 95  1  0  0  0  0
 95 96  2  0  0  0  0
 96 97  1  0  0  0  0
 97 98  2  0  0  0  0
 98 99  1  0  0  0  0
 99100  2  0  0  0  0
100101  1  0  0  0  0
101102  3  0  0  0  0
100103  1  0  0  0  0
103104  3  0  0  0  0
 96105  1  0  0  0  0
105106  1  0  0  0  0
106107  1  0  0  0  0
107108  2  0  0  0  0
108109  1  0  0  0  0
109110  1  0  0  0  0
109111  1  0  0  0  0
 11  2  1  0  0  0  0
 23 17  1  0  0  0  0
 31 24  1  0  0  0  0
 73 32  1  0  0  0  0
 84 74  1  0  0  0  0
 99 90  1  0  0  0  0
111105  1  0  0  0  0
 10  5  1  0  0  0  0
 22 18  1  0  0  0  0
 42 35  1  0  0  0  0
 50 43  1  0  0  0  0
 72 51  2  0  0  0  0
 82 76  2  0  0  0  0
 98 93  1  0  0  0  0
110106  1  0  0  0  0
 23  7  1  0  0  0  0
 63 56  1  0  0  0  0
 71 64  1  0  0  0  0
 88 80  1  0  0  0  0
111 95  1  0  0  0  0
  1112  1  0  0  0  0
  6113  1  0  0  0  0
  9114  1  0  0  0  0
 17115  1  0  0  0  0
 18116  1  0  0  0  0
 19117  1  0  0  0  0
 20118  1  0  0  0  0
 21119  1  0  0  0  0
 22120  1  0  0  0  0
 22121  1  0  0  0  0
 23122  1  0  0  0  0
 25123  1  0  0  0  0
 28124  1  0  0  0  0
 28125  1  0  0  0  0
 29126  1  0  0  0  0
 29127  1  0  0  0  0
 29128  1  0  0  0  0
 36129  1  0  0  0  0
 37130  1  0  0  0  0
 40131  1  0  0  0  0
 40132  1  0  0  0  0
 40133  1  0  0  0  0
 41134  1  0  0  0  0
 42135  1  0  0  0  0
 44136  1  0  0  0  0
 45137  1  0  0  0  0
 48138  1  0  0  0  0
 48139  1  0  0  0  0
 48140  1  0  0  0  0
 49141  1  0  0  0  0
 50142  1  0  0  0  0
 57143  1  0  0  0  0
 58144  1  0  0  0  0
 61145  1  0  0  0  0
 61146  1  0  0  0  0
 61147  1  0  0  0  0
 62148  1  0  0  0  0
 63149  1  0  0  0  0
 65150  1  0  0  0  0
 66151  1  0  0  0  0
 69152  1  0  0  0  0
 69153  1  0  0  0  0
 69154  1  0  0  0  0
 70155  1  0  0  0  0
 71156  1  0  0  0  0
 75157  1  0  0  0  0
 78158  1  0  0  0  0
 78159  1  0  0  0  0
 79160  1  0  0  0  0
 79161  1  0  0  0  0
 79162  1  0  0  0  0
 83163  1  0  0  0  0
 84164  1  0  0  0  0
 85165  1  0  0  0  0
 86166  1  0  0  0  0
 88167  1  0  0  0  0
 89168  1  0  0  0  0
 94169  1  0  0  0  0
 97170  1  0  0  0  0
105171  1  0  0  0  0
106172  1  0  0  0  0
107173  1  0  0  0  0
108174  1  0  0  0  0
109175  1  0  0  0  0
110176  1  0  0  0  0
110177  1  0  0  0  0
111178  1  0  0  0  0
M  END
