
  xtb     02092215043D
 energy: -270.232827940492 gnorm: 0.000688644435 xtb: 6.4.1 (unknown)
155170  0     0  0            999 V2000
   -2.4913   -6.1647    3.4196 C   0  0  0  0  0  0  0  0  0  0  0  0
   -2.5061   -7.2907    2.6376 C   0  0  0  0  0  0  0  0  0  0  0  0
   -1.8071   -7.4472    1.3583 C   0  0  0  0  0  0  0  0  0  0  0  0
   -0.9960   -6.6789    0.8659 O   0  0  0  0  0  0  0  0  0  0  0  0
   -2.2774   -8.7162    0.7822 C   0  0  0  0  0  0  0  0  0  0  0  0
   -1.9501   -9.2504   -0.4617 C   0  0  0  0  0  0  0  0  0  0  0  0
   -2.6227  -10.4085   -0.7678 C   0  0  0  0  0  0  0  0  0  0  0  0
   -3.5498  -10.9977    0.1019 C   0  0  0  0  0  0  0  0  0  0  0  0
   -3.8655  -10.4942    1.3416 C   0  0  0  0  0  0  0  0  0  0  0  0
   -3.1900   -9.3166    1.6740 C   0  0  0  0  0  0  0  0  0  0  0  0
   -3.2795   -8.4915    2.8776 C   0  0  0  0  0  0  0  0  0  0  0  0
   -3.9598   -8.8248    4.0213 C   0  0  0  0  0  0  0  0  0  0  0  0
   -4.6814  -10.0232    4.1989 C   0  0  0  0  0  0  0  0  0  0  0  0
   -5.2840  -10.9761    4.4168 N   0  0  0  0  0  0  0  0  0  0  0  0
   -4.0146   -8.0466    5.1957 C   0  0  0  0  0  0  0  0  0  0  0  0
   -4.1025   -7.4757    6.1892 N   0  0  0  0  0  0  0  0  0  0  0  0
   -3.8552  -12.1222   -0.8555 C   0  0  0  0  0  0  0  0  0  0  0  0
   -3.2119  -13.4894   -0.5418 C   0  0  0  0  0  0  0  0  0  0  0  0
   -3.2823  -14.2316   -1.8567 C   0  0  0  0  0  0  0  0  0  0  0  0
   -2.4046  -13.6749   -2.6817 C   0  0  0  0  0  0  0  0  0  0  0  0
   -1.7253  -12.5476   -1.9380 C   0  0  0  0  0  0  0  0  0  0  0  0
   -1.7198  -13.1331   -0.5199 C   0  0  0  0  0  0  0  0  0  0  0  0
   -2.8204  -11.4659   -1.8251 C   0  0  0  0  0  0  0  0  0  0  0  0
   -1.9483   -4.9005    3.1533 C   0  0  0  0  0  0  0  0  0  0  0  0
   -2.2210   -3.7937    3.9544 C   0  0  0  0  0  0  0  0  0  0  0  0
   -1.7705   -2.5959    3.4347 C   0  0  0  0  0  0  0  0  0  0  0  0
   -2.0413   -1.0609    4.2734 S   0  0  0  0  0  0  0  0  0  0  0  0
   -0.9408   -1.3220    5.7145 C   0  0  0  0  0  0  0  0  0  0  0  0
    0.4984   -1.5401    5.2971 C   0  0  0  0  0  0  0  0  0  0  0  0
   -1.1378   -2.7341    2.1912 C   0  0  0  0  0  0  0  0  0  0  0  0
   -1.0444   -4.4135    1.7397 S   0  0  0  0  0  0  0  0  0  0  0  0
   -0.6214   -1.6985    1.3811 C   0  0  0  0  0  0  0  0  0  0  0  0
   -0.1122   -1.7401    0.0748 C   0  0  0  0  0  0  0  0  0  0  0  0
   -0.0867   -2.7918   -0.8215 N   0  0  0  0  0  0  0  0  0  0  0  0
    0.9890   -2.7578   -1.7438 C   0  0  0  0  0  0  0  0  0  0  0  0
    2.2989   -2.7530   -1.2689 C   0  0  0  0  0  0  0  0  0  0  0  0
    3.3490   -2.5752   -2.1421 C   0  0  0  0  0  0  0  0  0  0  0  0
    3.1095   -2.3920   -3.5034 C   0  0  0  0  0  0  0  0  0  0  0  0
    4.5099   -2.0775   -4.5253 S   0  0  0  0  0  0  0  0  0  0  0  0
    3.7979   -1.2872   -5.9974 C   0  0  0  0  0  0  0  0  0  0  0  0
    1.8077   -2.4630   -3.9857 C   0  0  0  0  0  0  0  0  0  0  0  0
    0.7554   -2.6469   -3.1111 C   0  0  0  0  0  0  0  0  0  0  0  0
   -1.1286   -3.6863   -1.0429 C   0  0  0  0  0  0  0  0  0  0  0  0
   -2.4327   -3.4250   -0.6212 C   0  0  0  0  0  0  0  0  0  0  0  0
   -3.4258   -4.3727   -0.7765 C   0  0  0  0  0  0  0  0  0  0  0  0
   -3.1356   -5.5925   -1.3687 C   0  0  0  0  0  0  0  0  0  0  0  0
   -4.3266   -6.8933   -1.5177 S   0  0  0  0  0  0  0  0  0  0  0  0
   -5.3426   -6.6436   -0.0303 C   0  0  0  0  0  0  0  0  0  0  0  0
   -1.8574   -5.8247   -1.8682 C   0  0  0  0  0  0  0  0  0  0  0  0
   -0.8633   -4.8916   -1.6989 C   0  0  0  0  0  0  0  0  0  0  0  0
    0.4237   -0.4801   -0.2919 C   0  0  0  0  0  0  0  0  0  0  0  0
    1.1506    0.1262   -1.7374 S   0  0  0  0  0  0  0  0  0  0  0  0
    1.2646    1.7467   -1.0440 C   0  0  0  0  0  0  0  0  0  0  0  0
    0.6919    1.8059    0.2309 C   0  0  0  0  0  0  0  0  0  0  0  0
    0.4910    2.9169    1.0220 N   0  0  0  0  0  0  0  0  0  0  0  0
    0.5400    2.7207    2.4181 C   0  0  0  0  0  0  0  0  0  0  0  0
    1.6352    2.0798    2.9867 C   0  0  0  0  0  0  0  0  0  0  0  0
    1.6862    1.8495    4.3479 C   0  0  0  0  0  0  0  0  0  0  0  0
    0.6338    2.2551    5.1583 C   0  0  0  0  0  0  0  0  0  0  0  0
    0.5698    1.9839    6.9002 S   0  0  0  0  0  0  0  0  0  0  0  0
    2.2501    1.4390    7.3210 C   0  0  0  0  0  0  0  0  0  0  0  0
   -0.4632    2.9014    4.5899 C   0  0  0  0  0  0  0  0  0  0  0  0
   -0.5097    3.1374    3.2349 C   0  0  0  0  0  0  0  0  0  0  0  0
    0.1260    4.1627    0.5161 C   0  0  0  0  0  0  0  0  0  0  0  0
    0.4550    5.3215    1.2199 C   0  0  0  0  0  0  0  0  0  0  0  0
    0.1971    6.5655    0.6873 C   0  0  0  0  0  0  0  0  0  0  0  0
   -0.3988    6.6790   -0.5628 C   0  0  0  0  0  0  0  0  0  0  0  0
   -0.6125    8.2177   -1.4028 S   0  0  0  0  0  0  0  0  0  0  0  0
   -0.6468    9.4329   -0.0538 C   0  0  0  0  0  0  0  0  0  0  0  0
   -0.7963    5.5291   -1.2380 C   0  0  0  0  0  0  0  0  0  0  0  0
   -0.5454    4.2846   -0.7033 C   0  0  0  0  0  0  0  0  0  0  0  0
    0.2697    0.5186    0.6493 C   0  0  0  0  0  0  0  0  0  0  0  0
   -0.5201   -0.0697    2.0706 S   0  0  0  0  0  0  0  0  0  0  0  0
    1.9038    2.7135   -1.8511 C   0  0  0  0  0  0  0  0  0  0  0  0
    2.2846    2.4898   -3.1689 C   0  0  0  0  0  0  0  0  0  0  0  0
    2.8268    3.6018   -3.7938 C   0  0  0  0  0  0  0  0  0  0  0  0
    3.2454    3.4841   -5.2037 C   0  0  0  0  0  0  0  0  0  0  0  0
    2.9885    2.5176   -5.8820 O   0  0  0  0  0  0  0  0  0  0  0  0
    3.9614    4.5120   -5.6646 O   0  0  0  0  0  0  0  0  0  0  0  0
    2.8740    4.7394   -2.9555 C   0  0  0  0  0  0  0  0  0  0  0  0
    2.3360    4.3157   -1.3471 S   0  0  0  0  0  0  0  0  0  0  0  0
    3.1143    6.0427   -3.3943 C   0  0  0  0  0  0  0  0  0  0  0  0
    3.0605    7.2332   -2.7037 C   0  0  0  0  0  0  0  0  0  0  0  0
    2.9395    7.3802   -1.2548 C   0  0  0  0  0  0  0  0  0  0  0  0
    2.8719    6.4933   -0.4171 O   0  0  0  0  0  0  0  0  0  0  0  0
    2.9402    8.8265   -0.9842 C   0  0  0  0  0  0  0  0  0  0  0  0
    2.8619    9.4732    0.2150 C   0  0  0  0  0  0  0  0  0  0  0  0
    2.8505   10.8872    0.2362 C   0  0  0  0  0  0  0  0  0  0  0  0
    2.7639   11.6077    1.4442 C   0  0  0  0  0  0  0  0  0  0  0  0
    2.7439   12.9751    1.4490 C   0  0  0  0  0  0  0  0  0  0  0  0
    2.8105   13.6569    0.2271 C   0  0  0  0  0  0  0  0  0  0  0  0
    2.7876   15.0024    0.2511 F   0  0  0  0  0  0  0  0  0  0  0  0
    2.8963   13.0059   -0.9725 C   0  0  0  0  0  0  0  0  0  0  0  0
    2.9188   11.5983   -0.9961 C   0  0  0  0  0  0  0  0  0  0  0  0
    3.0148   10.8976   -2.2226 C   0  0  0  0  0  0  0  0  0  0  0  0
    3.0314    9.5294   -2.2181 C   0  0  0  0  0  0  0  0  0  0  0  0
    3.1350    8.5495   -3.2995 C   0  0  0  0  0  0  0  0  0  0  0  0
    3.2668    8.8596   -4.6302 C   0  0  0  0  0  0  0  0  0  0  0  0
    3.3237   10.1777   -5.1284 C   0  0  0  0  0  0  0  0  0  0  0  0
    3.3829   11.2236   -5.5993 N   0  0  0  0  0  0  0  0  0  0  0  0
    3.3777    7.9418   -5.6951 C   0  0  0  0  0  0  0  0  0  0  0  0
    3.4806    7.2814   -6.6301 N   0  0  0  0  0  0  0  0  0  0  0  0
   -3.0461   -6.2006    4.3494 H   0  0  0  0  0  0  0  0  0  0  0  0
   -1.2361   -8.7602   -1.1034 H   0  0  0  0  0  0  0  0  0  0  0  0
   -4.5837  -10.9569    1.9977 H   0  0  0  0  0  0  0  0  0  0  0  0
   -4.8918  -12.2024   -1.1767 H   0  0  0  0  0  0  0  0  0  0  0  0
   -3.6197  -13.9953    0.3291 H   0  0  0  0  0  0  0  0  0  0  0  0
   -3.9794  -15.0225   -2.0626 H   0  0  0  0  0  0  0  0  0  0  0  0
   -2.2225  -13.9080   -3.7144 H   0  0  0  0  0  0  0  0  0  0  0  0
   -0.7782  -12.1975   -2.3398 H   0  0  0  0  0  0  0  0  0  0  0  0
   -1.4459  -12.4185    0.2540 H   0  0  0  0  0  0  0  0  0  0  0  0
   -1.0871  -14.0156   -0.4412 H   0  0  0  0  0  0  0  0  0  0  0  0
   -3.1685  -11.1061   -2.7914 H   0  0  0  0  0  0  0  0  0  0  0  0
   -2.7750   -3.8684    4.8735 H   0  0  0  0  0  0  0  0  0  0  0  0
   -1.3276   -2.1690    6.2798 H   0  0  0  0  0  0  0  0  0  0  0  0
   -1.0512   -0.4111    6.3010 H   0  0  0  0  0  0  0  0  0  0  0  0
    0.5946   -2.4468    4.7020 H   0  0  0  0  0  0  0  0  0  0  0  0
    1.1232   -1.6442    6.1823 H   0  0  0  0  0  0  0  0  0  0  0  0
    0.8510   -0.6983    4.7048 H   0  0  0  0  0  0  0  0  0  0  0  0
    2.4788   -2.8627   -0.2098 H   0  0  0  0  0  0  0  0  0  0  0  0
    4.3652   -2.5520   -1.7804 H   0  0  0  0  0  0  0  0  0  0  0  0
    3.1789   -0.4451   -5.7025 H   0  0  0  0  0  0  0  0  0  0  0  0
    4.6466   -0.9311   -6.5729 H   0  0  0  0  0  0  0  0  0  0  0  0
    3.2377   -2.0090   -6.5842 H   0  0  0  0  0  0  0  0  0  0  0  0
    1.6016   -2.3540   -5.0379 H   0  0  0  0  0  0  0  0  0  0  0  0
   -0.2583   -2.6750   -3.4824 H   0  0  0  0  0  0  0  0  0  0  0  0
   -2.6716   -2.4777   -0.1612 H   0  0  0  0  0  0  0  0  0  0  0  0
   -4.4215   -4.1522   -0.4246 H   0  0  0  0  0  0  0  0  0  0  0  0
   -4.6970   -6.3693    0.7987 H   0  0  0  0  0  0  0  0  0  0  0  0
   -6.0949   -5.8800   -0.2060 H   0  0  0  0  0  0  0  0  0  0  0  0
   -5.8252   -7.5953    0.1698 H   0  0  0  0  0  0  0  0  0  0  0  0
   -1.6500   -6.7585   -2.3658 H   0  0  0  0  0  0  0  0  0  0  0  0
    0.1375   -5.1044   -2.0403 H   0  0  0  0  0  0  0  0  0  0  0  0
    2.4512    1.7607    2.3549 H   0  0  0  0  0  0  0  0  0  0  0  0
    2.5508    1.3552    4.7612 H   0  0  0  0  0  0  0  0  0  0  0  0
    2.2708    1.3696    8.4042 H   0  0  0  0  0  0  0  0  0  0  0  0
    2.9700    2.1789    6.9844 H   0  0  0  0  0  0  0  0  0  0  0  0
    2.4522    0.4644    6.8873 H   0  0  0  0  0  0  0  0  0  0  0  0
   -1.2800    3.2054    5.2258 H   0  0  0  0  0  0  0  0  0  0  0  0
   -1.3624    3.6327    2.7960 H   0  0  0  0  0  0  0  0  0  0  0  0
    0.9591    5.2434    2.1704 H   0  0  0  0  0  0  0  0  0  0  0  0
    0.4949    7.4428    1.2376 H   0  0  0  0  0  0  0  0  0  0  0  0
   -1.3297    9.0935    0.7186 H   0  0  0  0  0  0  0  0  0  0  0  0
    0.3538    9.5885    0.3406 H   0  0  0  0  0  0  0  0  0  0  0  0
   -1.0111   10.3551   -0.4955 H   0  0  0  0  0  0  0  0  0  0  0  0
   -1.2865    5.6217   -2.1949 H   0  0  0  0  0  0  0  0  0  0  0  0
   -0.8559    3.3996   -1.2379 H   0  0  0  0  0  0  0  0  0  0  0  0
    2.1469    1.5516   -3.6775 H   0  0  0  0  0  0  0  0  0  0  0  0
    4.1705    4.3982   -6.6057 H   0  0  0  0  0  0  0  0  0  0  0  0
    3.3258    6.1129   -4.4517 H   0  0  0  0  0  0  0  0  0  0  0  0
    2.8187    8.9132    1.1383 H   0  0  0  0  0  0  0  0  0  0  0  0
    2.7143   11.0602    2.3739 H   0  0  0  0  0  0  0  0  0  0  0  0
    2.6791   13.5413    2.3645 H   0  0  0  0  0  0  0  0  0  0  0  0
    2.9476   13.5641   -1.8941 H   0  0  0  0  0  0  0  0  0  0  0  0
    3.0745   11.4690   -3.1344 H   0  0  0  0  0  0  0  0  0  0  0  0
  1  2  2  0  0  0  0
  2  3  1  0  0  0  0
  3  4  2  0  0  0  0
  3  5  1  0  0  0  0
  5  6  2  0  0  0  0
  6  7  1  0  0  0  0
  7  8  2  0  0  0  0
  8  9  1  0  0  0  0
  9 10  2  0  0  0  0
 10 11  1  0  0  0  0
 11 12  2  0  0  0  0
 12 13  1  0  0  0  0
 13 14  3  0  0  0  0
 12 15  1  0  0  0  0
 15 16  3  0  0  0  0
  8 17  1  0  0  0  0
 17 18  1  0  0  0  0
 18 19  1  0  0  0  0
 19 20  2  0  0  0  0
 20 21  1  0  0  0  0
 21 22  1  0  0  0  0
 21 23  1  0  0  0  0
  1 24  1  0  0  0  0
 24 25  2  0  0  0  0
 25 26  1  0  0  0  0
 26 27  1  0  0  0  0
 27 28  1  0  0  0  0
 28 29  1  0  0  0  0
 26 30  2  0  0  0  0
 30 31  1  0  0  0  0
 30 32  1  0  0  0  0
 32 33  2  0  0  0  0
 33 34  1  0  0  0  0
 34 35  1  0  0  0  0
 35 36  2  0  0  0  0
 36 37  1  0  0  0  0
 37 38  2  0  0  0  0
 38 39  1  0  0  0  0
 39 40  1  0  0  0  0
 38 41  1  0  0  0  0
 41 42  2  0  0  0  0
 34 43  1  0  0  0  0
 43 44  2  0  0  0  0
 44 45  1  0  0  0  0
 45 46  2  0  0  0  0
 46 47  1  0  0  0  0
 47 48  1  0  0  0  0
 46 49  1  0  0  0  0
 49 50  2  0  0  0  0
 33 51  1  0  0  0  0
 51 52  1  0  0  0  0
 52 53  1  0  0  0  0
 53 54  2  0  0  0  0
 54 55  1  0  0  0  0
 55 56  1  0  0  0  0
 56 57  2  0  0  0  0
 57 58  1  0  0  0  0
 58 59  2  0  0  0  0
 59 60  1  0  0  0  0
 60 61  1  0  0  0  0
 59 62  1  0  0  0  0
 62 63  2  0  0  0  0
 55 64  1  0  0  0  0
 64 65  2  0  0  0  0
 65 66  1  0  0  0  0
 66 67  2  0  0  0  0
 67 68  1  0  0  0  0
 68 69  1  0  0  0  0
 67 70  1  0  0  0  0
 70 71  2  0  0  0  0
 54 72  1  0  0  0  0
 72 73  1  0  0  0  0
 53 74  1  0  0  0  0
 74 75  2  0  0  0  0
 75 76  1  0  0  0  0
 76 77  1  0  0  0  0
 77 78  2  0  0  0  0
 77 79  1  0  0  0  0
 76 80  2  0  0  0  0
 80 81  1  0  0  0  0
 80 82  1  0  0  0  0
 82 83  2  0  0  0  0
 83 84  1  0  0  0  0
 84 85  2  0  0  0  0
 84 86  1  0  0  0  0
 86 87  2  0  0  0  0
 87 88  1  0  0  0  0
 88 89  2  0  0  0  0
 89 90  1  0  0  0  0
 90 91  2  0  0  0  0
 91 92  1  0  0  0  0
 91 93  1  0  0  0  0
 93 94  2  0  0  0  0
 94 95  1  0  0  0  0
 95 96  2  0  0  0  0
 96 97  1  0  0  0  0
 97 98  2  0  0  0  0
 98 99  1  0  0  0  0
 99100  3  0  0  0  0
 98101  1  0  0  0  0
101102  3  0  0  0  0
 11  2  1  0  0  0  0
 23 17  1  0  0  0  0
 31 24  1  0  0  0  0
 73 32  1  0  0  0  0
 81 74  1  0  0  0  0
 97 83  1  0  0  0  0
 10  5  1  0  0  0  0
 22 18  1  0  0  0  0
 42 35  1  0  0  0  0
 50 43  1  0  0  0  0
 72 51  2  0  0  0  0
 96 86  1  0  0  0  0
 23  7  1  0  0  0  0
 63 56  1  0  0  0  0
 71 64  1  0  0  0  0
 94 88  1  0  0  0  0
  1103  1  0  0  0  0
  6104  1  0  0  0  0
  9105  1  0  0  0  0
 17106  1  0  0  0  0
 18107  1  0  0  0  0
 19108  1  0  0  0  0
 20109  1  0  0  0  0
 21110  1  0  0  0  0
 22111  1  0  0  0  0
 22112  1  0  0  0  0
 23113  1  0  0  0  0
 25114  1  0  0  0  0
 28115  1  0  0  0  0
 28116  1  0  0  0  0
 29117  1  0  0  0  0
 29118  1  0  0  0  0
 29119  1  0  0  0  0
 36120  1  0  0  0  0
 37121  1  0  0  0  0
 40122  1  0  0  0  0
 40123  1  0  0  0  0
 40124  1  0  0  0  0
 41125  1  0  0  0  0
 42126  1  0  0  0  0
 44127  1  0  0  0  0
 45128  1  0  0  0  0
 48129  1  0  0  0  0
 48130  1  0  0  0  0
 48131  1  0  0  0  0
 49132  1  0  0  0  0
 50133  1  0  0  0  0
 57134  1  0  0  0  0
 58135  1  0  0  0  0
 61136  1  0  0  0  0
 61137  1  0  0  0  0
 61138  1  0  0  0  0
 62139  1  0  0  0  0
 63140  1  0  0  0  0
 65141  1  0  0  0  0
 66142  1  0  0  0  0
 69143  1  0  0  0  0
 69144  1  0  0  0  0
 69145  1  0  0  0  0
 70146  1  0  0  0  0
 71147  1  0  0  0  0
 75148  1  0  0  0  0
 79149  1  0  0  0  0
 82150  1  0  0  0  0
 87151  1  0  0  0  0
 89152  1  0  0  0  0
 90153  1  0  0  0  0
 93154  1  0  0  0  0
 95155  1  0  0  0  0
M  END
