121

C         -1.21440        2.44920       -3.74470
C         -1.45690        1.90270       -4.97450
C         -1.29090        0.48710       -5.33340
O         -0.99180       -0.43240       -4.59140
C         -1.54530        0.39550       -6.78020
C         -1.46140       -0.74430       -7.57660
C         -1.73430       -0.52070       -8.90480
C         -2.06190        0.74630       -9.40610
C         -2.14840        1.87870       -8.63150
C         -1.88010        1.67290       -7.27530
C         -1.86490        2.62440       -6.16600
C         -2.20000        3.95100       -6.25440
C         -2.60810        4.59640       -7.44110
N         -2.95230        5.19100       -8.36100
C         -2.20400        4.87380       -5.18740
N         -2.23820        5.68830       -4.37780
C         -2.20270        0.23930      -10.81920
C         -3.63350        0.03460      -11.37480
C         -4.52170       -0.22770      -10.18390
C         -4.21610       -1.42720       -9.70740
C         -3.11590       -1.99810      -10.56770
C         -3.49470       -1.39250      -11.92880
C         -1.84150       -1.17310      -10.26020
C         -0.79710        1.84150       -2.54580
C         -0.57160        2.58560       -1.39080
C         -0.12790        1.82860       -0.31200
S          0.04180        2.38600        1.33930
C          0.58500        4.11510        1.11670
C          1.95610        4.18590        0.47560
C         -0.01510        0.47830       -0.63270
S         -0.50900        0.14650       -2.25750
C          0.50040       -0.59490        0.17050
C         -0.15220       -1.83390        0.18080
O         -1.39110       -1.90770       -0.41690
C         -2.47210       -1.83600        0.51770
C         -2.59160       -0.48300        1.20420
C          0.38640       -2.96220        0.82180
O         -0.10300       -4.20950        0.76300
C         -0.88930       -4.67600       -0.33000
C         -0.20060       -4.49190       -1.67580
C          1.54790       -2.83240        1.64270
C          2.23330       -1.58480        1.63780
C          1.71210       -0.47410        0.89450
N          2.50190        0.59240        0.98290
S          3.75080        0.23730        1.93380
N          3.36610       -1.29670        2.25640
C          1.90560       -3.87540        2.45760
C          1.28850       -4.93340        3.21340
C          0.15090       -4.49100        4.08530
S         -1.48210       -4.94020        3.51520
C         -1.48070       -6.73140        3.94140
C         -1.33370       -7.61330        2.71590
C          0.38730       -3.71240        5.08950
S          2.91740       -4.22790        3.76770
C          0.78750       -2.99160        6.12550
C          1.06740       -1.60930        6.08410
C          1.00060       -0.81080        4.86430
O          0.58790       -1.15590        3.76400
C          1.56760        0.51150        5.22090
C          1.79140        1.59690        4.38080
C          2.41280        2.66370        4.98890
C          2.76830        2.65590        6.34100
C          2.53620        1.59670        7.18870
C          1.91910        0.50260        6.58480
C          1.56070       -0.80600        7.14860
C          1.68460       -1.15670        8.47980
C          2.16810       -0.30590        9.48890
N          2.55000        0.32940       10.36810
C          1.31810       -2.40150        9.02110
N          1.04190       -3.39420        9.53300
C          3.35350        4.04360        6.28190
C          2.50880        5.20950        6.85200
C          1.06250        4.80180        6.71980
C          0.75000        4.82170        5.43090
C          1.98360        5.23740        4.66850
C          2.61910        6.20080        5.68340
C          2.97260        4.05060        4.76720
H         -1.33360        3.52200       -3.65320
H         -1.19770       -1.69950       -7.15010
H         -2.39630        2.84570       -9.03570
H         -1.53260        0.68400      -11.55220
H         -3.96630        0.80870      -12.06080
H         -5.21930        0.48720       -9.78880
H         -4.60720       -1.91480       -8.83370
H         -2.97860       -3.07520      -10.51980
H         -2.71320       -1.49190      -12.68080
H         -4.43230       -1.78590      -12.31840
H         -0.93780       -1.65270      -10.63160
H         -0.74190        3.64690       -1.36190
H          0.60050        4.50930        2.13190
H         -0.17020        4.65090        0.54380
H          2.28680        5.22110        0.41600
H          2.67340        3.61660        1.06200
H          1.93250        3.76990       -0.52940
H         -3.35830       -2.03880       -0.08890
H         -2.36360       -2.61900        1.28060
H         -3.46940       -0.48850        1.84430
H         -1.71720       -0.28460        1.82120
H         -2.69560        0.31240        0.47000
H         -1.00780       -5.73930       -0.10340
H         -1.87670       -4.21030       -0.34290
H          0.82060       -4.86490       -1.63090
H         -0.74550       -5.04850       -2.43260
H         -0.18620       -3.44400       -1.96420
H          1.29460       -5.95970        2.87110
H         -2.43380       -6.91600        4.43570
H         -0.67540       -6.88740        4.65730
H         -1.33360       -8.66080        3.01170
H         -0.40640       -7.40160        2.18790
H         -2.16220       -7.44530        2.03180
H          0.93910       -3.51350        7.06280
H          1.48720        1.57150        3.34700
H          2.81850        1.60640        8.22820
H          4.40630        4.13190        6.54390
H          2.82130        5.55460        7.83390
H          0.45010        4.49350        7.54660
H         -0.17400        4.52900        4.96680
H          1.82980        5.61920        3.66200
H          2.02700        7.10210        5.83580
H          3.64570        6.47180        5.43980
H          3.78300        4.12310        4.04330
