206

C          7.33650       -4.09270        7.16490
C          8.63230       -4.52590        7.14550
C          9.43010       -4.83520        5.93500
O          9.04520       -4.96380        4.79060
C         10.83450       -4.87020        6.38310
C         11.95810       -5.05640        5.57950
C         13.14750       -5.02580        6.26610
C         13.21720       -4.82470        7.65140
C         12.11760       -4.64310        8.45610
C         10.89580       -4.66880        7.77620
C          9.53590       -4.50650        8.28020
C          9.17170       -4.43320        9.59940
C         10.07910       -4.43940       10.67870
N         10.76250       -4.43560       11.60150
C          7.84070       -4.38550       10.06600
N          6.78860       -4.36110       10.52570
C         14.72410       -4.89450        7.66640
C         15.47450       -3.55060        7.77940
C         16.86840       -3.87190        7.29030
C         16.80220       -4.06230        5.97880
C         15.36230       -3.87270        5.55920
C         14.93650       -2.79060        6.56000
C         14.64630       -5.11910        6.12220
C          6.39240       -4.15440        6.11750
C          6.27840       -5.01600        5.04350
C          5.19430       -4.73690        4.21450
S          4.88460       -5.70070        2.75980
C          5.86250       -4.71250        1.55970
C          7.35260       -4.93820        1.70670
C          4.43490       -3.64810        4.63490
S          5.07240       -3.00480        6.11170
C          3.32410       -3.01420        4.01410
C          2.69170       -3.34910        2.84740
C          1.66480       -2.45550        2.47460
C          0.88960       -2.47360        1.29200
C          0.98020       -3.54330        0.32190
C          0.86920       -3.46120       -1.03850
C          1.01610       -4.69650       -1.71090
C          0.92030       -4.80580       -3.20210
C         -0.51880       -5.08480       -3.63660
C          1.22210       -5.73880       -0.85070
C          1.45760       -7.18270       -1.14160
C          0.24280       -8.05050       -0.80940
S          1.23060       -5.20140        0.79890
C          0.04070       -1.38750        1.10460
C         -0.11400       -0.34280        2.04910
C          0.65620       -0.32850        3.22990
C          0.56520        0.76630        4.17180
C          0.47220        2.10350        3.90750
C          0.40980        2.91800        5.06180
C          0.34420        4.41250        4.97950
C          1.73890        5.03160        5.07330
C          0.45390        2.18640        6.21530
S          0.57970        0.48680        5.88830
C          0.44080        2.64620        7.63310
C          1.80590        2.44630        8.29470
C          1.52660       -1.39590        3.40690
S          2.64410       -1.56410        4.73080
C         -1.10590        0.58210        1.65650
C         -1.68380        0.30380        0.44850
S         -1.00260       -1.14230       -0.27020
C         -2.62100        1.13230       -0.22800
C         -3.42120        0.88220       -1.33770
N         -3.62600       -0.33930       -1.94840
C         -3.87070       -0.34990       -3.33350
C         -4.95920       -1.04520       -3.85770
C         -5.21040       -1.01490       -5.21120
C         -4.37530       -0.30210       -6.06930
S         -4.80720       -0.29150       -7.78150
C         -3.23530        0.08320       -8.61390
C         -3.27960        0.37690       -5.55280
C         -3.03480        0.35700       -4.19370
C         -3.75080       -1.51390       -1.20040
C         -4.24430       -1.48820        0.10460
C         -4.24980       -2.63430        0.86610
C         -3.77830       -3.83450        0.33990
S         -3.77070       -5.23150        1.41760
C         -2.57850       -6.34600        0.62290
C         -3.35570       -3.88090       -0.98210
C         -3.34140       -2.73010       -1.74310
C         -4.07260        2.06500       -1.76180
S         -5.14200        2.42480       -3.06410
C         -5.27880        4.10290       -2.52450
C         -4.56040        4.33180       -1.34280
N         -4.47160        5.52040       -0.66950
C         -5.56340        6.39240       -0.56350
C         -5.36730        7.76910       -0.62080
C         -6.43380        8.63790       -0.49960
C         -7.71990        8.14260       -0.32110
S         -9.15460        9.14740       -0.14320
C         -8.54690       10.83470       -0.42270
C         -7.91900        6.76320       -0.25990
C         -6.85580        5.89720       -0.37690
C         -3.26460        5.85110       -0.02440
C         -2.04790        5.62990       -0.66330
C         -0.86050        5.92900       -0.02460
C         -0.87530        6.45770        1.25930
S          0.57720        6.88100        2.16760
C          1.91670        6.09070        1.23150
C         -2.09460        6.69980        1.89040
C         -3.27940        6.39940        1.25700
C         -3.84030        3.17310       -0.96580
S         -2.77050        2.79430        0.33790
C         -6.03440        4.99920       -3.30360
C         -6.24320        4.89980       -4.65100
C         -7.41130        5.55100       -5.29450
O         -8.13910        6.38500       -4.80170
C         -7.51340        4.92950       -6.63270
C         -8.53810        5.07470       -7.56510
C         -8.37230        4.31860       -8.70230
C         -7.27300        3.47310       -8.90100
C         -6.24930        3.32580       -7.99580
C         -6.39650        4.09340       -6.83970
C         -5.52050        4.19470       -5.67710
C         -4.17140        3.92880       -5.68800
C         -3.29940        4.20850       -4.62060
N         -2.53170        4.45420       -3.80070
C         -3.47410        3.47720       -6.81980
N         -2.83250        3.13000       -7.70880
C         -7.77660        2.99590      -10.23910
C         -8.42230        1.59450      -10.26880
C         -9.23010        1.59740      -11.54640
C        -10.27130        2.39950      -11.36370
C        -10.18580        2.95140       -9.95880
C         -9.55200        1.75160       -9.24280
C         -9.00220        3.94010      -10.02100
H          6.98620       -3.58900        8.05840
H         11.85870       -5.21050        4.51640
H         12.18670       -4.48680        9.51960
H         15.15680       -5.67740        8.28620
H         15.39520       -3.06520        8.74820
H         17.72060       -3.97890        7.93540
H         17.58800       -4.36010        5.30950
H         15.18090       -3.68000        4.50520
H         13.86370       -2.60880        6.58790
H         15.46080       -1.85040        6.39700
H         15.02860       -6.05160        5.71130
H          6.94440       -5.83960        4.86930
H          5.50510       -5.04070        0.58370
H          5.58920       -3.66760        1.70900
H          7.88700       -4.34170        0.96960
H          7.59240       -5.98660        1.54590
H          7.70020       -4.65540        2.69770
H          2.97450       -4.20790        2.27070
H          0.73970       -2.53190       -1.56340
H          1.25300       -3.86570       -3.64620
H          1.57240       -5.60140       -3.56720
H         -0.86010       -6.03540       -3.23280
H         -0.58820       -5.12580       -4.72120
H         -1.17660       -4.29810       -3.27460
H          2.30760       -7.52990       -0.54850
H          1.70930       -7.29940       -2.19730
H          0.00110       -7.97010        0.24750
H         -0.62300       -7.73700       -1.38820
H          0.45320       -9.09200       -1.03870
H          0.48740        2.50760        2.91030
H         -0.10980        4.69520        4.02800
H         -0.28350        4.80860        5.77980
H          2.18140        4.83240        6.04620
H          2.38900        4.61100        4.30920
H          1.68190        6.10750        4.92750
H          0.16630        3.70170        7.66820
H         -0.30910        2.07990        8.19190
H          2.07580        1.39280        8.28780
H          2.57400        3.00030        7.75960
H          1.78040        2.79300        9.32480
H         -1.41600        1.41510        2.26080
H         -5.60690       -1.59860       -3.19420
H         -6.06080       -1.53810       -5.62060
H         -2.96520        1.12690       -8.47100
H         -2.46470       -0.58030       -8.23360
H         -3.40890       -0.11190       -9.66760
H         -2.61510        0.92820       -6.19790
H         -2.18970        0.89720       -3.79190
H         -4.60330       -0.56150        0.52660
H         -4.61090       -2.61160        1.88280
H         -1.68340       -5.78780        0.36590
H         -2.34580       -7.10500        1.36320
H         -3.02060       -6.81270       -0.25290
H         -3.02110       -4.80510       -1.42480
H         -2.98870       -2.76040       -2.76320
H         -4.37070        8.15830       -0.76630
H         -6.24730        9.69800       -0.55210
H         -8.09340       10.90430       -1.40680
H         -9.42480       11.47140       -0.37540
H         -7.84710       11.11600        0.35880
H         -8.91860        6.38350       -0.11670
H         -7.01620        4.83070       -0.32060
H         -2.03450        5.23340       -1.66740
H          0.06660        5.75480       -0.54570
H          1.68890        5.03900        1.08540
H          2.80550        6.19640        1.84590
H          2.06490        6.59780        0.28240
H         -2.09720        7.11620        2.88600
H         -4.22180        6.57610        1.75340
H         -6.56470        5.79990       -2.80000
H         -9.37350        5.73040       -7.37560
H         -5.41840        2.65690       -8.14620
H         -7.12030        3.18080      -11.08730
H         -7.72770        0.77140      -10.12510
H         -8.94080        1.07790      -12.44120
H        -11.02470        2.68380      -12.07500
H        -11.10020        3.36100       -9.53790
H        -10.21350        0.88710       -9.22450
H         -9.20650        1.96660       -8.23360
H         -9.16350        4.75500      -10.72440
