170

C         -0.75350       -7.18640       -3.88500
C         -1.00160       -8.46250       -4.31590
C         -1.09290       -9.71190       -3.52570
O         -1.09420       -9.85590       -2.31860
C         -1.15770      -10.80970       -4.50730
C         -1.21070      -12.17330       -4.22410
C         -1.25090      -12.97470       -5.33930
C         -1.22700      -12.45800       -6.64190
C         -1.17540      -11.11620       -6.93450
C         -1.14790      -10.28160       -5.81220
C         -1.11420       -8.82520       -5.71970
C         -1.24550       -7.97120       -6.78560
C         -1.36490       -8.38300       -8.13000
N         -1.46070       -8.63430       -9.24640
C         -1.32830       -6.56580       -6.72400
N         -1.42580       -5.42190       -6.78460
C         -1.28800      -13.82700       -7.27210
C         -2.65430      -14.26030       -7.84390
C         -2.54460      -15.76470       -7.94270
C         -2.57350      -16.25310       -6.70930
C         -2.70290      -15.08690       -5.75600
C         -3.55830      -14.14220       -6.61000
C         -1.32040      -14.40280       -5.81990
C         -0.65440       -6.63830       -2.59030
C         -0.87280       -7.17050       -1.33330
C         -0.69400       -6.25490       -0.29410
S         -0.75860       -6.65900        1.40950
C         -0.54700       -8.47430        1.40530
C          0.82900       -8.90310        0.93630
C         -0.36280       -4.97770       -0.75140
S         -0.21510       -4.94850       -2.46930
C         -0.14160       -3.76010       -0.02490
C          0.79700       -2.80800       -0.48840
N          1.64240       -2.86460       -1.52470
N          2.29880       -1.73950       -1.46720
C          3.33450       -1.42350       -2.40820
C          4.58180       -2.25510       -2.12900
N          1.98300       -0.92520       -0.50090
C          1.00790       -1.56080        0.16240
C          0.25300       -1.16680        1.29010
C         -0.62110       -2.13680        1.75440
C         -0.82550       -3.37140        1.11860
F         -1.82000       -4.13100        1.60330
F         -1.40480       -1.86300        2.81320
C          0.34100        0.16210        1.83550
C          0.41970        1.35170        1.11970
N          0.27480        1.49060       -0.24430
C          0.83660        2.61390       -0.87380
C          2.12370        3.03410       -0.54910
C          2.63640        4.19410       -1.09410
C          1.86960        4.94360       -1.97470
S          2.44440        6.47890       -2.63770
C          3.27640        7.18520       -1.18200
C          0.61300        4.48800       -2.35840
C          0.09760        3.33390       -1.81120
C         -0.45650        0.57830       -1.01500
C         -1.61380       -0.03200       -0.52800
C         -2.24780       -1.00680       -1.26500
C         -1.75730       -1.38730       -2.51380
S         -2.60020       -2.70070       -3.33120
C         -1.74600       -2.83690       -4.92330
C         -0.64970       -0.72980       -3.03380
C         -0.01180        0.24390       -2.29200
C          0.56220        2.45610        2.00030
S          0.72030        4.15900        1.75740
C          0.74580        4.42230        3.50340
C          0.57150        3.21170        4.22140
N          0.43150        3.09730        5.57980
C         -0.22860        4.07160        6.34950
C          0.22540        4.37590        7.62940
C         -0.37070        5.38370        8.36250
C         -1.41400        6.11740        7.81570
S         -2.15860        7.49840        8.62160
C         -0.88960        8.00750        9.81620
C         -1.91660        5.76670        6.56230
C         -1.34060        4.74690        5.84120
C          0.88450        1.92740        6.21490
C          2.11840        1.38120        5.87480
C          2.57360        0.23210        6.49050
C          1.79970       -0.38700        7.46310
S          2.27290       -1.85010        8.32240
C          3.80940       -2.36260        7.50160
C          0.56840        0.16670        7.81480
C          0.11340        1.30950        7.19910
C          0.52180        2.11130        3.34450
S          0.32100        0.40570        3.57190
C          0.96930        5.65940        4.10710
C          1.05780        6.92060        3.56180
C          0.95770        7.27970        2.14710
O          0.98570        6.53240        1.18070
C          0.84860        8.74730        2.09650
C          0.68330        9.53990        0.96390
C          0.58020       10.88380        1.23460
C          0.64310       11.40100        2.53480
C          0.81910       10.62930        3.65990
C          0.92110        9.25970        3.40740
C          1.12930        8.14260        4.32790
C          1.38030        8.26210        5.67370
C          1.78850        7.21670        6.52160
N          2.17770        6.44290        7.27880
C          1.31850        9.46590        6.40240
N          1.26470       10.39000        7.08310
C          0.44260       12.82030        2.06560
C         -0.96150       13.44740        2.25180
C         -1.94550       12.30390        2.25650
C         -2.00360       11.81490        1.02500
C         -1.05950       12.61870        0.16540
C         -1.19100       13.99610        0.83440
C          0.37420       12.24390        0.61620
H         -0.59160       -6.44840       -4.66150
H         -1.21680      -12.52680       -3.20480
H         -1.15020      -10.73820       -7.94250
H         -0.45270      -14.08980       -7.91840
H         -2.95980      -13.73090       -8.74220
H         -2.40620      -16.29680       -8.86550
H         -2.46390      -17.27480       -6.39590
H         -3.05400      -15.31200       -4.75250
H         -4.55520      -14.54050       -6.79080
H         -3.63700      -13.13210       -6.21220
H         -0.50900      -15.05320       -5.49820
H         -1.16100       -8.19520       -1.19950
H         -1.34030       -8.91890        0.80740
H         -0.70360       -8.74250        2.45040
H          0.92340       -9.98330        1.02380
H          0.98830       -8.63050       -0.10440
H          1.60050       -8.43350        1.54250
H          3.54160       -0.35720       -2.30510
H          2.95700       -1.63760       -3.41080
H          4.96660       -2.03930       -1.13530
H          5.35100       -2.02370       -2.85990
H          4.34210       -3.31340       -2.19180
H          2.71490        2.44680        0.13790
H          3.63050        4.51350       -0.82380
H          2.67280        6.96250       -0.30720
H          4.28040        6.78270       -1.08240
H          3.32760        8.25690       -1.34730
H          0.03480        5.06510       -3.06310
H         -0.89300        2.99820       -2.08010
H         -2.01160        0.25930        0.43230
H         -3.13310       -1.48990       -0.88080
H         -1.85240       -1.90980       -5.47840
H         -0.70210       -3.08990       -4.76260
H         -2.23180       -3.64590       -5.45980
H         -0.26370       -0.97730       -4.00900
H          0.86090        0.73820       -2.69320
H          1.06590        3.84030        8.04190
H          0.01120        5.60690        9.34450
H         -1.17950        8.99920       10.14890
H          0.07580        8.05110        9.32080
H         -0.87000        7.32630       10.66200
H         -2.75900        6.31040        6.16330
H         -1.72760        4.48600        4.86760
H          2.72960        1.86770        5.12880
H          3.53590       -0.16200        6.20750
H          3.62800       -2.51180        6.44130
H          4.58950       -1.62620        7.67200
H          4.08700       -3.30420        7.96480
H         -0.02770       -0.31990        8.57110
H         -0.84500        1.72730        7.46740
H          1.05170        5.61440        5.18520
H          0.63680        9.10120       -0.02080
H          0.86660       11.04210        4.65400
H          1.24320       13.51920        2.29980
H         -1.03630       14.14820        3.07890
H         -2.43890       11.94230        3.13970
H         -2.55520       10.96260        0.67360
H         -1.22370       12.56530       -0.90770
H         -2.18020       14.43340        0.70730
H         -0.43040       14.70770        0.51600
H          1.13100       12.56590       -0.09660
