
  xtb     02062203133D
 energy: -275.231583172483 gnorm: 0.000891746979 xtb: 6.4.1 (unknown)
161179  0     0  0            999 V2000
   -5.2839   -0.0071    4.7981 C   0  0  0  0  0  0  0  0  0  0  0  0
   -4.8994   -1.0811    5.5665 C   0  0  0  0  0  0  0  0  0  0  0  0
   -3.9936   -2.1370    5.1260 C   0  0  0  0  0  0  0  0  0  0  0  0
   -3.3753   -2.1994    4.0734 O   0  0  0  0  0  0  0  0  0  0  0  0
   -3.9970   -3.1549    6.1924 C   0  0  0  0  0  0  0  0  0  0  0  0
   -3.3184   -4.3713    6.1980 C   0  0  0  0  0  0  0  0  0  0  0  0
   -3.5307   -5.1255    7.3277 C   0  0  0  0  0  0  0  0  0  0  0  0
   -4.3613   -4.7027    8.3732 C   0  0  0  0  0  0  0  0  0  0  0  0
   -5.0344   -3.5026    8.3811 C   0  0  0  0  0  0  0  0  0  0  0  0
   -4.8287   -2.7180    7.2442 C   0  0  0  0  0  0  0  0  0  0  0  0
   -5.3618   -1.3999    6.8946 C   0  0  0  0  0  0  0  0  0  0  0  0
   -6.0818   -0.5820    7.7294 C   0  0  0  0  0  0  0  0  0  0  0  0
   -6.4595   -0.9231    9.0427 C   0  0  0  0  0  0  0  0  0  0  0  0
   -6.7981   -1.1415   10.1189 N   0  0  0  0  0  0  0  0  0  0  0  0
   -6.4963    0.7277    7.4136 C   0  0  0  0  0  0  0  0  0  0  0  0
   -6.8545    1.8061    7.2417 N   0  0  0  0  0  0  0  0  0  0  0  0
   -4.1311   -5.9622    9.1713 C   0  0  0  0  0  0  0  0  0  0  0  0
   -3.1636   -5.8940   10.3780 C   0  0  0  0  0  0  0  0  0  0  0  0
   -2.1933   -4.7764   10.0883 C   0  0  0  0  0  0  0  0  0  0  0  0
   -1.4026   -5.1728    9.0998 C   0  0  0  0  0  0  0  0  0  0  0  0
   -1.8242   -6.5659    8.7031 C   0  0  0  0  0  0  0  0  0  0  0  0
   -2.2757   -7.1102   10.0679 C   0  0  0  0  0  0  0  0  0  0  0  0
   -3.2014   -6.4312    8.0078 C   0  0  0  0  0  0  0  0  0  0  0  0
   -4.7066    0.4701    3.6246 C   0  0  0  0  0  0  0  0  0  0  0  0
   -3.2375   -0.0989    2.8899 S   0  0  0  0  0  0  0  0  0  0  0  0
   -3.1030    1.3554    1.9590 C   0  0  0  0  0  0  0  0  0  0  0  0
   -4.2648    2.1405    2.0491 C   0  0  0  0  0  0  0  0  0  0  0  0
   -5.1618    1.6552    3.0006 C   0  0  0  0  0  0  0  0  0  0  0  0
   -6.3650    2.1427    3.3859 O   0  0  0  0  0  0  0  0  0  0  0  0
   -6.5660    3.5412    3.4315 C   0  0  0  0  0  0  0  0  0  0  0  0
   -6.4352    4.2402    2.0802 C   0  0  0  0  0  0  0  0  0  0  0  0
   -4.9783    4.3992    1.6551 C   0  0  0  0  0  0  0  0  0  0  0  0
   -4.3899    3.2007    1.1982 O   0  0  0  0  0  0  0  0  0  0  0  0
   -1.9811    1.7060    1.1748 C   0  0  0  0  0  0  0  0  0  0  0  0
   -0.6612    1.2354    1.2047 C   0  0  0  0  0  0  0  0  0  0  0  0
   -0.1009    0.3453    2.1003 N   0  0  0  0  0  0  0  0  0  0  0  0
   -0.4634    0.3011    3.4482 C   0  0  0  0  0  0  0  0  0  0  0  0
   -0.4145   -0.9090    4.1398 C   0  0  0  0  0  0  0  0  0  0  0  0
   -0.8804   -1.0015    5.4338 C   0  0  0  0  0  0  0  0  0  0  0  0
   -1.4110    0.1170    6.0626 C   0  0  0  0  0  0  0  0  0  0  0  0
   -2.1858    0.0757    7.6484 S   0  0  0  0  0  0  0  0  0  0  0  0
   -1.6019   -1.4812    8.3768 C   0  0  0  0  0  0  0  0  0  0  0  0
   -1.3931    1.3448    5.4050 C   0  0  0  0  0  0  0  0  0  0  0  0
   -0.9129    1.4408    4.1181 C   0  0  0  0  0  0  0  0  0  0  0  0
    0.9766   -0.4412    1.6513 C   0  0  0  0  0  0  0  0  0  0  0  0
    2.1319   -0.5665    2.4227 C   0  0  0  0  0  0  0  0  0  0  0  0
    3.2134   -1.2659    1.9383 C   0  0  0  0  0  0  0  0  0  0  0  0
    3.1714   -1.8461    0.6713 C   0  0  0  0  0  0  0  0  0  0  0  0
    4.6309   -2.6701    0.1277 S   0  0  0  0  0  0  0  0  0  0  0  0
    4.4225   -2.7804   -1.6725 C   0  0  0  0  0  0  0  0  0  0  0  0
    2.0075   -1.7633   -0.0806 C   0  0  0  0  0  0  0  0  0  0  0  0
    0.9180   -1.0709    0.4109 C   0  0  0  0  0  0  0  0  0  0  0  0
    0.1047    1.8458    0.1799 C   0  0  0  0  0  0  0  0  0  0  0  0
    1.7301    1.6496   -0.3816 S   0  0  0  0  0  0  0  0  0  0  0  0
    1.4755    2.8739   -1.6166 C   0  0  0  0  0  0  0  0  0  0  0  0
    0.1804    3.3810   -1.6061 C   0  0  0  0  0  0  0  0  0  0  0  0
   -0.3566    4.2539   -2.5329 N   0  0  0  0  0  0  0  0  0  0  0  0
   -1.3915    5.1050   -2.1217 C   0  0  0  0  0  0  0  0  0  0  0  0
   -2.5126    5.3104   -2.9256 C   0  0  0  0  0  0  0  0  0  0  0  0
   -3.5496    6.0957   -2.4762 C   0  0  0  0  0  0  0  0  0  0  0  0
   -3.4929    6.6935   -1.2181 C   0  0  0  0  0  0  0  0  0  0  0  0
   -4.9165    7.6144   -0.7175 S   0  0  0  0  0  0  0  0  0  0  0  0
   -4.3786    8.4653    0.7945 C   0  0  0  0  0  0  0  0  0  0  0  0
   -2.3650    6.5203   -0.4291 C   0  0  0  0  0  0  0  0  0  0  0  0
   -1.3221    5.7371   -0.8827 C   0  0  0  0  0  0  0  0  0  0  0  0
    0.0409    4.2094   -3.8775 C   0  0  0  0  0  0  0  0  0  0  0  0
    0.3449    2.9975   -4.4922 C   0  0  0  0  0  0  0  0  0  0  0  0
    0.8693    2.9676   -5.7685 C   0  0  0  0  0  0  0  0  0  0  0  0
    1.0868    4.1529   -6.4592 C   0  0  0  0  0  0  0  0  0  0  0  0
    1.8346    4.2293   -8.0551 S   0  0  0  0  0  0  0  0  0  0  0  0
    2.7177    2.6475   -8.1723 C   0  0  0  0  0  0  0  0  0  0  0  0
    0.7010    5.3605   -5.8812 C   0  0  0  0  0  0  0  0  0  0  0  0
    0.1856    5.3908   -4.6047 C   0  0  0  0  0  0  0  0  0  0  0  0
   -0.5801    2.7901   -0.5676 C   0  0  0  0  0  0  0  0  0  0  0  0
   -2.2108    2.9726   -0.0317 S   0  0  0  0  0  0  0  0  0  0  0  0
    2.5084    3.0918   -2.5709 C   0  0  0  0  0  0  0  0  0  0  0  0
    2.8655    4.2697   -3.2012 C   0  0  0  0  0  0  0  0  0  0  0  0
    3.8194    4.0665   -4.1874 C   0  0  0  0  0  0  0  0  0  0  0  0
    4.4179    5.3374   -5.1647 Cl  0  0  0  0  0  0  0  0  0  0  0  0
    4.2240    2.7313   -4.3446 C   0  0  0  0  0  0  0  0  0  0  0  0
    3.3973    1.7319   -3.1767 S   0  0  0  0  0  0  0  0  0  0  0  0
    5.1074    2.3093   -5.3458 C   0  0  0  0  0  0  0  0  0  0  0  0
    5.5365    1.0473   -5.6712 C   0  0  0  0  0  0  0  0  0  0  0  0
    5.1992   -0.1875   -4.9579 C   0  0  0  0  0  0  0  0  0  0  0  0
    4.4814   -0.3086   -3.9769 O   0  0  0  0  0  0  0  0  0  0  0  0
    5.9078   -1.2750   -5.6501 C   0  0  0  0  0  0  0  0  0  0  0  0
    5.8828   -2.6305   -5.3305 C   0  0  0  0  0  0  0  0  0  0  0  0
    6.6668   -3.4121   -6.1439 C   0  0  0  0  0  0  0  0  0  0  0  0
    7.4205   -2.8841   -7.2004 C   0  0  0  0  0  0  0  0  0  0  0  0
    7.4427   -1.5506   -7.5351 C   0  0  0  0  0  0  0  0  0  0  0  0
    6.6503   -0.7372   -6.7208 C   0  0  0  0  0  0  0  0  0  0  0  0
    6.4072    0.7042   -6.7786 C   0  0  0  0  0  0  0  0  0  0  0  0
    6.8841    1.5472   -7.7489 C   0  0  0  0  0  0  0  0  0  0  0  0
    7.7257    1.1500   -8.8093 C   0  0  0  0  0  0  0  0  0  0  0  0
    8.4087    0.9062   -9.6996 N   0  0  0  0  0  0  0  0  0  0  0  0
    6.5915    2.9224   -7.8706 C   0  0  0  0  0  0  0  0  0  0  0  0
    6.3945    4.0370   -8.0675 N   0  0  0  0  0  0  0  0  0  0  0  0
    7.9799   -4.2318   -7.5800 C   0  0  0  0  0  0  0  0  0  0  0  0
    9.4334   -4.5553   -7.1538 C   0  0  0  0  0  0  0  0  0  0  0  0
    9.7147   -3.7299   -5.9228 C   0  0  0  0  0  0  0  0  0  0  0  0
    8.9987   -4.2322   -4.9257 C   0  0  0  0  0  0  0  0  0  0  0  0
    8.2192   -5.4062   -5.4650 C   0  0  0  0  0  0  0  0  0  0  0  0
    9.2140   -5.9342   -6.5110 C   0  0  0  0  0  0  0  0  0  0  0  0
    7.1366   -4.8211   -6.4055 C   0  0  0  0  0  0  0  0  0  0  0  0
   -6.1132    0.5976    5.1450 H   0  0  0  0  0  0  0  0  0  0  0  0
   -2.6956   -4.6618    5.3658 H   0  0  0  0  0  0  0  0  0  0  0  0
   -5.6773   -3.1959    9.1892 H   0  0  0  0  0  0  0  0  0  0  0  0
   -5.0173   -6.5567    9.3848 H   0  0  0  0  0  0  0  0  0  0  0  0
   -3.6525   -5.8641   11.3479 H   0  0  0  0  0  0  0  0  0  0  0  0
   -2.2170   -3.8222   10.5810 H   0  0  0  0  0  0  0  0  0  0  0  0
   -0.6303   -4.6161    8.6012 H   0  0  0  0  0  0  0  0  0  0  0  0
   -1.0930   -7.1487    8.1486 H   0  0  0  0  0  0  0  0  0  0  0  0
   -2.8295   -8.0455   10.0001 H   0  0  0  0  0  0  0  0  0  0  0  0
   -1.4515   -7.2207   10.7712 H   0  0  0  0  0  0  0  0  0  0  0  0
   -3.4805   -7.3328    7.4655 H   0  0  0  0  0  0  0  0  0  0  0  0
   -5.8691    3.9897    4.1545 H   0  0  0  0  0  0  0  0  0  0  0  0
   -7.5824    3.6441    3.8171 H   0  0  0  0  0  0  0  0  0  0  0  0
   -6.8875    5.2294    2.1522 H   0  0  0  0  0  0  0  0  0  0  0  0
   -6.9708    3.6684    1.3201 H   0  0  0  0  0  0  0  0  0  0  0  0
   -4.9033    5.0682    0.7947 H   0  0  0  0  0  0  0  0  0  0  0  0
   -4.3893    4.8128    2.4883 H   0  0  0  0  0  0  0  0  0  0  0  0
   -0.0534   -1.7932    3.6388 H   0  0  0  0  0  0  0  0  0  0  0  0
   -0.8631   -1.9595    5.9276 H   0  0  0  0  0  0  0  0  0  0  0  0
   -0.5179   -1.5191    8.3290 H   0  0  0  0  0  0  0  0  0  0  0  0
   -1.9269   -1.4561    9.4121 H   0  0  0  0  0  0  0  0  0  0  0  0
   -2.0519   -2.3331    7.8752 H   0  0  0  0  0  0  0  0  0  0  0  0
   -1.7737    2.2173    5.9138 H   0  0  0  0  0  0  0  0  0  0  0  0
   -0.9091    2.3956    3.6140 H   0  0  0  0  0  0  0  0  0  0  0  0
    2.1808   -0.0911    3.3909 H   0  0  0  0  0  0  0  0  0  0  0  0
    4.1159   -1.3504    2.5239 H   0  0  0  0  0  0  0  0  0  0  0  0
    5.3810   -3.1321   -2.0435 H   0  0  0  0  0  0  0  0  0  0  0  0
    3.6478   -3.5014   -1.9190 H   0  0  0  0  0  0  0  0  0  0  0  0
    4.2018   -1.7989   -2.0835 H   0  0  0  0  0  0  0  0  0  0  0  0
    1.9403   -2.2265   -1.0513 H   0  0  0  0  0  0  0  0  0  0  0  0
    0.0125   -1.0065   -0.1744 H   0  0  0  0  0  0  0  0  0  0  0  0
   -2.5685    4.8368   -3.8939 H   0  0  0  0  0  0  0  0  0  0  0  0
   -4.4265    6.2433   -3.0874 H   0  0  0  0  0  0  0  0  0  0  0  0
   -3.4879    9.0510    0.5884 H   0  0  0  0  0  0  0  0  0  0  0  0
   -5.1982    9.1236    1.0649 H   0  0  0  0  0  0  0  0  0  0  0  0
   -4.2056    7.7481    1.5917 H   0  0  0  0  0  0  0  0  0  0  0  0
   -2.2845    6.9840    0.5407 H   0  0  0  0  0  0  0  0  0  0  0  0
   -0.4451    5.6052   -0.2663 H   0  0  0  0  0  0  0  0  0  0  0  0
    0.1851    2.0716   -3.9602 H   0  0  0  0  0  0  0  0  0  0  0  0
    1.1061    2.0144   -6.2136 H   0  0  0  0  0  0  0  0  0  0  0  0
    3.4244    2.7664   -8.9881 H   0  0  0  0  0  0  0  0  0  0  0  0
    3.2514    2.4624   -7.2443 H   0  0  0  0  0  0  0  0  0  0  0  0
    2.0266    1.8395   -8.3967 H   0  0  0  0  0  0  0  0  0  0  0  0
    0.8409    6.2750   -6.4360 H   0  0  0  0  0  0  0  0  0  0  0  0
   -0.0809    6.3327   -4.1484 H   0  0  0  0  0  0  0  0  0  0  0  0
    2.4610    5.2332   -2.9541 H   0  0  0  0  0  0  0  0  0  0  0  0
    5.4754    3.1264   -5.9558 H   0  0  0  0  0  0  0  0  0  0  0  0
    5.2839   -2.9954   -4.5109 H   0  0  0  0  0  0  0  0  0  0  0  0
    8.0244   -1.1638   -8.3547 H   0  0  0  0  0  0  0  0  0  0  0  0
    7.7585   -4.5728   -8.5893 H   0  0  0  0  0  0  0  0  0  0  0  0
   10.1639   -4.4861   -7.9552 H   0  0  0  0  0  0  0  0  0  0  0  0
   10.3428   -2.8584   -5.9170 H   0  0  0  0  0  0  0  0  0  0  0  0
    8.9096   -3.8644   -3.9203 H   0  0  0  0  0  0  0  0  0  0  0  0
    7.8445   -6.1130   -4.7291 H   0  0  0  0  0  0  0  0  0  0  0  0
    8.7809   -6.6662   -7.1913 H   0  0  0  0  0  0  0  0  0  0  0  0
   10.1202   -6.3390   -6.0633 H   0  0  0  0  0  0  0  0  0  0  0  0
    6.3615   -5.5454   -6.6486 H   0  0  0  0  0  0  0  0  0  0  0  0
  1  2  2  0  0  0  0
  2  3  1  0  0  0  0
  3  4  2  0  0  0  0
  3  5  1  0  0  0  0
  5  6  2  0  0  0  0
  6  7  1  0  0  0  0
  7  8  2  0  0  0  0
  8  9  1  0  0  0  0
  9 10  2  0  0  0  0
 10 11  1  0  0  0  0
 11 12  2  0  0  0  0
 12 13  1  0  0  0  0
 13 14  3  0  0  0  0
 12 15  1  0  0  0  0
 15 16  3  0  0  0  0
  8 17  1  0  0  0  0
 17 18  1  0  0  0  0
 18 19  1  0  0  0  0
 19 20  2  0  0  0  0
 20 21  1  0  0  0  0
 21 22  1  0  0  0  0
 21 23  1  0  0  0  0
  1 24  1  0  0  0  0
 24 25  1  0  0  0  0
 25 26  1  0  0  0  0
 26 27  2  0  0  0  0
 27 28  1  0  0  0  0
 28 29  1  0  0  0  0
 29 30  1  0  0  0  0
 30 31  1  0  0  0  0
 31 32  1  0  0  0  0
 32 33  1  0  0  0  0
 26 34  1  0  0  0  0
 34 35  2  0  0  0  0
 35 36  1  0  0  0  0
 36 37  1  0  0  0  0
 37 38  2  0  0  0  0
 38 39  1  0  0  0  0
 39 40  2  0  0  0  0
 40 41  1  0  0  0  0
 41 42  1  0  0  0  0
 40 43  1  0  0  0  0
 43 44  2  0  0  0  0
 36 45  1  0  0  0  0
 45 46  2  0  0  0  0
 46 47  1  0  0  0  0
 47 48  2  0  0  0  0
 48 49  1  0  0  0  0
 49 50  1  0  0  0  0
 48 51  1  0  0  0  0
 51 52  2  0  0  0  0
 35 53  1  0  0  0  0
 53 54  1  0  0  0  0
 54 55  1  0  0  0  0
 55 56  2  0  0  0  0
 56 57  1  0  0  0  0
 57 58  1  0  0  0  0
 58 59  2  0  0  0  0
 59 60  1  0  0  0  0
 60 61  2  0  0  0  0
 61 62  1  0  0  0  0
 62 63  1  0  0  0  0
 61 64  1  0  0  0  0
 64 65  2  0  0  0  0
 57 66  1  0  0  0  0
 66 67  2  0  0  0  0
 67 68  1  0  0  0  0
 68 69  2  0  0  0  0
 69 70  1  0  0  0  0
 70 71  1  0  0  0  0
 69 72  1  0  0  0  0
 72 73  2  0  0  0  0
 56 74  1  0  0  0  0
 74 75  1  0  0  0  0
 55 76  1  0  0  0  0
 76 77  2  0  0  0  0
 77 78  1  0  0  0  0
 78 79  1  0  0  0  0
 78 80  2  0  0  0  0
 80 81  1  0  0  0  0
 80 82  1  0  0  0  0
 82 83  2  0  0  0  0
 83 84  1  0  0  0  0
 84 85  2  0  0  0  0
 84 86  1  0  0  0  0
 86 87  2  0  0  0  0
 87 88  1  0  0  0  0
 88 89  2  0  0  0  0
 89 90  1  0  0  0  0
 90 91  2  0  0  0  0
 91 92  1  0  0  0  0
 92 93  2  0  0  0  0
 93 94  1  0  0  0  0
 94 95  3  0  0  0  0
 93 96  1  0  0  0  0
 96 97  3  0  0  0  0
 89 98  1  0  0  0  0
 98 99  1  0  0  0  0
 99100  1  0  0  0  0
100101  2  0  0  0  0
101102  1  0  0  0  0
102103  1  0  0  0  0
102104  1  0  0  0  0
 11  2  1  0  0  0  0
 23 17  1  0  0  0  0
 28 24  2  0  0  0  0
 75 34  1  0  0  0  0
 81 76  1  0  0  0  0
 92 83  1  0  0  0  0
104 98  1  0  0  0  0
 10  5  1  0  0  0  0
 22 18  1  0  0  0  0
 33 27  1  0  0  0  0
 44 37  1  0  0  0  0
 52 45  1  0  0  0  0
 74 53  2  0  0  0  0
 91 86  1  0  0  0  0
103 99  1  0  0  0  0
 23  7  1  0  0  0  0
 65 58  1  0  0  0  0
 73 66  1  0  0  0  0
104 88  1  0  0  0  0
  1105  1  0  0  0  0
  6106  1  0  0  0  0
  9107  1  0  0  0  0
 17108  1  0  0  0  0
 18109  1  0  0  0  0
 19110  1  0  0  0  0
 20111  1  0  0  0  0
 21112  1  0  0  0  0
 22113  1  0  0  0  0
 22114  1  0  0  0  0
 23115  1  0  0  0  0
 30116  1  0  0  0  0
 30117  1  0  0  0  0
 31118  1  0  0  0  0
 31119  1  0  0  0  0
 32120  1  0  0  0  0
 32121  1  0  0  0  0
 38122  1  0  0  0  0
 39123  1  0  0  0  0
 42124  1  0  0  0  0
 42125  1  0  0  0  0
 42126  1  0  0  0  0
 43127  1  0  0  0  0
 44128  1  0  0  0  0
 46129  1  0  0  0  0
 47130  1  0  0  0  0
 50131  1  0  0  0  0
 50132  1  0  0  0  0
 50133  1  0  0  0  0
 51134  1  0  0  0  0
 52135  1  0  0  0  0
 59136  1  0  0  0  0
 60137  1  0  0  0  0
 63138  1  0  0  0  0
 63139  1  0  0  0  0
 63140  1  0  0  0  0
 64141  1  0  0  0  0
 65142  1  0  0  0  0
 67143  1  0  0  0  0
 68144  1  0  0  0  0
 71145  1  0  0  0  0
 71146  1  0  0  0  0
 71147  1  0  0  0  0
 72148  1  0  0  0  0
 73149  1  0  0  0  0
 77150  1  0  0  0  0
 82151  1  0  0  0  0
 87152  1  0  0  0  0
 90153  1  0  0  0  0
 98154  1  0  0  0  0
 99155  1  0  0  0  0
100156  1  0  0  0  0
101157  1  0  0  0  0
102158  1  0  0  0  0
103159  1  0  0  0  0
103160  1  0  0  0  0
104161  1  0  0  0  0
M  END
