
  xtb     02092216003D
 energy: -277.887420498864 gnorm: 0.000476714043 xtb: 6.4.1 (unknown)
157173  0     0  0            999 V2000
    1.1285   -6.5542    0.2891 C   0  0  0  0  0  0  0  0  0  0  0  0
    1.0509   -7.4279   -0.7383 C   0  0  0  0  0  0  0  0  0  0  0  0
    0.3973   -7.1503   -2.0493 C   0  0  0  0  0  0  0  0  0  0  0  0
   -0.2641   -6.1821   -2.3481 O   0  0  0  0  0  0  0  0  0  0  0  0
    0.6261   -8.3542   -2.8673 C   0  0  0  0  0  0  0  0  0  0  0  0
    0.2547   -8.5387   -4.1977 C   0  0  0  0  0  0  0  0  0  0  0  0
    0.6066   -9.7628   -4.7123 C   0  0  0  0  0  0  0  0  0  0  0  0
    1.2698  -10.7396   -3.9554 C   0  0  0  0  0  0  0  0  0  0  0  0
    1.6293  -10.5772   -2.6398 C   0  0  0  0  0  0  0  0  0  0  0  0
    1.2865   -9.3334   -2.0960 C   0  0  0  0  0  0  0  0  0  0  0  0
    1.4995   -8.8124   -0.7506 C   0  0  0  0  0  0  0  0  0  0  0  0
    2.0263   -9.5065    0.3056 C   0  0  0  0  0  0  0  0  0  0  0  0
    2.1732   -9.0148    1.6185 C   0  0  0  0  0  0  0  0  0  0  0  0
    2.3142   -8.7173    2.7195 N   0  0  0  0  0  0  0  0  0  0  0  0
    2.4680  -10.8458    0.2435 C   0  0  0  0  0  0  0  0  0  0  0  0
    2.8484  -11.9286    0.2714 N   0  0  0  0  0  0  0  0  0  0  0  0
    1.3209  -11.7115   -5.1077 C   0  0  0  0  0  0  0  0  0  0  0  0
    2.6766  -11.8452   -5.8334 C   0  0  0  0  0  0  0  0  0  0  0  0
    2.3148  -12.4630   -7.1647 C   0  0  0  0  0  0  0  0  0  0  0  0
    1.6877  -11.5389   -7.8813 C   0  0  0  0  0  0  0  0  0  0  0  0
    1.6153  -10.2808   -7.0463 C   0  0  0  0  0  0  0  0  0  0  0  0
    2.9367  -10.3994   -6.2759 C   0  0  0  0  0  0  0  0  0  0  0  0
    0.5825  -10.6228   -5.9509 C   0  0  0  0  0  0  0  0  0  0  0  0
    0.8249   -5.1474    0.2469 C   0  0  0  0  0  0  0  0  0  0  0  0
    0.1229   -4.5851    1.3348 C   0  0  0  0  0  0  0  0  0  0  0  0
   -0.4350   -5.1651    2.4056 N   0  0  0  0  0  0  0  0  0  0  0  0
   -0.9586   -4.1726    3.0701 N   0  0  0  0  0  0  0  0  0  0  0  0
   -1.6788   -4.3749    4.2965 C   0  0  0  0  0  0  0  0  0  0  0  0
   -0.8612   -5.2089    5.2731 C   0  0  0  0  0  0  0  0  0  0  0  0
   -0.8155   -2.9825    2.5598 N   0  0  0  0  0  0  0  0  0  0  0  0
   -0.1170   -3.1894    1.4342 C   0  0  0  0  0  0  0  0  0  0  0  0
    0.3676   -2.2836    0.4669 C   0  0  0  0  0  0  0  0  0  0  0  0
    1.0083   -2.8577   -0.6199 C   0  0  0  0  0  0  0  0  0  0  0  0
    1.2509   -4.2446   -0.7190 C   0  0  0  0  0  0  0  0  0  0  0  0
    2.2709   -4.7751   -1.9902 Cl  0  0  0  0  0  0  0  0  0  0  0  0
    1.6455   -1.8324   -1.8457 Cl  0  0  0  0  0  0  0  0  0  0  0  0
    0.2683   -0.8681    0.7313 C   0  0  0  0  0  0  0  0  0  0  0  0
    0.5867   -0.2772    1.9437 C   0  0  0  0  0  0  0  0  0  0  0  0
    1.2090   -0.9069    3.0087 N   0  0  0  0  0  0  0  0  0  0  0  0
    0.8146   -0.5689    4.3098 C   0  0  0  0  0  0  0  0  0  0  0  0
    1.7519   -0.5130    5.3370 C   0  0  0  0  0  0  0  0  0  0  0  0
    1.3701   -0.1786    6.6215 C   0  0  0  0  0  0  0  0  0  0  0  0
    0.0415    0.1168    6.8971 C   0  0  0  0  0  0  0  0  0  0  0  0
   -0.5671    0.5493    8.4976 S   0  0  0  0  0  0  0  0  0  0  0  0
    0.9331    0.7261    9.5042 C   0  0  0  0  0  0  0  0  0  0  0  0
   -0.8998    0.0603    5.8710 C   0  0  0  0  0  0  0  0  0  0  0  0
   -0.5211   -0.2824    4.5925 C   0  0  0  0  0  0  0  0  0  0  0  0
    2.0850   -1.9768    2.7865 C   0  0  0  0  0  0  0  0  0  0  0  0
    2.9467   -1.9712    1.6881 C   0  0  0  0  0  0  0  0  0  0  0  0
    3.7083   -3.0793    1.3948 C   0  0  0  0  0  0  0  0  0  0  0  0
    3.6374   -4.2188    2.1929 C   0  0  0  0  0  0  0  0  0  0  0  0
    4.5614   -5.6263    1.6601 S   0  0  0  0  0  0  0  0  0  0  0  0
    4.7266   -6.6192    3.1730 C   0  0  0  0  0  0  0  0  0  0  0  0
    2.8370   -4.2061    3.3271 C   0  0  0  0  0  0  0  0  0  0  0  0
    2.0794   -3.0898    3.6238 C   0  0  0  0  0  0  0  0  0  0  0  0
    0.2847    1.1063    1.9200 C   0  0  0  0  0  0  0  0  0  0  0  0
    0.4300    2.4008    3.0534 S   0  0  0  0  0  0  0  0  0  0  0  0
   -0.2187    3.5222    1.8876 C   0  0  0  0  0  0  0  0  0  0  0  0
   -0.5224    2.9279    0.6794 C   0  0  0  0  0  0  0  0  0  0  0  0
   -1.0343    3.5913   -0.4543 N   0  0  0  0  0  0  0  0  0  0  0  0
   -0.1680    4.2885   -1.3010 C   0  0  0  0  0  0  0  0  0  0  0  0
   -0.4540    4.4055   -2.6625 C   0  0  0  0  0  0  0  0  0  0  0  0
    0.3275    5.1793   -3.4948 C   0  0  0  0  0  0  0  0  0  0  0  0
    1.4401    5.8384   -2.9916 C   0  0  0  0  0  0  0  0  0  0  0  0
    2.4363    6.9584   -3.9343 S   0  0  0  0  0  0  0  0  0  0  0  0
    2.0394    6.5254   -5.6551 C   0  0  0  0  0  0  0  0  0  0  0  0
    1.7965    5.6367   -1.6641 C   0  0  0  0  0  0  0  0  0  0  0  0
    1.0159    4.8606   -0.8350 C   0  0  0  0  0  0  0  0  0  0  0  0
   -2.4119    3.5466   -0.6768 C   0  0  0  0  0  0  0  0  0  0  0  0
   -3.0565    4.5628   -1.3845 C   0  0  0  0  0  0  0  0  0  0  0  0
   -4.4131    4.5071   -1.6314 C   0  0  0  0  0  0  0  0  0  0  0  0
   -5.1705    3.4489   -1.1477 C   0  0  0  0  0  0  0  0  0  0  0  0
   -6.9229    3.3102   -1.3720 S   0  0  0  0  0  0  0  0  0  0  0  0
   -7.2610    4.4507   -2.7454 C   0  0  0  0  0  0  0  0  0  0  0  0
   -4.5467    2.4614   -0.3940 C   0  0  0  0  0  0  0  0  0  0  0  0
   -3.1889    2.5064   -0.1632 C   0  0  0  0  0  0  0  0  0  0  0  0
   -0.2210    1.5473    0.7060 C   0  0  0  0  0  0  0  0  0  0  0  0
   -0.3075    0.2762   -0.4599 S   0  0  0  0  0  0  0  0  0  0  0  0
   -0.2910    4.9536    2.1131 C   0  0  0  0  0  0  0  0  0  0  0  0
   -1.4542    5.6679    1.7636 C   0  0  0  0  0  0  0  0  0  0  0  0
   -2.7202    5.2660    1.5892 N   0  0  0  0  0  0  0  0  0  0  0  0
   -3.3684    6.3620    1.3162 N   0  0  0  0  0  0  0  0  0  0  0  0
   -4.7959    6.3573    1.1520 C   0  0  0  0  0  0  0  0  0  0  0  0
   -5.2282    7.4505    0.1895 C   0  0  0  0  0  0  0  0  0  0  0  0
   -2.6751    7.4634    1.2704 N   0  0  0  0  0  0  0  0  0  0  0  0
   -1.4262    7.0766    1.5534 C   0  0  0  0  0  0  0  0  0  0  0  0
   -0.2319    7.8096    1.6847 C   0  0  0  0  0  0  0  0  0  0  0  0
    0.8292    7.1260    2.2547 C   0  0  0  0  0  0  0  0  0  0  0  0
    0.8023    5.7314    2.4682 C   0  0  0  0  0  0  0  0  0  0  0  0
    2.2484    4.9770    3.0318 Cl  0  0  0  0  0  0  0  0  0  0  0  0
    2.3071    7.9684    2.5352 Cl  0  0  0  0  0  0  0  0  0  0  0  0
   -0.0749    9.1390    1.1292 C   0  0  0  0  0  0  0  0  0  0  0  0
   -0.3229    9.4117   -0.1649 C   0  0  0  0  0  0  0  0  0  0  0  0
   -0.6992    8.4580   -1.2402 C   0  0  0  0  0  0  0  0  0  0  0  0
   -1.0724    7.3103   -1.1354 O   0  0  0  0  0  0  0  0  0  0  0  0
   -0.4943    9.1974   -2.5053 C   0  0  0  0  0  0  0  0  0  0  0  0
   -0.6216    8.7398   -3.8044 C   0  0  0  0  0  0  0  0  0  0  0  0
   -0.3457    9.6217   -4.8395 C   0  0  0  0  0  0  0  0  0  0  0  0
    0.0475   10.9281   -4.5795 C   0  0  0  0  0  0  0  0  0  0  0  0
    0.1725   11.3923   -3.2772 C   0  0  0  0  0  0  0  0  0  0  0  0
   -0.1018   10.5161   -2.2425 C   0  0  0  0  0  0  0  0  0  0  0  0
   -0.0243   10.7334   -0.7798 C   0  0  0  0  0  0  0  0  0  0  0  0
    0.2384   11.7588   -0.1973 O   0  0  0  0  0  0  0  0  0  0  0  0
    1.4092   -6.9059    1.2730 H   0  0  0  0  0  0  0  0  0  0  0  0
   -0.2585   -7.7605   -4.7405 H   0  0  0  0  0  0  0  0  0  0  0  0
    2.1336  -11.3405   -2.0712 H   0  0  0  0  0  0  0  0  0  0  0  0
    0.8284  -12.6681   -4.9447 H   0  0  0  0  0  0  0  0  0  0  0  0
    3.4533  -12.3413   -5.2578 H   0  0  0  0  0  0  0  0  0  0  0  0
    2.4971  -13.4908   -7.4184 H   0  0  0  0  0  0  0  0  0  0  0  0
    1.2415  -11.6405   -8.8531 H   0  0  0  0  0  0  0  0  0  0  0  0
    1.4256   -9.3516   -7.5767 H   0  0  0  0  0  0  0  0  0  0  0  0
    3.8029  -10.3192   -6.9304 H   0  0  0  0  0  0  0  0  0  0  0  0
    3.0362   -9.6936   -5.4534 H   0  0  0  0  0  0  0  0  0  0  0  0
   -0.4030  -10.8523   -6.3517 H   0  0  0  0  0  0  0  0  0  0  0  0
   -1.8987   -3.3826    4.6949 H   0  0  0  0  0  0  0  0  0  0  0  0
   -2.6174   -4.8890    4.0659 H   0  0  0  0  0  0  0  0  0  0  0  0
   -0.5781   -6.1485    4.8065 H   0  0  0  0  0  0  0  0  0  0  0  0
   -1.4501   -5.4159    6.1618 H   0  0  0  0  0  0  0  0  0  0  0  0
    0.0405   -4.6798    5.5700 H   0  0  0  0  0  0  0  0  0  0  0  0
    2.7877   -0.7333    5.1246 H   0  0  0  0  0  0  0  0  0  0  0  0
    2.1206   -0.1462    7.3947 H   0  0  0  0  0  0  0  0  0  0  0  0
    0.5939    1.0765   10.4741 H   0  0  0  0  0  0  0  0  0  0  0  0
    1.5922    1.4628    9.0548 H   0  0  0  0  0  0  0  0  0  0  0  0
    1.4281   -0.2345    9.6138 H   0  0  0  0  0  0  0  0  0  0  0  0
   -1.9321    0.2824    6.0943 H   0  0  0  0  0  0  0  0  0  0  0  0
   -1.2554   -0.3494    3.8046 H   0  0  0  0  0  0  0  0  0  0  0  0
    3.0047   -1.0965    1.0582 H   0  0  0  0  0  0  0  0  0  0  0  0
    4.3600   -3.0802    0.5349 H   0  0  0  0  0  0  0  0  0  0  0  0
    3.8012   -7.1499    3.3817 H   0  0  0  0  0  0  0  0  0  0  0  0
    5.5155   -7.3364    2.9679 H   0  0  0  0  0  0  0  0  0  0  0  0
    5.0167   -5.9736    3.9960 H   0  0  0  0  0  0  0  0  0  0  0  0
    2.7730   -5.0703    3.9691 H   0  0  0  0  0  0  0  0  0  0  0  0
    1.4444   -3.0894    4.4974 H   0  0  0  0  0  0  0  0  0  0  0  0
   -1.3072    3.8881   -3.0747 H   0  0  0  0  0  0  0  0  0  0  0  0
    0.0570    5.2585   -4.5366 H   0  0  0  0  0  0  0  0  0  0  0  0
    1.0367    6.8576   -5.9081 H   0  0  0  0  0  0  0  0  0  0  0  0
    2.7647    7.0530   -6.2663 H   0  0  0  0  0  0  0  0  0  0  0  0
    2.1459    5.4539   -5.7938 H   0  0  0  0  0  0  0  0  0  0  0  0
    2.6890    6.1068   -1.2796 H   0  0  0  0  0  0  0  0  0  0  0  0
    1.3339    4.7091    0.1814 H   0  0  0  0  0  0  0  0  0  0  0  0
   -2.4937    5.4221   -1.7144 H   0  0  0  0  0  0  0  0  0  0  0  0
   -4.8738    5.3060   -2.1911 H   0  0  0  0  0  0  0  0  0  0  0  0
   -6.5810    4.2425   -3.5658 H   0  0  0  0  0  0  0  0  0  0  0  0
   -7.1737    5.4817   -2.4139 H   0  0  0  0  0  0  0  0  0  0  0  0
   -8.2832    4.2500   -3.0503 H   0  0  0  0  0  0  0  0  0  0  0  0
   -5.1379    1.6511    0.0042 H   0  0  0  0  0  0  0  0  0  0  0  0
   -2.7355    1.7231    0.4215 H   0  0  0  0  0  0  0  0  0  0  0  0
   -5.0704    5.3629    0.7947 H   0  0  0  0  0  0  0  0  0  0  0  0
   -5.2570    6.5146    2.1336 H   0  0  0  0  0  0  0  0  0  0  0  0
   -4.7289    7.3256   -0.7671 H   0  0  0  0  0  0  0  0  0  0  0  0
   -4.9629    8.4259    0.5867 H   0  0  0  0  0  0  0  0  0  0  0  0
   -6.3036    7.4049    0.0424 H   0  0  0  0  0  0  0  0  0  0  0  0
    0.3541    9.9185    1.7492 H   0  0  0  0  0  0  0  0  0  0  0  0
   -0.9250    7.7204   -3.9894 H   0  0  0  0  0  0  0  0  0  0  0  0
   -0.4357    9.2920   -5.8645 H   0  0  0  0  0  0  0  0  0  0  0  0
    0.2605   11.5914   -5.4048 H   0  0  0  0  0  0  0  0  0  0  0  0
    0.4797   12.4051   -3.0668 H   0  0  0  0  0  0  0  0  0  0  0  0
  1  2  2  0  0  0  0
  2  3  1  0  0  0  0
  3  4  2  0  0  0  0
  3  5  1  0  0  0  0
  5  6  2  0  0  0  0
  6  7  1  0  0  0  0
  7  8  2  0  0  0  0
  8  9  1  0  0  0  0
  9 10  2  0  0  0  0
 10 11  1  0  0  0  0
 11 12  2  0  0  0  0
 12 13  1  0  0  0  0
 13 14  3  0  0  0  0
 12 15  1  0  0  0  0
 15 16  3  0  0  0  0
  8 17  1  0  0  0  0
 17 18  1  0  0  0  0
 18 19  1  0  0  0  0
 19 20  2  0  0  0  0
 20 21  1  0  0  0  0
 21 22  1  0  0  0  0
 21 23  1  0  0  0  0
  1 24  1  0  0  0  0
 24 25  1  0  0  0  0
 25 26  2  0  0  0  0
 26 27  1  0  0  0  0
 27 28  1  0  0  0  0
 28 29  1  0  0  0  0
 27 30  1  0  0  0  0
 30 31  2  0  0  0  0
 31 32  1  0  0  0  0
 32 33  2  0  0  0  0
 33 34  1  0  0  0  0
 34 35  1  0  0  0  0
 33 36  1  0  0  0  0
 32 37  1  0  0  0  0
 37 38  2  0  0  0  0
 38 39  1  0  0  0  0
 39 40  1  0  0  0  0
 40 41  2  0  0  0  0
 41 42  1  0  0  0  0
 42 43  2  0  0  0  0
 43 44  1  0  0  0  0
 44 45  1  0  0  0  0
 43 46  1  0  0  0  0
 46 47  2  0  0  0  0
 39 48  1  0  0  0  0
 48 49  2  0  0  0  0
 49 50  1  0  0  0  0
 50 51  2  0  0  0  0
 51 52  1  0  0  0  0
 52 53  1  0  0  0  0
 51 54  1  0  0  0  0
 54 55  2  0  0  0  0
 38 56  1  0  0  0  0
 56 57  1  0  0  0  0
 57 58  1  0  0  0  0
 58 59  2  0  0  0  0
 59 60  1  0  0  0  0
 60 61  1  0  0  0  0
 61 62  2  0  0  0  0
 62 63  1  0  0  0  0
 63 64  2  0  0  0  0
 64 65  1  0  0  0  0
 65 66  1  0  0  0  0
 64 67  1  0  0  0  0
 67 68  2  0  0  0  0
 60 69  1  0  0  0  0
 69 70  2  0  0  0  0
 70 71  1  0  0  0  0
 71 72  2  0  0  0  0
 72 73  1  0  0  0  0
 73 74  1  0  0  0  0
 72 75  1  0  0  0  0
 75 76  2  0  0  0  0
 59 77  1  0  0  0  0
 77 78  1  0  0  0  0
 58 79  1  0  0  0  0
 79 80  1  0  0  0  0
 80 81  2  0  0  0  0
 81 82  1  0  0  0  0
 82 83  1  0  0  0  0
 83 84  1  0  0  0  0
 82 85  1  0  0  0  0
 85 86  2  0  0  0  0
 86 87  1  0  0  0  0
 87 88  2  0  0  0  0
 88 89  1  0  0  0  0
 89 90  1  0  0  0  0
 88 91  1  0  0  0  0
 87 92  1  0  0  0  0
 92 93  2  0  0  0  0
 93 94  1  0  0  0  0
 94 95  2  0  0  0  0
 94 96  1  0  0  0  0
 96 97  2  0  0  0  0
 97 98  1  0  0  0  0
 98 99  2  0  0  0  0
 99100  1  0  0  0  0
100101  2  0  0  0  0
101102  1  0  0  0  0
102103  2  0  0  0  0
 11  2  1  0  0  0  0
 23 17  1  0  0  0  0
 34 24  2  0  0  0  0
 78 37  1  0  0  0  0
 89 79  2  0  0  0  0
102 93  1  0  0  0  0
 10  5  1  0  0  0  0
 22 18  1  0  0  0  0
 31 25  1  0  0  0  0
 47 40  1  0  0  0  0
 55 48  1  0  0  0  0
 77 56  2  0  0  0  0
 86 80  1  0  0  0  0
101 96  1  0  0  0  0
 23  7  1  0  0  0  0
 68 61  1  0  0  0  0
 76 69  1  0  0  0  0
  1104  1  0  0  0  0
  6105  1  0  0  0  0
  9106  1  0  0  0  0
 17107  1  0  0  0  0
 18108  1  0  0  0  0
 19109  1  0  0  0  0
 20110  1  0  0  0  0
 21111  1  0  0  0  0
 22112  1  0  0  0  0
 22113  1  0  0  0  0
 23114  1  0  0  0  0
 28115  1  0  0  0  0
 28116  1  0  0  0  0
 29117  1  0  0  0  0
 29118  1  0  0  0  0
 29119  1  0  0  0  0
 41120  1  0  0  0  0
 42121  1  0  0  0  0
 45122  1  0  0  0  0
 45123  1  0  0  0  0
 45124  1  0  0  0  0
 46125  1  0  0  0  0
 47126  1  0  0  0  0
 49127  1  0  0  0  0
 50128  1  0  0  0  0
 53129  1  0  0  0  0
 53130  1  0  0  0  0
 53131  1  0  0  0  0
 54132  1  0  0  0  0
 55133  1  0  0  0  0
 62134  1  0  0  0  0
 63135  1  0  0  0  0
 66136  1  0  0  0  0
 66137  1  0  0  0  0
 66138  1  0  0  0  0
 67139  1  0  0  0  0
 68140  1  0  0  0  0
 70141  1  0  0  0  0
 71142  1  0  0  0  0
 74143  1  0  0  0  0
 74144  1  0  0  0  0
 74145  1  0  0  0  0
 75146  1  0  0  0  0
 76147  1  0  0  0  0
 83148  1  0  0  0  0
 83149  1  0  0  0  0
 84150  1  0  0  0  0
 84151  1  0  0  0  0
 84152  1  0  0  0  0
 92153  1  0  0  0  0
 97154  1  0  0  0  0
 98155  1  0  0  0  0
 99156  1  0  0  0  0
100157  1  0  0  0  0
M  END
