
  xtb     02092207433D
 energy: -285.005506982281 gnorm: 0.000368011433 xtb: 6.4.1 (unknown)
170188  0     0  0            999 V2000
    7.5014   -2.0807   -2.9470 C   0  0  0  0  0  0  0  0  0  0  0  0
    7.6682   -3.4158   -2.7682 C   0  0  0  0  0  0  0  0  0  0  0  0
    8.2785   -4.2259   -3.8609 C   0  0  0  0  0  0  0  0  0  0  0  0
    8.9863   -3.8217   -4.7555 O   0  0  0  0  0  0  0  0  0  0  0  0
    7.7498   -5.5880   -3.6623 C   0  0  0  0  0  0  0  0  0  0  0  0
    7.8850   -6.6787   -4.5191 C   0  0  0  0  0  0  0  0  0  0  0  0
    7.2294   -7.8090   -4.0948 C   0  0  0  0  0  0  0  0  0  0  0  0
    6.4852   -7.8587   -2.9073 C   0  0  0  0  0  0  0  0  0  0  0  0
    6.3487   -6.7957   -2.0472 C   0  0  0  0  0  0  0  0  0  0  0  0
    7.0132   -5.6380   -2.4590 C   0  0  0  0  0  0  0  0  0  0  0  0
    7.1152   -4.3412   -1.8026 C   0  0  0  0  0  0  0  0  0  0  0  0
    6.9627   -4.0974   -0.4639 C   0  0  0  0  0  0  0  0  0  0  0  0
    6.4404   -5.0187    0.4637 C   0  0  0  0  0  0  0  0  0  0  0  0
    5.9890   -5.7079    1.2639 N   0  0  0  0  0  0  0  0  0  0  0  0
    7.4151   -2.9077    0.1479 C   0  0  0  0  0  0  0  0  0  0  0  0
    7.8296   -1.9863    0.6919 N   0  0  0  0  0  0  0  0  0  0  0  0
    6.0949   -9.3000   -3.1181 C   0  0  0  0  0  0  0  0  0  0  0  0
    6.8535  -10.3483   -2.2767 C   0  0  0  0  0  0  0  0  0  0  0  0
    6.6218  -11.6445   -3.0192 C   0  0  0  0  0  0  0  0  0  0  0  0
    7.3296  -11.5992   -4.1406 C   0  0  0  0  0  0  0  0  0  0  0  0
    8.0517  -10.2715   -4.1750 C   0  0  0  0  0  0  0  0  0  0  0  0
    8.3090  -10.0724   -2.6757 C   0  0  0  0  0  0  0  0  0  0  0  0
    6.9282   -9.2463   -4.4388 C   0  0  0  0  0  0  0  0  0  0  0  0
    6.5233   -1.2117   -2.4026 C   0  0  0  0  0  0  0  0  0  0  0  0
    6.3087    0.0909   -2.8066 C   0  0  0  0  0  0  0  0  0  0  0  0
    5.1080    0.6354   -2.3317 C   0  0  0  0  0  0  0  0  0  0  0  0
    4.6089    2.3250   -2.5006 S   0  0  0  0  0  0  0  0  0  0  0  0
    4.1574    2.4942   -4.2710 C   0  0  0  0  0  0  0  0  0  0  0  0
    5.2380    2.0661   -5.2401 C   0  0  0  0  0  0  0  0  0  0  0  0
    4.3958   -0.2426   -1.5423 C   0  0  0  0  0  0  0  0  0  0  0  0
    5.2453   -1.7339   -1.3387 S   0  0  0  0  0  0  0  0  0  0  0  0
    3.0750   -0.0843   -0.9971 C   0  0  0  0  0  0  0  0  0  0  0  0
    1.9076   -0.0119   -1.7280 C   0  0  0  0  0  0  0  0  0  0  0  0
    1.8311   -0.0894   -3.1158 N   0  0  0  0  0  0  0  0  0  0  0  0
    2.5682   -1.0701   -3.7858 C   0  0  0  0  0  0  0  0  0  0  0  0
    2.8223   -2.2985   -3.1716 C   0  0  0  0  0  0  0  0  0  0  0  0
    3.6681   -3.2146   -3.7555 C   0  0  0  0  0  0  0  0  0  0  0  0
    4.2796   -2.9310   -4.9722 C   0  0  0  0  0  0  0  0  0  0  0  0
    5.4382   -4.1186   -5.5863 S   0  0  0  0  0  0  0  0  0  0  0  0
    6.4809   -3.1280   -6.6949 C   0  0  0  0  0  0  0  0  0  0  0  0
    3.9525   -1.7567   -5.6376 C   0  0  0  0  0  0  0  0  0  0  0  0
    3.1017   -0.8388   -5.0527 C   0  0  0  0  0  0  0  0  0  0  0  0
    0.8706    0.7123   -3.7441 C   0  0  0  0  0  0  0  0  0  0  0  0
    0.0982    0.2375   -4.8030 C   0  0  0  0  0  0  0  0  0  0  0  0
   -0.9012    1.0241   -5.3323 C   0  0  0  0  0  0  0  0  0  0  0  0
   -1.1543    2.2934   -4.8166 C   0  0  0  0  0  0  0  0  0  0  0  0
   -2.5177    3.1791   -5.5115 S   0  0  0  0  0  0  0  0  0  0  0  0
   -2.2860    4.8734   -4.8966 C   0  0  0  0  0  0  0  0  0  0  0  0
   -0.3653    2.7828   -3.7858 C   0  0  0  0  0  0  0  0  0  0  0  0
    0.6433    2.0004   -3.2624 C   0  0  0  0  0  0  0  0  0  0  0  0
    0.7802    0.0789   -0.8760 C   0  0  0  0  0  0  0  0  0  0  0  0
   -0.9151    0.2367   -1.1521 S   0  0  0  0  0  0  0  0  0  0  0  0
   -1.2097    0.1630    0.5742 C   0  0  0  0  0  0  0  0  0  0  0  0
   -0.0398    0.1084    1.3263 C   0  0  0  0  0  0  0  0  0  0  0  0
    0.0491    0.2114    2.7014 N   0  0  0  0  0  0  0  0  0  0  0  0
    1.1069   -0.4437    3.3490 C   0  0  0  0  0  0  0  0  0  0  0  0
    1.5178   -1.7009    2.9091 C   0  0  0  0  0  0  0  0  0  0  0  0
    2.6195   -2.3181    3.4662 C   0  0  0  0  0  0  0  0  0  0  0  0
    3.3229   -1.6909    4.4858 C   0  0  0  0  0  0  0  0  0  0  0  0
    4.7742   -2.3833    5.2132 S   0  0  0  0  0  0  0  0  0  0  0  0
    5.4374   -3.4152    3.8728 C   0  0  0  0  0  0  0  0  0  0  0  0
    2.8732   -0.4661    4.9757 C   0  0  0  0  0  0  0  0  0  0  0  0
    1.7808    0.1556    4.4128 C   0  0  0  0  0  0  0  0  0  0  0  0
   -0.8555    1.0108    3.4191 C   0  0  0  0  0  0  0  0  0  0  0  0
   -1.3356    0.5915    4.6570 C   0  0  0  0  0  0  0  0  0  0  0  0
   -2.3335    1.2968    5.3016 C   0  0  0  0  0  0  0  0  0  0  0  0
   -2.8797    2.4268    4.7083 C   0  0  0  0  0  0  0  0  0  0  0  0
   -4.2385    3.3257    5.3896 S   0  0  0  0  0  0  0  0  0  0  0  0
   -4.9767    2.1368    6.5496 C   0  0  0  0  0  0  0  0  0  0  0  0
   -2.3467    2.8970    3.5092 C   0  0  0  0  0  0  0  0  0  0  0  0
   -1.3400    2.2030    2.8779 C   0  0  0  0  0  0  0  0  0  0  0  0
    1.0920    0.0325    0.4726 C   0  0  0  0  0  0  0  0  0  0  0  0
    2.7968   -0.1172    0.7320 S   0  0  0  0  0  0  0  0  0  0  0  0
   -2.5589    0.2748    1.0393 C   0  0  0  0  0  0  0  0  0  0  0  0
   -3.4899    1.0753    0.3438 C   0  0  0  0  0  0  0  0  0  0  0  0
   -3.4219    1.6508   -0.8635 N   0  0  0  0  0  0  0  0  0  0  0  0
   -4.5575    2.2763   -0.9828 N   0  0  0  0  0  0  0  0  0  0  0  0
   -4.8688    3.0504   -2.1494 C   0  0  0  0  0  0  0  0  0  0  0  0
   -4.7825    4.5377   -1.8226 C   0  0  0  0  0  0  0  0  0  0  0  0
   -5.3810    2.2007    0.0251 N   0  0  0  0  0  0  0  0  0  0  0  0
   -4.7368    1.4469    0.9234 C   0  0  0  0  0  0  0  0  0  0  0  0
   -5.1021    1.0208    2.2202 C   0  0  0  0  0  0  0  0  0  0  0  0
   -4.2517    0.0566    2.7555 C   0  0  0  0  0  0  0  0  0  0  0  0
   -3.0246   -0.3052    2.2131 C   0  0  0  0  0  0  0  0  0  0  0  0
   -4.5706   -0.4841    3.9510 F   0  0  0  0  0  0  0  0  0  0  0  0
   -6.2075    1.5330    2.9740 C   0  0  0  0  0  0  0  0  0  0  0  0
   -6.6327    2.8207    2.9660 C   0  0  0  0  0  0  0  0  0  0  0  0
   -5.9691    3.9672    2.2906 C   0  0  0  0  0  0  0  0  0  0  0  0
   -4.8509    4.0224    1.8264 O   0  0  0  0  0  0  0  0  0  0  0  0
   -6.9211    5.0896    2.3882 C   0  0  0  0  0  0  0  0  0  0  0  0
   -6.7927    6.3475    1.8023 C   0  0  0  0  0  0  0  0  0  0  0  0
   -7.8476    7.1915    2.0500 C   0  0  0  0  0  0  0  0  0  0  0  0
   -8.9477    6.8179    2.8344 C   0  0  0  0  0  0  0  0  0  0  0  0
   -9.0790    5.5887    3.4335 C   0  0  0  0  0  0  0  0  0  0  0  0
   -8.0168    4.7111    3.1883 C   0  0  0  0  0  0  0  0  0  0  0  0
   -7.8066    3.3429    3.6504 C   0  0  0  0  0  0  0  0  0  0  0  0
   -8.5577    2.7031    4.5988 C   0  0  0  0  0  0  0  0  0  0  0  0
   -8.3062    1.4147    5.1172 C   0  0  0  0  0  0  0  0  0  0  0  0
   -8.1681    0.3894    5.6162 N   0  0  0  0  0  0  0  0  0  0  0  0
   -9.6738    3.2706    5.2502 C   0  0  0  0  0  0  0  0  0  0  0  0
  -10.5883    3.6629    5.8230 N   0  0  0  0  0  0  0  0  0  0  0  0
   -9.6338    8.1486    2.6485 C   0  0  0  0  0  0  0  0  0  0  0  0
  -10.8012    8.1864    1.6396 C   0  0  0  0  0  0  0  0  0  0  0  0
  -10.9489    9.6546    1.3120 C   0  0  0  0  0  0  0  0  0  0  0  0
   -9.9077   10.0092    0.5698 C   0  0  0  0  0  0  0  0  0  0  0  0
   -9.0388    8.7863    0.3835 C   0  0  0  0  0  0  0  0  0  0  0  0
  -10.1189    7.6970    0.3556 C   0  0  0  0  0  0  0  0  0  0  0  0
   -8.4074    8.5651    1.7746 C   0  0  0  0  0  0  0  0  0  0  0  0
    8.0910   -1.6478   -3.7500 H   0  0  0  0  0  0  0  0  0  0  0  0
    8.4583   -6.6035   -5.4296 H   0  0  0  0  0  0  0  0  0  0  0  0
    5.7665   -6.8333   -1.1404 H   0  0  0  0  0  0  0  0  0  0  0  0
    5.0268   -9.4975   -3.1838 H   0  0  0  0  0  0  0  0  0  0  0  0
    6.6141  -10.3408   -1.2170 H   0  0  0  0  0  0  0  0  0  0  0  0
    5.9464  -12.4122   -2.6900 H   0  0  0  0  0  0  0  0  0  0  0  0
    7.3634  -12.3212   -4.9352 H   0  0  0  0  0  0  0  0  0  0  0  0
    8.9041  -10.1955   -4.8447 H   0  0  0  0  0  0  0  0  0  0  0  0
    8.9938  -10.8169   -2.2736 H   0  0  0  0  0  0  0  0  0  0  0  0
    8.6597   -9.0759   -2.4136 H   0  0  0  0  0  0  0  0  0  0  0  0
    6.4162   -9.4089   -5.3852 H   0  0  0  0  0  0  0  0  0  0  0  0
    7.0054    0.6309   -3.4216 H   0  0  0  0  0  0  0  0  0  0  0  0
    3.2323    1.9415   -4.4245 H   0  0  0  0  0  0  0  0  0  0  0  0
    3.9492    3.5602   -4.3627 H   0  0  0  0  0  0  0  0  0  0  0  0
    6.1720    2.5799   -5.0238 H   0  0  0  0  0  0  0  0  0  0  0  0
    5.3989    0.9911   -5.1868 H   0  0  0  0  0  0  0  0  0  0  0  0
    4.9335    2.3172   -6.2548 H   0  0  0  0  0  0  0  0  0  0  0  0
    2.3667   -2.5208   -2.2183 H   0  0  0  0  0  0  0  0  0  0  0  0
    3.8801   -4.1525   -3.2649 H   0  0  0  0  0  0  0  0  0  0  0  0
    7.4139   -3.6739   -6.7962 H   0  0  0  0  0  0  0  0  0  0  0  0
    6.0047   -3.0164   -7.6648 H   0  0  0  0  0  0  0  0  0  0  0  0
    6.6731   -2.1636   -6.2355 H   0  0  0  0  0  0  0  0  0  0  0  0
    4.3636   -1.5430   -6.6118 H   0  0  0  0  0  0  0  0  0  0  0  0
    2.8571    0.0693   -5.5827 H   0  0  0  0  0  0  0  0  0  0  0  0
    0.2714   -0.7554   -5.1898 H   0  0  0  0  0  0  0  0  0  0  0  0
   -1.5140    0.6535   -6.1396 H   0  0  0  0  0  0  0  0  0  0  0  0
   -3.0356    5.4733   -5.4033 H   0  0  0  0  0  0  0  0  0  0  0  0
   -1.2926    5.2242   -5.1594 H   0  0  0  0  0  0  0  0  0  0  0  0
   -2.4474    4.9129   -3.8238 H   0  0  0  0  0  0  0  0  0  0  0  0
   -0.5271    3.7653   -3.3739 H   0  0  0  0  0  0  0  0  0  0  0  0
    1.2566    2.3849   -2.4606 H   0  0  0  0  0  0  0  0  0  0  0  0
    0.9693   -2.1959    2.1206 H   0  0  0  0  0  0  0  0  0  0  0  0
    2.9216   -3.2865    3.1007 H   0  0  0  0  0  0  0  0  0  0  0  0
    6.4659   -3.6308    4.1443 H   0  0  0  0  0  0  0  0  0  0  0  0
    4.8829   -4.3447    3.7858 H   0  0  0  0  0  0  0  0  0  0  0  0
    5.4124   -2.8538    2.9437 H   0  0  0  0  0  0  0  0  0  0  0  0
    3.4098    0.0032    5.7855 H   0  0  0  0  0  0  0  0  0  0  0  0
    1.4573    1.1205    4.7730 H   0  0  0  0  0  0  0  0  0  0  0  0
   -0.9449   -0.3109    5.1043 H   0  0  0  0  0  0  0  0  0  0  0  0
   -2.6979    0.9347    6.2488 H   0  0  0  0  0  0  0  0  0  0  0  0
   -5.1193    1.1818    6.0531 H   0  0  0  0  0  0  0  0  0  0  0  0
   -4.3523    2.0338    7.4321 H   0  0  0  0  0  0  0  0  0  0  0  0
   -5.9383    2.5535    6.8333 H   0  0  0  0  0  0  0  0  0  0  0  0
   -2.7557    3.7903    3.0644 H   0  0  0  0  0  0  0  0  0  0  0  0
   -0.9450    2.5658    1.9410 H   0  0  0  0  0  0  0  0  0  0  0  0
   -4.1526    2.7662   -2.9228 H   0  0  0  0  0  0  0  0  0  0  0  0
   -5.8820    2.7953   -2.4694 H   0  0  0  0  0  0  0  0  0  0  0  0
   -3.7745    4.7979   -1.5079 H   0  0  0  0  0  0  0  0  0  0  0  0
   -5.4645    4.7719   -1.0091 H   0  0  0  0  0  0  0  0  0  0  0  0
   -5.0503    5.1276   -2.6948 H   0  0  0  0  0  0  0  0  0  0  0  0
   -2.4231   -1.0200    2.7501 H   0  0  0  0  0  0  0  0  0  0  0  0
   -6.6902    0.8201    3.6310 H   0  0  0  0  0  0  0  0  0  0  0  0
   -5.9251    6.5982    1.2117 H   0  0  0  0  0  0  0  0  0  0  0  0
   -9.9286    5.3185    4.0379 H   0  0  0  0  0  0  0  0  0  0  0  0
   -9.8395    8.7081    3.5587 H   0  0  0  0  0  0  0  0  0  0  0  0
  -11.6980    7.6641    1.9614 H   0  0  0  0  0  0  0  0  0  0  0  0
  -11.7397   10.2767    1.6880 H   0  0  0  0  0  0  0  0  0  0  0  0
   -9.6550   10.9865    0.2024 H   0  0  0  0  0  0  0  0  0  0  0  0
   -8.3301    8.8109   -0.4403 H   0  0  0  0  0  0  0  0  0  0  0  0
   -9.7284    6.6830    0.4195 H   0  0  0  0  0  0  0  0  0  0  0  0
  -10.7684    7.7835   -0.5140 H   0  0  0  0  0  0  0  0  0  0  0  0
   -7.7949    9.4029    2.1026 H   0  0  0  0  0  0  0  0  0  0  0  0
  1  2  2  0  0  0  0
  2  3  1  0  0  0  0
  3  4  2  0  0  0  0
  3  5  1  0  0  0  0
  5  6  2  0  0  0  0
  6  7  1  0  0  0  0
  7  8  2  0  0  0  0
  8  9  1  0  0  0  0
  9 10  2  0  0  0  0
 10 11  1  0  0  0  0
 11 12  2  0  0  0  0
 12 13  1  0  0  0  0
 13 14  3  0  0  0  0
 12 15  1  0  0  0  0
 15 16  3  0  0  0  0
  8 17  1  0  0  0  0
 17 18  1  0  0  0  0
 18 19  1  0  0  0  0
 19 20  2  0  0  0  0
 20 21  1  0  0  0  0
 21 22  1  0  0  0  0
 21 23  1  0  0  0  0
  1 24  1  0  0  0  0
 24 25  2  0  0  0  0
 25 26  1  0  0  0  0
 26 27  1  0  0  0  0
 27 28  1  0  0  0  0
 28 29  1  0  0  0  0
 26 30  2  0  0  0  0
 30 31  1  0  0  0  0
 30 32  1  0  0  0  0
 32 33  2  0  0  0  0
 33 34  1  0  0  0  0
 34 35  1  0  0  0  0
 35 36  2  0  0  0  0
 36 37  1  0  0  0  0
 37 38  2  0  0  0  0
 38 39  1  0  0  0  0
 39 40  1  0  0  0  0
 38 41  1  0  0  0  0
 41 42  2  0  0  0  0
 34 43  1  0  0  0  0
 43 44  2  0  0  0  0
 44 45  1  0  0  0  0
 45 46  2  0  0  0  0
 46 47  1  0  0  0  0
 47 48  1  0  0  0  0
 46 49  1  0  0  0  0
 49 50  2  0  0  0  0
 33 51  1  0  0  0  0
 51 52  1  0  0  0  0
 52 53  1  0  0  0  0
 53 54  2  0  0  0  0
 54 55  1  0  0  0  0
 55 56  1  0  0  0  0
 56 57  2  0  0  0  0
 57 58  1  0  0  0  0
 58 59  2  0  0  0  0
 59 60  1  0  0  0  0
 60 61  1  0  0  0  0
 59 62  1  0  0  0  0
 62 63  2  0  0  0  0
 55 64  1  0  0  0  0
 64 65  2  0  0  0  0
 65 66  1  0  0  0  0
 66 67  2  0  0  0  0
 67 68  1  0  0  0  0
 68 69  1  0  0  0  0
 67 70  1  0  0  0  0
 70 71  2  0  0  0  0
 54 72  1  0  0  0  0
 72 73  1  0  0  0  0
 53 74  1  0  0  0  0
 74 75  1  0  0  0  0
 75 76  2  0  0  0  0
 76 77  1  0  0  0  0
 77 78  1  0  0  0  0
 78 79  1  0  0  0  0
 77 80  1  0  0  0  0
 80 81  2  0  0  0  0
 81 82  1  0  0  0  0
 82 83  2  0  0  0  0
 83 84  1  0  0  0  0
 83 85  1  0  0  0  0
 82 86  1  0  0  0  0
 86 87  2  0  0  0  0
 87 88  1  0  0  0  0
 88 89  2  0  0  0  0
 88 90  1  0  0  0  0
 90 91  2  0  0  0  0
 91 92  1  0  0  0  0
 92 93  2  0  0  0  0
 93 94  1  0  0  0  0
 94 95  2  0  0  0  0
 95 96  1  0  0  0  0
 96 97  2  0  0  0  0
 97 98  1  0  0  0  0
 98 99  3  0  0  0  0
 97100  1  0  0  0  0
100101  3  0  0  0  0
 93102  1  0  0  0  0
102103  1  0  0  0  0
103104  1  0  0  0  0
104105  2  0  0  0  0
105106  1  0  0  0  0
106107  1  0  0  0  0
106108  1  0  0  0  0
 11  2  1  0  0  0  0
 23 17  1  0  0  0  0
 31 24  1  0  0  0  0
 73 32  1  0  0  0  0
 84 74  2  0  0  0  0
 96 87  1  0  0  0  0
108102  1  0  0  0  0
 10  5  1  0  0  0  0
 22 18  1  0  0  0  0
 42 35  1  0  0  0  0
 50 43  1  0  0  0  0
 72 51  2  0  0  0  0
 81 75  1  0  0  0  0
 95 90  1  0  0  0  0
107103  1  0  0  0  0
 23  7  1  0  0  0  0
 63 56  1  0  0  0  0
 71 64  1  0  0  0  0
108 92  1  0  0  0  0
  1109  1  0  0  0  0
  6110  1  0  0  0  0
  9111  1  0  0  0  0
 17112  1  0  0  0  0
 18113  1  0  0  0  0
 19114  1  0  0  0  0
 20115  1  0  0  0  0
 21116  1  0  0  0  0
 22117  1  0  0  0  0
 22118  1  0  0  0  0
 23119  1  0  0  0  0
 25120  1  0  0  0  0
 28121  1  0  0  0  0
 28122  1  0  0  0  0
 29123  1  0  0  0  0
 29124  1  0  0  0  0
 29125  1  0  0  0  0
 36126  1  0  0  0  0
 37127  1  0  0  0  0
 40128  1  0  0  0  0
 40129  1  0  0  0  0
 40130  1  0  0  0  0
 41131  1  0  0  0  0
 42132  1  0  0  0  0
 44133  1  0  0  0  0
 45134  1  0  0  0  0
 48135  1  0  0  0  0
 48136  1  0  0  0  0
 48137  1  0  0  0  0
 49138  1  0  0  0  0
 50139  1  0  0  0  0
 57140  1  0  0  0  0
 58141  1  0  0  0  0
 61142  1  0  0  0  0
 61143  1  0  0  0  0
 61144  1  0  0  0  0
 62145  1  0  0  0  0
 63146  1  0  0  0  0
 65147  1  0  0  0  0
 66148  1  0  0  0  0
 69149  1  0  0  0  0
 69150  1  0  0  0  0
 69151  1  0  0  0  0
 70152  1  0  0  0  0
 71153  1  0  0  0  0
 78154  1  0  0  0  0
 78155  1  0  0  0  0
 79156  1  0  0  0  0
 79157  1  0  0  0  0
 79158  1  0  0  0  0
 84159  1  0  0  0  0
 86160  1  0  0  0  0
 91161  1  0  0  0  0
 94162  1  0  0  0  0
102163  1  0  0  0  0
103164  1  0  0  0  0
104165  1  0  0  0  0
105166  1  0  0  0  0
106167  1  0  0  0  0
107168  1  0  0  0  0
107169  1  0  0  0  0
108170  1  0  0  0  0
M  END
