157

C          1.12850       -6.55420        0.28910
C          1.05090       -7.42790       -0.73830
C          0.39730       -7.15030       -2.04930
O         -0.26410       -6.18210       -2.34810
C          0.62610       -8.35420       -2.86730
C          0.25470       -8.53870       -4.19770
C          0.60660       -9.76280       -4.71230
C          1.26980      -10.73960       -3.95540
C          1.62930      -10.57720       -2.63980
C          1.28650       -9.33340       -2.09600
C          1.49950       -8.81240       -0.75060
C          2.02630       -9.50650        0.30560
C          2.17320       -9.01480        1.61850
N          2.31420       -8.71730        2.71950
C          2.46800      -10.84580        0.24350
N          2.84840      -11.92860        0.27140
C          1.32090      -11.71150       -5.10770
C          2.67660      -11.84520       -5.83340
C          2.31480      -12.46300       -7.16470
C          1.68770      -11.53890       -7.88130
C          1.61530      -10.28080       -7.04630
C          2.93670      -10.39940       -6.27590
C          0.58250      -10.62280       -5.95090
C          0.82490       -5.14740        0.24690
C          0.12290       -4.58510        1.33480
N         -0.43500       -5.16510        2.40560
N         -0.95860       -4.17260        3.07010
C         -1.67880       -4.37490        4.29650
C         -0.86120       -5.20890        5.27310
N         -0.81550       -2.98250        2.55980
C         -0.11700       -3.18940        1.43420
C          0.36760       -2.28360        0.46690
C          1.00830       -2.85770       -0.61990
C          1.25090       -4.24460       -0.71900
Cl         2.27090       -4.77510       -1.99020
Cl         1.64550       -1.83240       -1.84570
C          0.26830       -0.86810        0.73130
C          0.58670       -0.27720        1.94370
N          1.20900       -0.90690        3.00870
C          0.81460       -0.56890        4.30980
C          1.75190       -0.51300        5.33700
C          1.37010       -0.17860        6.62150
C          0.04150        0.11680        6.89710
S         -0.56710        0.54930        8.49760
C          0.93310        0.72610        9.50420
C         -0.89980        0.06030        5.87100
C         -0.52110       -0.28240        4.59250
C          2.08500       -1.97680        2.78650
C          2.94670       -1.97120        1.68810
C          3.70830       -3.07930        1.39480
C          3.63740       -4.21880        2.19290
S          4.56140       -5.62630        1.66010
C          4.72660       -6.61920        3.17300
C          2.83700       -4.20610        3.32710
C          2.07940       -3.08980        3.62380
C          0.28470        1.10630        1.92000
S          0.43000        2.40080        3.05340
C         -0.21870        3.52220        1.88760
C         -0.52240        2.92790        0.67940
N         -1.03430        3.59130       -0.45430
C         -0.16800        4.28850       -1.30100
C         -0.45400        4.40550       -2.66250
C          0.32750        5.17930       -3.49480
C          1.44010        5.83840       -2.99160
S          2.43630        6.95840       -3.93430
C          2.03940        6.52540       -5.65510
C          1.79650        5.63670       -1.66410
C          1.01590        4.86060       -0.83500
C         -2.41190        3.54660       -0.67680
C         -3.05650        4.56280       -1.38450
C         -4.41310        4.50710       -1.63140
C         -5.17050        3.44890       -1.14770
S         -6.92290        3.31020       -1.37200
C         -7.26100        4.45070       -2.74540
C         -4.54670        2.46140       -0.39400
C         -3.18890        2.50640       -0.16320
C         -0.22100        1.54730        0.70600
S         -0.30750        0.27620       -0.45990
C         -0.29100        4.95360        2.11310
C         -1.45420        5.66790        1.76360
N         -2.72020        5.26600        1.58920
N         -3.36840        6.36200        1.31620
C         -4.79590        6.35730        1.15200
C         -5.22820        7.45050        0.18950
N         -2.67510        7.46340        1.27040
C         -1.42620        7.07660        1.55340
C         -0.23190        7.80960        1.68470
C          0.82920        7.12600        2.25470
C          0.80230        5.73140        2.46820
Cl         2.24840        4.97700        3.03180
Cl         2.30710        7.96840        2.53520
C         -0.07490        9.13900        1.12920
C         -0.32290        9.41170       -0.16490
C         -0.69920        8.45800       -1.24020
O         -1.07240        7.31030       -1.13540
C         -0.49430        9.19740       -2.50530
C         -0.62160        8.73980       -3.80440
C         -0.34570        9.62170       -4.83950
C          0.04750       10.92810       -4.57950
C          0.17250       11.39230       -3.27720
C         -0.10180       10.51610       -2.24250
C         -0.02430       10.73340       -0.77980
O          0.23840       11.75880       -0.19730
H          1.40920       -6.90590        1.27300
H         -0.25850       -7.76050       -4.74050
H          2.13360      -11.34050       -2.07120
H          0.82840      -12.66810       -4.94470
H          3.45330      -12.34130       -5.25780
H          2.49710      -13.49080       -7.41840
H          1.24150      -11.64050       -8.85310
H          1.42560       -9.35160       -7.57670
H          3.80290      -10.31920       -6.93040
H          3.03620       -9.69360       -5.45340
H         -0.40300      -10.85230       -6.35170
H         -1.89870       -3.38260        4.69490
H         -2.61740       -4.88900        4.06590
H         -0.57810       -6.14850        4.80650
H         -1.45010       -5.41590        6.16180
H          0.04050       -4.67980        5.57000
H          2.78770       -0.73330        5.12460
H          2.12060       -0.14620        7.39470
H          0.59390        1.07650       10.47410
H          1.59220        1.46280        9.05480
H          1.42810       -0.23450        9.61380
H         -1.93210        0.28240        6.09430
H         -1.25540       -0.34940        3.80460
H          3.00470       -1.09650        1.05820
H          4.36000       -3.08020        0.53490
H          3.80120       -7.14990        3.38170
H          5.51550       -7.33640        2.96790
H          5.01670       -5.97360        3.99600
H          2.77300       -5.07030        3.96910
H          1.44440       -3.08940        4.49740
H         -1.30720        3.88810       -3.07470
H          0.05700        5.25850       -4.53660
H          1.03670        6.85760       -5.90810
H          2.76470        7.05300       -6.26630
H          2.14590        5.45390       -5.79380
H          2.68900        6.10680       -1.27960
H          1.33390        4.70910        0.18140
H         -2.49370        5.42210       -1.71440
H         -4.87380        5.30600       -2.19110
H         -6.58100        4.24250       -3.56580
H         -7.17370        5.48170       -2.41390
H         -8.28320        4.25000       -3.05030
H         -5.13790        1.65110        0.00420
H         -2.73550        1.72310        0.42150
H         -5.07040        5.36290        0.79470
H         -5.25700        6.51460        2.13360
H         -4.72890        7.32560       -0.76710
H         -4.96290        8.42590        0.58670
H         -6.30360        7.40490        0.04240
H          0.35410        9.91850        1.74920
H         -0.92500        7.72040       -3.98940
H         -0.43570        9.29200       -5.86450
H          0.26050       11.59140       -5.40480
H          0.47970       12.40510       -3.06680
