115

C         -5.04640       -6.26160        1.75130
C         -4.86370       -7.12040        2.79840
C         -3.99850       -6.87480        3.96130
O         -3.43060       -5.83690        4.24960
C         -3.93760       -8.14260        4.70490
C         -3.18420       -8.40990        5.84630
C         -3.31370       -9.69640        6.31160
C         -4.13020      -10.64900        5.68630
C         -4.87740      -10.39870        4.55990
C         -4.76440       -9.09340        4.07100
C         -5.39450       -8.46710        2.91110
C         -6.35180       -9.04150        2.11670
C         -7.00360       -8.40950        1.03660
N         -7.59060       -7.96400        0.15540
C         -6.85320      -10.34920        2.28780
N         -7.30900      -11.40030        2.36320
C         -3.78260      -11.72180        6.68750
C         -4.84270      -12.02460        7.76780
C         -4.06140      -12.73270        8.85100
C         -3.28630      -11.83290        9.44310
C         -3.53130      -10.50130        8.77060
C         -5.01870      -10.64980        8.42570
C         -2.87170      -10.66040        7.38420
C         -4.55650       -4.95630        1.55770
C         -4.77230       -4.25860        0.37280
C         -4.22450       -2.98650        0.36610
S         -4.33600       -1.88290       -1.01310
C         -5.74890       -0.85580       -0.45250
C         -7.04100       -1.64400       -0.39720
C         -3.57620       -2.67290        1.55860
S         -3.64960       -3.98480        2.69130
C         -2.87940       -1.47510        1.85920
C         -2.30490       -1.11210        3.06080
F         -2.37680       -1.86550        4.16210
C         -1.63920        0.12360        3.02820
F         -1.01550        0.61050        4.11050
C         -1.66680        0.74230        1.79900
S         -2.56920       -0.23570        0.67720
C         -1.05940        1.97880        1.36420
C         -0.89930        2.19770       -0.00390
C         -0.28170        3.36250       -0.42040
N          0.02270        3.78110       -1.68830
C         -0.25720        3.06700       -2.90670
C         -1.63370        3.42400       -3.46430
C          0.65250        4.99730       -1.60410
C          0.76780        5.37730       -0.24090
C          0.16650        4.32960        0.51950
C         -0.02060        4.10790        1.88060
C         -0.62390        2.94320        2.29400
C          1.37830        6.58570        0.09030
C          1.88020        7.36980       -0.91880
C          1.80880        6.97260       -2.27320
C          1.14850        5.79350       -2.61950
C          2.41440        7.83150       -3.25450
C          2.99620        7.49490       -4.43550
C          3.39850        6.13490       -4.88880
O          3.06300        5.05510       -4.45020
C          4.36000        6.35210       -5.98520
C          5.07040        5.36670       -6.66810
C          5.90200        5.85350       -7.64670
C          6.02170        7.22220       -7.92710
C          5.32500        8.20370       -7.26430
C          4.47100        7.72870       -6.26350
C          3.58160        8.45350       -5.36510
C          3.28080        9.78670       -5.43800
C          3.85040       10.68290       -6.36730
N          4.28000       11.46550       -7.08890
C          2.32940       10.44810       -4.63100
N          1.55540       11.05370       -4.03720
C          7.03920        6.99070       -9.01570
C          8.52530        7.27900       -8.68850
C          8.67930        7.10020       -7.19850
C          8.56520        5.80590       -6.93190
C          8.33260        5.08580       -8.23730
C          9.15910        5.96960       -9.18510
C          6.90550        5.46680       -8.70360
H         -5.63100       -6.62080        0.91270
H         -2.56360       -7.64800        6.29110
H         -5.49140      -11.14580        4.08560
H         -3.32120      -12.61950        6.28060
H         -5.73560      -12.52360        7.40140
H         -4.11040      -13.79030        9.03200
H         -2.55850      -11.98890       10.21760
H         -3.22960       -9.61310        9.31920
H         -5.39780       -9.88130        7.75460
H         -5.64460      -10.69690        9.31520
H         -1.80130      -10.84880        7.44070
H         -5.30950       -4.67350       -0.46140
H         -5.48830       -0.43560        0.51860
H         -5.80300       -0.05430       -1.18740
H         -6.97550       -2.44250        0.33930
H         -7.25880       -2.08400       -1.36730
H         -7.86160       -0.98540       -0.12020
H         -1.24090        1.45430       -0.70840
H          0.52270        3.31280       -3.63180
H         -0.20430        1.99490       -2.69980
H         -1.81610        2.87720       -4.38520
H         -1.69310        4.48980       -3.67230
H         -2.41010        3.16800       -2.74680
H          0.30780        4.83960        2.60250
H         -0.77250        2.77050        3.34660
H          1.45280        6.89530        1.12140
H          2.36760        8.30370       -0.68110
H          1.01540        5.52860       -3.65330
H          2.46440        8.87470       -2.96220
H          4.94780        4.32400       -6.41990
H          5.43050        9.25220       -7.48790
H          6.75890        7.33450      -10.00930
H          8.90610        8.20870       -9.10240
H          8.79500        7.91380       -6.50660
H          8.56610        5.32220       -5.97270
H          8.53880        4.01870       -8.24010
H         10.22810        5.91680       -8.98470
H          8.97180        5.76920      -10.23910
H          6.53950        4.81460       -9.49410
