153

C          1.94640        1.62100        5.85890
C          3.25910        1.68370        6.22470
C          4.41620        1.48590        5.31260
O          4.44980        1.56780        4.10240
C          5.53590        1.08860        6.18500
C          6.80610        0.68950        5.77470
C          7.65420        0.37440        6.80850
C          7.26810        0.44270        8.15470
C          6.01750        0.83070        8.57350
C          5.14110        1.16180        7.53650
C          3.75730        1.61620        7.58610
C          3.07230        2.01890        8.70090
C          1.79320        2.61290        8.65890
N          0.77760        3.14740        8.68330
C          3.58580        1.96780       10.01290
N          3.94560        1.94470       11.10280
C          8.62010       -0.00840        8.64700
C          9.57190        1.06840        9.22440
C          9.18970        2.37350        8.57110
C          9.55540        2.31120        7.29770
C         10.19110        0.96240        7.06660
C         10.84910        0.73500        8.43680
C          9.05040       -0.08230        7.14790
C          1.46700        1.72700        4.52990
C          1.97640        2.46840        3.48830
C          1.28730        2.28230        2.28900
S          1.85440        2.94750        0.75490
C          3.39140        1.95650        0.62240
C          3.08700        0.51250        0.27620
C          0.22170        1.40540        2.39020
S          0.05580        0.82630        4.01510
C         -0.60530        0.98620        1.30320
C         -1.17520        1.81180        0.34020
N         -1.30270        3.17350        0.48250
C         -1.32380        4.02620       -0.62410
C         -0.58560        3.73620       -1.76750
C         -0.64140        4.56520       -2.87110
C         -1.43070        5.70620       -2.84420
S         -1.58770        6.83540       -4.19150
C         -0.76980        5.98330       -5.57010
C         -2.14500        6.01740       -1.68780
C         -2.09630        5.18800       -0.59140
C         -1.38100        3.69670        1.78980
C         -0.56860        4.75200        2.18820
C         -0.55810        5.16210        3.50770
C         -1.36330        4.52470        4.44370
S         -1.34900        4.90630        6.16600
C          0.32640        5.55800        6.41460
C         -2.23840        3.52380        4.02700
C         -2.24720        3.11340        2.71360
C         -1.70640        1.03890       -0.72260
S         -2.51080        1.41470       -2.20590
C         -2.59110       -0.29830       -2.62000
C         -2.10650       -1.11260       -1.59530
N         -2.17270       -2.48850       -1.56100
C         -1.13150       -3.19390       -0.94040
C         -1.39910       -4.29130       -0.12860
C         -0.37330       -4.96170        0.50790
C          0.94000       -4.53860        0.34800
S          2.32850       -5.29470        1.12840
C          1.60540       -6.63980        2.10930
C          1.21280       -3.44790       -0.47660
C          0.19140       -2.78630       -1.11830
C         -3.28570       -3.16690       -2.07210
C         -3.13100       -4.40360       -2.70260
C         -4.21590       -5.02990       -3.27100
C         -5.47880       -4.44070       -3.22900
S         -6.77790       -5.29700       -4.06100
C         -8.28150       -4.41570       -3.55040
C         -5.64290       -3.22740       -2.57320
C         -4.55650       -2.60290       -1.99430
C         -1.58050       -0.33020       -0.53980
S         -0.83110       -0.72160        0.96790
C         -3.00970       -0.67270       -3.91800
C         -3.82520        0.05720       -4.76800
C         -4.05630       -0.57870       -5.97730
S         -5.14570        0.14300       -7.15080
C         -6.38640       -1.17160       -7.49020
C         -6.75880       -1.96860       -6.25830
C         -3.34530       -1.78970       -6.13020
S         -2.47030       -2.14870       -4.65650
C         -3.27790       -2.51610       -7.31470
C         -2.58000       -3.67140       -7.61440
C         -1.75030       -4.43400       -6.68600
O         -1.58370       -4.25140       -5.49130
C         -1.12480       -5.51000       -7.48280
C         -0.23290       -6.47730       -7.07210
C          0.24020       -7.38180       -8.01650
Cl         1.35700       -8.60090       -7.54490
C         -0.19260       -7.29140       -9.34030
Br         0.45770       -8.51660      -10.62670
C         -1.09610       -6.31720       -9.75120
C         -1.56860       -5.41700       -8.81200
C         -2.51200       -4.30140       -8.91310
C         -3.21450       -3.97890      -10.04880
C         -4.20180       -2.98080      -10.14470
N         -5.04390       -2.21160      -10.29020
C         -3.07140       -4.64500      -11.28330
N         -2.99750       -5.13920      -12.31690
H          1.20320        1.40450        6.61790
H          7.06270        0.64620        4.72780
H          5.72790        0.86900        9.61070
H          8.63320       -0.92850        9.22780
H          9.63890        1.07630       10.30880
H          8.65840        3.16080        9.07290
H          9.39050        3.03620        6.52220
H         10.82260        0.87340        6.18660
H         11.19770       -0.28580        8.58680
H         11.66030        1.43370        8.63520
H          9.34540       -1.05080        6.74880
H          2.80760        3.14050        3.58760
H          3.92090        2.03570        1.57080
H          3.96730        2.44240       -0.16420
H          2.51170        0.03890        1.06990
H          2.51680        0.45040       -0.64880
H          4.01650       -0.03920        0.15240
H          0.05770        2.87020       -1.78290
H         -0.05520        4.31300       -3.73970
H          0.29890        5.91430       -5.38860
H         -0.95390        6.59930       -6.44480
H         -1.21280        5.00160       -5.70880
H         -2.74630        6.91320       -1.66830
H         -2.66210        5.42740        0.29650
H          0.07520        5.22750        1.46410
H          0.09230        5.97040        3.80170
H          1.03180        4.94800        5.85800
H          0.38200        6.60030        6.11330
H          0.51840        5.46390        7.47890
H         -2.89090        3.06190        4.75110
H         -2.90560        2.31700        2.39910
H         -2.41970       -4.61500        0.01180
H         -0.61550       -5.80470        1.13420
H          1.11090       -7.35280        1.45630
H          0.91910       -6.23400        2.84690
H          2.44200       -7.11800        2.60920
H          2.23620       -3.13210       -0.60800
H          0.40890       -1.95230       -1.76860
H         -2.15030       -4.84470       -2.77780
H         -4.09380       -5.97440       -3.77790
H         -8.34920       -4.40340       -2.46680
H         -8.28670       -3.41000       -3.95990
H         -9.10710       -4.98530       -3.96530
H         -6.60970       -2.75510       -2.50790
H         -4.69560       -1.65930       -1.48770
H         -4.27440        0.99670       -4.49840
H         -6.02940       -1.80560       -8.30020
H         -7.23790       -0.59700       -7.85490
H         -5.92280       -2.57130       -5.90700
H         -7.07120       -1.30430       -5.45390
H         -7.58110       -2.63810       -6.50380
H         -3.82120       -2.06020       -8.13270
H          0.09100       -6.52760       -6.04470
H         -1.40080       -6.28540      -10.78460
