164

C          5.51270       -5.08700       -0.03770
C          5.80610       -5.30090       -1.36060
C          4.97090       -4.87440       -2.48640
O          3.88700       -4.31450       -2.43250
C          5.66500       -5.30670       -3.70710
C          5.25200       -5.10690       -5.02190
C          6.10390       -5.63620       -5.96090
C          7.27940       -6.31620       -5.61630
C          7.70170       -6.51270       -4.32250
C          6.85000       -5.98180       -3.35080
C          6.96510       -5.98480       -1.89310
C          8.02000       -6.49900       -1.18210
C          8.16840       -6.44000        0.21780
N          8.37940       -6.41480        1.34770
C          9.13770       -7.13950       -1.75490
N         10.07650       -7.67720       -2.14070
C          7.63210       -6.59820       -7.05520
C          7.36690       -8.02530       -7.59560
C          6.23960       -8.59520       -6.77100
C          5.12980       -7.94720       -7.09900
C          5.48710       -6.92660       -8.15130
C          6.60860       -7.67740       -8.88660
C          6.32490       -5.83580       -7.43940
C          4.53730       -4.25320        0.52540
C          4.45820       -3.99930        1.89420
C          3.59410       -2.97150        2.22710
S          3.35050       -2.42320        3.89520
C          1.94190       -3.49250        4.37520
C          2.33800       -4.94970        4.48940
C          3.01970       -2.36130        1.10780
S          3.42080       -3.22860       -0.34320
C          2.23160       -1.18760        1.08480
C          2.06110       -0.24450        0.06130
N          2.76900       -0.15260       -1.11690
C          2.13750        0.44210       -2.22750
C          2.80140        1.41220       -2.96990
C          2.18450        2.01670       -4.04710
C          0.88860        1.65820       -4.39590
S         -0.00710        2.36870       -5.73750
C          1.08570        3.68350       -6.34850
C          0.22830        0.67190       -3.66430
C          0.84510        0.06740       -2.59240
C          4.08380       -0.60390       -1.25890
C          4.49470       -1.16270       -2.47260
C          5.73440       -1.74690       -2.58330
C          6.59040       -1.80010       -1.48520
S          8.07990       -2.72440       -1.69240
C          8.69850       -2.91850        0.00240
C          6.22810       -1.15900       -0.30720
C          4.99100       -0.55490       -0.20160
C          1.07240        0.70480        0.41830
S          0.41630        2.11310       -0.35580
C         -0.65120        2.38440        1.00900
C         -0.40220        1.50610        2.06950
N         -0.86690        1.64540        3.35520
C         -0.99050        0.50540        4.15950
C         -1.51210       -0.67160        3.62940
C         -1.57400       -1.82010        4.39340
C         -1.11610       -1.80520        5.70410
S         -1.08930       -3.21710        6.76120
C         -1.75150       -4.55490        5.72820
C         -0.63290       -0.61600        6.25040
C         -0.57180        0.52890        5.48990
C         -1.22110        2.90650        3.85170
C         -0.49800        4.04020        3.48550
C         -0.95400        5.30100        3.80650
C         -2.14300        5.45340        4.51310
S         -2.89360        7.01070        4.83530
C         -2.01300        8.14080        3.72340
C         -2.79630        4.31780        4.99160
C         -2.33950        3.05880        4.67160
C          0.54440        0.52900        1.68840
S          1.28010       -0.79240        2.51490
C         -1.62790        3.41510        0.94600
C         -2.90720        3.29770        1.52750
C         -3.86390        4.38360        1.53730
N         -4.97920        4.04470        2.18430
S         -4.87950        2.51440        2.63900
N         -3.40010        2.19850        2.10630
C         -3.59020        5.64060        0.95930
C         -2.30430        5.76000        0.39100
N         -1.80470        6.85540       -0.18500
S         -0.33230        6.53180       -0.74410
N         -0.23850        4.99490       -0.28850
C         -1.37180        4.65470        0.32710
C         -4.50120        6.73120        0.95930
C         -5.85710        6.61620        0.85250
C         -6.55610        5.43550        0.28650
O         -6.06660        4.41960       -0.16130
C         -7.98170        5.81100        0.21990
C         -9.03030        5.01680       -0.23870
C        -10.25700        5.63470       -0.20480
C        -10.42760        6.95270        0.23920
C         -9.40030        7.75180        0.68090
C         -8.14330        7.13830        0.66330
C         -6.83700        7.66050        1.05730
C         -6.60140        8.90200        1.59240
C         -5.35100        9.37090        2.04000
N         -4.38220        9.83750        2.44540
C         -7.58670        9.89210        1.78370
N         -8.33310       10.74740        1.95870
C        -11.91780        6.92350        0.00460
C        -12.80850        6.75140        1.25330
C        -14.13090        6.28120        0.69210
C        -13.97000        5.03300        0.27170
C        -12.53590        4.63860        0.54180
C        -12.28240        5.43090        1.83080
C        -11.72740        5.45360       -0.48990
H          6.14870       -5.56290        0.69930
H          4.33720       -4.57830       -5.24110
H          8.61040       -7.03590       -4.07670
H          8.58050       -6.19330       -7.40250
H          8.25480       -8.64500       -7.68740
H          6.37120       -9.34820       -6.01620
H          4.14910       -8.05020       -6.67270
H          4.66360       -6.54540       -8.74970
H          6.24900       -8.55920       -9.41480
H          7.17830       -7.04710       -9.56810
H          6.42020       -4.93010       -8.03530
H          5.05870       -4.52160        2.61830
H          1.15050       -3.33870        3.64130
H          1.62290       -3.08950        5.33540
H          2.63950       -5.34500        3.52100
H          1.49700       -5.53530        4.85610
H          3.16600       -5.06190        5.18510
H          3.80610        1.69740       -2.69480
H          2.72320        2.76950       -4.59900
H          0.53050        4.17990       -7.13840
H          1.29880        4.38700       -5.54900
H          1.99760        3.25530       -6.75440
H         -0.77250        0.38830       -3.95080
H          0.33430       -0.70040       -2.03120
H          3.81270       -1.18410       -3.30780
H          6.03890       -2.20980       -3.50970
H          9.52570       -3.61900       -0.06070
H          9.05550       -1.96650        0.38400
H          7.91440       -3.32880        0.63260
H          6.89380       -1.13220        0.54020
H          4.71390       -0.07420        0.72470
H         -1.87760       -0.67680        2.61370
H         -1.98200       -2.71590        3.95430
H         -2.77980       -4.33910        5.45350
H         -1.71660       -5.44530        6.34820
H         -1.12680       -4.69080        4.85040
H         -0.29280       -0.61000        7.27450
H         -0.18290        1.44350        5.91110
H          0.41670        3.93340        2.92110
H         -0.37890        6.15920        3.49820
H         -1.95610        7.70180        2.73190
H         -1.02570        8.36430        4.11770
H         -2.61580        9.04330        3.68330
H         -3.68860        4.44010        5.58590
H         -2.87480        2.18320        5.00760
H         -4.04970        7.71510        0.99690
H         -8.85210        4.00910       -0.58020
H         -9.54670        8.76810        1.00620
H        -12.30350        7.66270       -0.69490
H        -12.83550        7.61270        1.91500
H        -15.00300        6.90310        0.60970
H        -14.68060        4.40420       -0.23210
H        -12.31550        3.57450        0.55570
H        -11.23750        5.46390        2.13310
H        -12.89070        5.07340        2.66010
H        -11.98590        5.21280       -1.51950
