170

C          2.47000        7.33240        8.51950
C          3.54000        7.32170        9.35120
C          3.33530        7.47000       10.82160
O          2.36230        7.92550       11.37540
C          4.53840        6.87510       11.43440
C          4.75970        6.62930       12.78810
C          5.96370        6.02510       13.05810
C          6.88670        5.68590       12.05840
C          6.68990        5.93420       10.72090
C          5.47080        6.54850       10.42550
C          4.93610        6.99190        9.14250
C          5.66960        7.30430        8.03040
C          7.03910        7.01330        7.87670
N          8.14570        6.77260        7.68770
C          5.14120        8.04420        6.94950
N          4.77210        8.70330        6.08560
C          7.85620        5.08750       13.04600
C          7.91630        3.54320       13.15210
C          6.56200        3.02980       12.73000
C          5.69240        3.35480       13.67730
C          6.44300        4.09450       14.75690
C          7.80320        3.38330       14.67660
C          6.83130        5.47000       14.15990
C          2.33800        6.79500        7.21110
C          1.25830        6.97760        6.38710
C          1.32920        6.24990        5.17920
C          0.36540        6.17480        4.15630
C         -0.91660        6.84810        4.27190
S         -1.49990        7.90680        3.02390
C         -2.96500        8.23560        3.88150
C         -4.01800        9.11020        3.29710
C         -4.88310        8.32950        2.30450
C         -2.99380        7.54540        5.05730
Cl        -4.29640        7.60530        6.17340
C         -1.83090        6.76320        5.28580
Cl        -1.65300        5.75250        6.66290
C          0.68140        5.39280        3.05540
C          1.90940        4.69270        2.93020
C          2.87180        4.74670        3.96100
C          4.14430        4.05860        3.88800
C          5.35450        4.50350        4.34600
C          6.40420        3.58820        4.14120
C          6.00910        2.43520        3.53520
C          6.83610        1.25440        3.15680
C          6.32930       -0.03240        3.80760
S          4.30890        2.46720        3.19800
C          2.53640        5.51430        5.07090
S          3.49520        5.67650        6.51290
C          1.96940        3.97250        1.71910
C          0.82780        4.05290        0.96980
S         -0.37320        5.08890        1.70740
C          0.58060        3.31050       -0.23260
C          1.57160        2.46680       -0.79510
N          2.85250        2.27830       -0.44910
N          3.28990        1.38290       -1.28620
C          4.62770        0.87040       -1.20760
C          4.72010       -0.18700       -0.11160
N          2.43700        0.93880       -2.16320
C          1.30410        1.60530       -1.89950
C          0.02430        1.52470       -2.50450
C         -0.90470        2.40790       -1.97480
C         -0.63760        3.26450       -0.89480
F         -1.65370        4.03870       -0.47450
F         -2.15020        2.44540       -2.47960
C         -0.26500        0.53630       -3.50390
C          0.64760       -0.33080       -4.03810
C          0.07570       -1.30590       -4.88090
C          0.74020       -2.34660       -5.56020
C          2.18030       -2.51180       -5.46750
S          2.99220       -2.55600       -3.92840
C          4.54350       -2.77870       -4.66110
C          5.77300       -2.94640       -3.83750
C          6.01630       -4.42210       -3.51240
C          4.42220       -2.82770       -6.01740
Cl         5.74800       -3.03410       -7.08600
C          3.08670       -2.67520       -6.47930
Cl         2.69400       -2.61540       -8.14660
C         -0.05590       -3.22740       -6.27900
C         -1.46540       -3.08230       -6.37280
C         -2.11980       -1.98080       -5.77620
C         -3.53020       -1.76470       -5.99540
C         -4.22220       -1.94460       -7.16480
C         -5.58960       -1.63590       -7.05600
C         -5.95240       -1.22670       -5.80750
C         -7.29110       -0.78280       -5.33030
C         -7.34540        0.74070       -5.19290
S         -4.59010       -1.19480       -4.73810
C         -1.32750       -1.14070       -5.00260
S         -1.88640        0.22310       -4.07810
C         -2.06250       -4.17640       -7.02750
C         -1.16980       -5.12470       -7.46240
S          0.47950       -4.68440       -7.05720
C         -1.41420       -6.38980       -8.05130
C         -2.56530       -6.89000       -8.57400
C         -2.72700       -8.36890       -8.67870
O         -1.84800       -9.19770       -8.62920
C         -4.18170       -8.59190       -8.78430
C         -4.85200       -9.81260       -8.75450
C         -6.21940       -9.70320       -8.83830
C         -6.87900       -8.47000       -8.93750
C         -6.23190       -7.25790       -8.97210
C         -4.84000       -7.34860       -8.89560
C         -3.83270       -6.29240       -8.93510
C         -4.01450       -5.03720       -9.45380
C         -5.26180       -4.49830       -9.82460
N         -6.25170       -3.98830      -10.10490
C         -2.94470       -4.16010       -9.72750
N         -2.10560       -3.42550       -9.99870
C         -8.24240       -9.11260       -8.97850
C         -8.95140       -9.20780      -10.35200
C         -7.86240       -9.22910      -11.39600
C         -7.23840      -10.39610      -11.30620
C         -7.89380      -11.18470      -10.19940
C         -9.34370      -10.69390      -10.33890
C         -7.50770      -10.48610       -8.87210
H          1.54950        7.71340        8.95170
H          4.02530        6.90390       13.52900
H          7.40100        5.66810        9.95570
H          8.84330        5.54410       13.08140
H          8.77500        3.09080       12.66320
H          6.37030        2.54850       11.78890
H          4.62950        3.19900       13.68550
H          5.96040        4.14410       15.72940
H          7.75230        2.34110       14.98810
H          8.59280        3.89360       15.22640
H          7.14830        6.17920       14.92180
H          0.44870        7.63950        6.63490
H         -4.64210        9.49600        4.10510
H         -3.54800        9.95150        2.78470
H         -5.36860        7.49450        2.80320
H         -5.64790        8.97820        1.88620
H         -4.27070        7.94120        1.49440
H          5.50210        5.47800        4.77550
H          7.42030        3.78500        4.43320
H          6.82330        1.13410        2.06930
H          7.86710        1.44350        3.46240
H          6.95540       -0.87330        3.52000
H          6.34820        0.05990        4.89080
H          5.30690       -0.23730        3.49760
H          2.81170        3.39400        1.39380
H          4.86760        0.44420       -2.18310
H          5.29400        1.70680       -0.98600
H          4.05080       -1.01550       -0.33120
H          4.44270        0.24730        0.84610
H          5.73640       -0.56510       -0.04710
H          1.69240       -0.26740       -3.80510
H          6.62500       -2.55210       -4.39490
H          5.66660       -2.38240       -2.90930
H          6.13210       -4.99390       -4.42910
H          5.17720       -4.82830       -2.95300
H          6.91940       -4.53050       -2.91770
H         -3.74800       -2.22870       -8.08710
H         -6.27910       -1.72040       -7.87720
H         -7.50670       -1.23720       -4.36030
H         -8.04750       -1.11610       -6.04380
H         -7.14890        1.21320       -6.15250
H         -6.59800        1.08160       -4.48020
H         -8.32700        1.05240       -4.84530
H         -3.12810       -4.29940       -7.08990
H         -0.59520       -7.10020       -7.99210
H         -4.30960      -10.74130       -8.67210
H         -6.74680       -6.31320       -9.03820
H         -8.92440       -8.83540       -8.17700
H         -9.74520       -8.48080      -10.50130
H         -7.62850       -8.39680      -12.03360
H         -6.37850      -10.73410      -11.85410
H         -7.72520      -12.25830      -10.20960
H         -9.80890      -11.01470      -11.26960
H         -9.97770      -10.96820       -9.49680
H         -7.71090      -11.10730       -8.00180
