137

C         -0.16510       -4.76880       -2.92630
C          1.07050       -4.80050       -3.50900
C          2.23750       -4.01980       -3.08300
O          2.29440       -3.22010       -2.16340
C          3.34490       -4.41880       -3.96650
C          4.66120       -3.96530       -3.92340
C          5.48080       -4.53360       -4.86890
C          5.02730       -5.49180       -5.78530
C          3.73190       -5.94920       -5.83810
C          2.87830       -5.37560       -4.89220
C          1.45490       -5.60140       -4.65430
C          0.62930       -6.37040       -5.43210
C         -0.75630       -6.54460       -5.24030
N         -1.88700       -6.73990       -5.16990
C          1.04300       -7.08030       -6.57900
N          1.29890       -7.68540       -7.52040
C          6.38090       -5.62730       -6.43550
C          6.59520       -4.93140       -7.80240
C          5.63460       -3.76890       -7.84630
C          6.06210       -2.85810       -6.98220
C          7.31940       -3.38820       -6.33820
C          7.90830       -4.18740       -7.51170
C          6.88530       -4.55620       -5.41780
C         -0.67730       -3.89960       -1.94870
C         -2.02170       -3.91010       -1.59640
C         -2.39570       -2.83520       -0.80440
S         -4.03660       -2.59720       -0.17650
C         -3.91620       -3.69270        1.28810
C         -2.98020       -3.13850        2.34280
C         -1.33920       -1.98260       -0.51990
S          0.15150       -2.56480       -1.18430
C         -1.45780       -0.70220        0.10410
C         -2.35070        0.29390       -0.27130
N         -3.17500        0.24120       -1.37660
C         -2.77440       -0.47070       -2.51840
C         -1.45370       -0.39950       -2.96380
C         -1.02890       -1.18660       -4.01020
C         -1.91290       -2.05880       -4.64140
S         -1.22100       -3.10090       -5.89010
C         -2.66040       -3.91240       -6.63800
C         -3.24380       -2.08270       -4.24720
C         -3.67060       -1.28930       -3.19900
C         -4.40790        0.90500       -1.34300
C         -4.88770        1.55810       -2.47370
C         -6.07550        2.26160       -2.42880
C         -6.79900        2.33060       -1.24560
S         -8.30320        3.23240       -1.05100
C         -8.54460        4.03900       -2.65990
C         -6.33740        1.65150       -0.12000
C         -5.16030        0.94060       -0.16840
C         -2.22210        1.42300        0.57500
S         -3.06350        2.92850        0.69690
C         -2.01840        3.41680        2.01530
C         -1.12740        2.41310        2.40540
N         -0.36420        2.42070        3.55290
C         -0.79320        3.10530        4.69660
C          0.12350        3.77970        5.50000
C         -0.30530        4.57310        6.54570
C         -1.66310        4.70640        6.80930
S         -2.30900        5.76410        8.06200
C         -0.99400        7.00600        8.25180
C         -2.57940        3.96210        6.06610
C         -2.14940        3.16530        5.02980
C          0.85480        1.73080        3.55320
C          1.66620        1.74980        2.42130
C          2.83890        1.02320        2.38350
C          3.22430        0.27050        3.48530
S          4.68620       -0.71260        3.53540
C          5.16390       -0.85110        1.78880
C          2.43680        0.28570        4.63630
C          1.26300        1.00320        4.67160
C         -1.23510        1.29630        1.54150
S         -0.41100       -0.22220        1.42550
C         -2.21070        4.69400        2.60970
C         -1.17060        5.47600        3.15410
C         -1.42910        6.62700        3.99330
N         -0.29700        7.19900        4.40700
S          0.95240        6.41320        3.76460
N          0.13670        5.28270        2.97040
C         -2.73630        7.01150        4.35960
C         -3.76070        6.35990        3.64360
N         -5.05640        6.67250        3.65800
S         -5.85950        5.66440        2.70380
N         -4.61760        4.78100        2.20110
C         -3.49770        5.24710        2.75620
C         -2.94700        7.95480        5.40100
C         -4.01840        7.97500        6.24510
C         -4.09020        8.94170        7.27000
N         -4.12310        9.72720        8.10560
C         -5.03250        6.99500        6.28220
N         -5.82650        6.17620        6.41020
H         -0.90610       -5.46440       -3.30000
H          4.97120       -3.23120       -3.19610
H          3.40090       -6.69090       -6.54560
H          6.83060       -6.61750       -6.39870
H          6.57720       -5.60160       -8.65750
H          4.73940       -3.75390       -8.43990
H          5.59490       -1.92980       -6.71010
H          7.96190       -2.65260       -5.86130
H          8.72550       -4.84630       -7.22140
H          8.22380       -3.55180       -8.33760
H          7.66720       -4.84560       -4.71820
H         -2.71070       -4.66000       -1.94280
H         -4.93780       -3.75810        1.65990
H         -3.59520       -4.67380        0.93830
H         -2.98120       -3.78870        3.21530
H         -3.29800       -2.14420        2.64880
H         -1.96190       -3.07380        1.96320
H         -0.75720        0.26220       -2.47070
H         -0.00170       -1.14850       -4.33960
H         -2.27840       -4.44400       -7.50440
H         -3.09230       -4.62360       -5.93930
H         -3.38080       -3.16290       -6.95120
H         -3.95390       -2.73540       -4.72820
H         -4.69890       -1.33270       -2.87400
H         -4.31940        1.52250       -3.39150
H         -6.41670        2.76050       -3.32150
H         -7.69540        4.67750       -2.88490
H         -8.69500        3.29200       -3.43400
H         -9.44080        4.64200       -2.55240
H         -6.91560        1.68980        0.78990
H         -4.81910        0.39720        0.69870
H          1.17830        3.70720        5.27830
H          0.42560        5.09830        7.13950
H         -0.18890        6.61510        8.86720
H         -0.63340        7.29920        7.27000
H         -1.45840        7.85260        8.74910
H         -3.62960        4.03270        6.30560
H         -2.86790        2.60030        4.45520
H          1.37620        2.34970        1.57180
H          3.44440        1.05650        1.49260
H          4.31240       -1.18560        1.20360
H          5.95110       -1.59820        1.75990
H          5.54770        0.09800        1.42570
H          2.75070       -0.28890        5.49400
H          0.64440        0.99100        5.55650
H         -2.13900        8.65310        5.58240
