222

C          9.91880       -0.86030       -6.60500
C          9.97430       -1.51160       -7.80210
C          8.80640       -2.02730       -8.56390
O          7.63910       -2.05130       -8.22950
C          9.33060       -2.41540       -9.88360
C          8.59490       -2.94490      -10.94200
C          9.34620       -3.23580      -12.05410
C         10.72720       -3.00150      -12.11640
C         11.46190       -2.46690      -11.08510
C         10.71840       -2.17630       -9.93700
C         11.14570       -1.63030       -8.65270
C         12.43870       -1.35790       -8.29050
C         12.85110       -0.91350       -7.01590
N         13.27340       -0.56840       -6.00540
C         13.55530       -1.50970       -9.13940
N         14.50730       -1.60350       -9.77420
C         10.83540       -3.54420      -13.51920
C         11.41990       -4.96820      -13.69280
C         11.13940       -5.70630      -12.40730
C          9.83350       -5.93000      -12.34530
C          9.20740       -5.34760      -13.58860
C         10.34130       -5.58330      -14.59890
C          9.29800       -3.80760      -13.44800
C          8.82740       -0.87260       -5.70100
C          7.88650       -1.84730       -5.49910
C          6.93810       -1.52810       -4.50740
C          5.83370       -2.30850       -4.10580
C          5.49750       -3.52070       -4.82770
S          5.39250       -3.47700       -6.56280
C          4.97630       -5.15040       -6.65440
C          4.78090       -5.80560       -7.97770
C          6.04600       -5.70120       -8.83070
C          4.91630       -5.69680       -5.40570
Cl         4.54010       -7.34280       -5.09150
C          5.20120       -4.77380       -4.36520
Cl         5.26030       -5.23540       -2.71550
C          5.05210       -1.79620       -3.08340
C          5.29340       -0.52780       -2.49180
C          6.36350        0.28200       -2.92740
C          6.55520        1.64120       -2.46310
C          6.96250        2.71710       -3.20650
C          7.00970        3.92010       -2.47870
C          6.65790        3.77750       -1.17140
C          6.51620        4.82980       -0.12750
C          5.05490        5.26880       -0.00040
S          6.24990        2.13300       -0.81970
C          7.18170       -0.26340       -3.91410
S          8.60120        0.47980       -4.60200
C          4.26910       -0.18880       -1.58080
C          3.27740       -1.12050       -1.48580
S          3.59370       -2.52550       -2.47330
C          2.05500       -0.92320       -0.77360
C          1.37260        0.28490       -0.71150
N          1.67730        1.39760       -1.48480
C          1.60890        2.67370       -0.92590
C          1.29920        3.77930       -1.71420
C          1.23500        5.04380       -1.16330
C          1.46060        5.22400        0.19420
S          1.43120        6.79380        1.00440
C          0.78330        7.92670       -0.25810
C          1.76000        4.12120        0.99030
C          1.84440        2.86310        0.43750
C          2.10690        1.18290       -2.80550
C          1.52040        0.16400       -3.55900
C          2.04300       -0.18980       -4.77970
C          3.15310        0.47860       -5.29490
S          3.79340       -0.14420       -6.81710
C          5.45570        0.57170       -6.92930
C          3.67390        1.56050       -4.59870
C          3.16200        1.90210       -3.35990
C          0.26280        0.18540        0.15850
S         -0.94730        1.28780        0.70050
C         -1.70820        0.02280        1.67350
C         -1.06990       -1.20390        1.52300
N         -1.41380       -2.41600        2.09810
C         -2.70700       -2.93590        2.05850
C         -3.08270       -3.92140        2.97450
C         -4.35250       -4.44780        2.94780
C         -5.28760       -3.99340        2.02130
S         -6.89600       -4.72300        2.06760
C         -7.94090       -3.43850        1.32260
C         -4.91900       -3.02050        1.10380
C         -3.63990       -2.50090        1.11920
C         -0.33620       -3.24470        2.47340
C          0.68940       -2.71890        3.25860
C          1.78210       -3.49190        3.57960
C          1.87280       -4.80740        3.12770
S          3.32500       -5.69810        3.58330
C          3.25040       -7.19900        2.56470
C          0.84080       -5.34130        2.36660
C         -0.25200       -4.56330        2.03910
C          0.07060       -1.07990        0.68670
S          1.26810       -2.19900        0.12810
C         -2.77040        0.44550        2.51820
C         -3.16400        1.75160        2.66800
C         -4.17420        1.94120        3.63020
C         -4.75670        3.15500        4.04470
C         -4.32670        4.42590        3.48610
S         -2.64800        4.88900        3.48200
C         -2.98650        6.41110        2.73190
C         -1.90150        7.39230        2.46230
C         -1.56470        8.20170        3.71620
C         -4.32420        6.53960        2.50870
Cl        -5.04290        7.91340        1.77250
C         -5.08700        5.41720        2.93080
Cl        -6.77880        5.31010        2.67560
C         -5.73450        3.07550        5.02560
C         -6.17400        1.84230        5.58170
C         -5.59570        0.62280        5.15880
C         -6.03140       -0.64330        5.70650
C         -6.33390       -0.96390        7.00120
C         -6.75710       -2.29730        7.15560
C         -6.79010       -2.99980        5.98890
C         -7.26400       -4.39330        5.76470
C         -8.74040       -4.40840        5.36170
S         -6.27180       -2.01850        4.66050
C         -4.59760        0.71490        4.19990
S         -3.67350       -0.62430        3.56810
C         -7.18450        2.02550        6.54340
C         -7.48660        3.34220        6.79050
S         -6.54850        4.42060        5.75860
C         -8.42560        3.93720        7.66260
C         -9.05600        3.41030        8.75440
C         -8.72620        2.15750        9.47590
O         -7.97940        1.26030        9.14060
C         -9.45950        2.22610       10.75310
C         -9.40970        1.29490       11.78820
C        -10.19940        1.61360       12.86590
C        -10.97430        2.78050       12.91650
C        -11.02900        3.70910       11.90480
C        -10.24080        3.39720       10.79300
C        -10.05540        4.11810        9.53780
C        -10.76920        5.21830        9.14060
C        -11.74980        5.85830        9.92710
N        -12.55520        6.43170       10.51120
C        -10.67410        5.84620        7.87970
N        -10.68520        6.40280        6.87530
C        -11.51730        2.45570       14.28530
C        -12.96320        1.90760       14.37300
C        -13.24460        1.22780       13.05600
C        -12.51390        0.12200       13.00690
C        -11.72470        0.03440       14.28990
C        -12.72180        0.67970       15.26540
C        -10.65640        1.15450       14.22780
H         10.76040       -0.24750       -6.30610
H          7.53140       -3.10310      -10.85340
H         12.52120       -2.28470      -11.15330
H         11.20050       -2.85040      -14.27350
H         12.44670       -4.99400      -14.04680
H         11.88860       -5.93200      -11.67130
H          9.27290       -6.37890      -11.54620
H          8.21980       -5.71970      -13.84830
H         10.51320       -6.63950      -14.80000
H         10.20510       -5.04740      -15.53710
H          8.65720       -3.28750      -14.15720
H          7.90460       -2.78550       -6.01810
H          4.51860       -6.85240       -7.81630
H          3.95440       -5.31970       -8.50270
H          6.32150       -4.65710       -8.96130
H          6.87200       -6.21840       -8.34770
H          5.87910       -6.14810       -9.80740
H          7.18800        2.66280       -4.25610
H          7.29730        4.86170       -2.91180
H          7.13570        5.68660       -0.40020
H          6.86070        4.44700        0.83540
H          4.42890        4.42640        0.28600
H          4.95450        6.04470        0.75370
H          4.69140        5.65720       -0.94960
H          4.24890        0.71660       -1.00560
H          1.10530        3.64430       -2.76770
H          1.00100        5.87750       -1.80530
H          0.65360        8.88050        0.24350
H         -0.17480        7.56580       -0.62010
H          1.49840        8.03310       -1.06860
H          1.93860        4.26660        2.04450
H          2.10470        2.01980        1.05950
H          0.67190       -0.37240       -3.16120
H          1.61140       -1.00090       -5.34530
H          5.40970        1.56760       -7.36170
H          5.89850        0.59380       -5.94010
H          6.02300       -0.09630       -7.57170
H          4.49750        2.13160       -4.99660
H          3.60530        2.71810       -2.80810
H         -2.37390       -4.25910        3.71480
H         -4.63630       -5.21190        3.65490
H         -7.70130       -2.48110        1.77550
H         -7.80330       -3.41240        0.24550
H         -8.96500       -3.71710        1.55110
H         -5.61700       -2.66450        0.36300
H         -3.36190       -1.75230        0.39210
H          0.62340       -1.69770        3.60430
H          2.58140       -3.08710        4.18100
H          2.43110       -7.83440        2.88850
H          4.19520       -7.70880        2.72660
H          3.15190       -6.92540        1.51850
H          0.87950       -6.35780        2.01070
H         -1.04220       -4.97700        1.43040
H         -2.72390        2.55310        2.10310
H         -1.00730        6.86120        2.13210
H         -2.23030        8.06610        1.66880
H         -0.76130        8.90120        3.50170
H         -2.43490        8.75900        4.05380
H         -1.24330        7.53850        4.51540
H         -6.23060       -0.27900        7.82320
H         -7.03100       -2.72220        8.10490
H         -6.68000       -4.86100        4.97090
H         -7.12940       -4.96730        6.68400
H         -9.07340       -5.42980        5.19820
H         -8.88010       -3.84760        4.44100
H         -9.35290       -3.95780        6.13940
H         -7.69390        1.21530        7.02640
H         -8.62890        4.97760        7.43560
H         -8.79400        0.41240       11.70950
H        -11.62350        4.60530       11.96320
H        -11.29880        3.17780       15.06950
H        -13.70100        2.63250       14.70590
H        -13.88210        1.63810       12.29490
H        -12.41870       -0.57640       12.19620
H        -11.33530       -0.94690       14.54820
H        -12.28550        0.92520       16.23280
H        -13.61930        0.07990       15.40820
H         -9.87620        1.02550       14.97560
