
  xtb     02052200543D
 energy: -255.499028967901 gnorm: 0.000449938557 xtb: 6.4.1 (unknown)
155172  0     0  0            999 V2000
   -7.4186    5.0958   -0.3738 C   0  0  0  0  0  0  0  0  0  0  0  0
   -7.8222    5.2158   -1.6788 C   0  0  0  0  0  0  0  0  0  0  0  0
   -7.1405    4.6416   -2.8445 C   0  0  0  0  0  0  0  0  0  0  0  0
   -6.0874    4.0270   -2.8640 O   0  0  0  0  0  0  0  0  0  0  0  0
   -7.9833    4.9497   -4.0115 C   0  0  0  0  0  0  0  0  0  0  0  0
   -7.7539    4.5709   -5.3324 C   0  0  0  0  0  0  0  0  0  0  0  0
   -8.7287    4.9850   -6.2081 C   0  0  0  0  0  0  0  0  0  0  0  0
   -9.8501    5.7185   -5.7991 C   0  0  0  0  0  0  0  0  0  0  0  0
  -10.0867    6.0992   -4.4992 C   0  0  0  0  0  0  0  0  0  0  0  0
   -9.1046    5.6925   -3.5909 C   0  0  0  0  0  0  0  0  0  0  0  0
   -9.0114    5.9002   -2.1457 C   0  0  0  0  0  0  0  0  0  0  0  0
   -9.8906    6.6395   -1.3951 C   0  0  0  0  0  0  0  0  0  0  0  0
   -9.7972    6.8724   -0.0075 C   0  0  0  0  0  0  0  0  0  0  0  0
   -9.7965    7.1176    1.1153 N   0  0  0  0  0  0  0  0  0  0  0  0
  -11.0227    7.3028   -1.9124 C   0  0  0  0  0  0  0  0  0  0  0  0
  -11.9586    7.8721   -2.2576 N   0  0  0  0  0  0  0  0  0  0  0  0
  -10.4137    5.7888   -7.1968 C   0  0  0  0  0  0  0  0  0  0  0  0
  -10.2410    7.1273   -7.9451 C   0  0  0  0  0  0  0  0  0  0  0  0
  -10.4373    6.7574   -9.3976 C   0  0  0  0  0  0  0  0  0  0  0  0
   -9.3739    6.0647   -9.7850 C   0  0  0  0  0  0  0  0  0  0  0  0
   -8.4410    5.9546   -8.6005 C   0  0  0  0  0  0  0  0  0  0  0  0
   -8.7170    7.3020   -7.9210 C   0  0  0  0  0  0  0  0  0  0  0  0
   -9.1620    4.9724   -7.6530 C   0  0  0  0  0  0  0  0  0  0  0  0
   -6.2972    4.4482    0.1674 C   0  0  0  0  0  0  0  0  0  0  0  0
   -6.0550    4.4016    1.5387 C   0  0  0  0  0  0  0  0  0  0  0  0
   -4.8929    3.7267    1.8923 C   0  0  0  0  0  0  0  0  0  0  0  0
   -4.3008    3.4774    3.5243 S   0  0  0  0  0  0  0  0  0  0  0  0
   -5.1651    4.7793    4.4777 C   0  0  0  0  0  0  0  0  0  0  0  0
   -4.7145    6.1737    4.0898 C   0  0  0  0  0  0  0  0  0  0  0  0
   -4.2179    3.2249    0.7748 C   0  0  0  0  0  0  0  0  0  0  0  0
   -5.0423    3.6115   -0.7040 S   0  0  0  0  0  0  0  0  0  0  0  0
   -3.0069    2.4948    0.6967 C   0  0  0  0  0  0  0  0  0  0  0  0
   -2.4249    2.0863   -0.4772 C   0  0  0  0  0  0  0  0  0  0  0  0
   -1.2009    1.4120   -0.3114 C   0  0  0  0  0  0  0  0  0  0  0  0
   -0.3918    0.8490   -1.3253 C   0  0  0  0  0  0  0  0  0  0  0  0
   -0.7130    0.9773   -2.7323 C   0  0  0  0  0  0  0  0  0  0  0  0
   -0.6031    0.0099   -3.6906 C   0  0  0  0  0  0  0  0  0  0  0  0
   -0.9636    0.4023   -4.9988 C   0  0  0  0  0  0  0  0  0  0  0  0
   -1.3469    1.6991   -5.1410 C   0  0  0  0  0  0  0  0  0  0  0  0
   -1.8375    2.3756   -6.3780 C   0  0  0  0  0  0  0  0  0  0  0  0
   -3.3355    2.6704   -6.2830 C   0  0  0  0  0  0  0  0  0  0  0  0
   -1.2839    2.6038   -3.5012 Se  0  0  0  0  0  2  0  0  0  0  0  0
    0.7327    0.1621   -0.8891 C   0  0  0  0  0  0  0  0  0  0  0  0
    1.0797    0.0317    0.4801 C   0  0  0  0  0  0  0  0  0  0  0  0
    0.2553    0.5640    1.4984 C   0  0  0  0  0  0  0  0  0  0  0  0
    0.5128    0.3351    2.9027 C   0  0  0  0  0  0  0  0  0  0  0  0
    0.2440    1.1875    3.9378 C   0  0  0  0  0  0  0  0  0  0  0  0
    0.5089    0.6801    5.2268 C   0  0  0  0  0  0  0  0  0  0  0  0
    0.9727   -0.5997    5.2780 C   0  0  0  0  0  0  0  0  0  0  0  0
    1.3873   -1.3625    6.4914 C   0  0  0  0  0  0  0  0  0  0  0  0
    2.8738   -1.1436    6.7792 C   0  0  0  0  0  0  0  0  0  0  0  0
    1.1495   -1.3187    3.5636 Se  0  0  0  0  0  2  0  0  0  0  0  0
   -0.8610    1.2699    1.0588 C   0  0  0  0  0  0  0  0  0  0  0  0
   -2.0553    2.0239    2.0860 S   0  0  0  0  0  0  0  0  0  0  0  0
    2.3033   -0.6493    0.6389 C   0  0  0  0  0  0  0  0  0  0  0  0
    2.8640   -1.0797   -0.5326 C   0  0  0  0  0  0  0  0  0  0  0  0
    1.9074   -0.6194   -1.9215 S   0  0  0  0  0  0  0  0  0  0  0  0
    4.0059   -1.9177   -0.6272 C   0  0  0  0  0  0  0  0  0  0  0  0
    4.5158   -2.6111   -1.6999 C   0  0  0  0  0  0  0  0  0  0  0  0
    5.5472   -3.5011   -1.3636 C   0  0  0  0  0  0  0  0  0  0  0  0
    6.1661   -4.3992   -2.3415 C   0  0  0  0  0  0  0  0  0  0  0  0
    5.3252   -5.2115   -3.1211 C   0  0  0  0  0  0  0  0  0  0  0  0
    4.0026   -5.0827   -2.8775 O   0  0  0  0  0  0  0  0  0  0  0  0
    3.0964   -6.0611   -3.3496 C   0  0  0  0  0  0  0  0  0  0  0  0
    1.7785   -5.8186   -2.6308 C   0  0  0  0  0  0  0  0  0  0  0  0
    5.8793   -6.0849   -4.0505 C   0  0  0  0  0  0  0  0  0  0  0  0
    7.2512   -6.1271   -4.2108 C   0  0  0  0  0  0  0  0  0  0  0  0
    8.0914   -5.3276   -3.4585 C   0  0  0  0  0  0  0  0  0  0  0  0
    7.5569   -4.4599   -2.5114 C   0  0  0  0  0  0  0  0  0  0  0  0
    8.2781   -3.6079   -1.7343 O   0  0  0  0  0  0  0  0  0  0  0  0
    9.6925   -3.6792   -1.7213 C   0  0  0  0  0  0  0  0  0  0  0  0
   10.2268   -4.8885   -0.9590 C   0  0  0  0  0  0  0  0  0  0  0  0
    5.8078   -3.5244    0.0064 C   0  0  0  0  0  0  0  0  0  0  0  0
    4.8468   -2.3259    0.8340 S   0  0  0  0  0  0  0  0  0  0  0  0
    6.6716   -4.3765    0.7225 C   0  0  0  0  0  0  0  0  0  0  0  0
    6.6376   -4.6540    2.0607 C   0  0  0  0  0  0  0  0  0  0  0  0
    7.8592   -5.0942    2.7717 C   0  0  0  0  0  0  0  0  0  0  0  0
    8.8892   -5.5008    2.2759 O   0  0  0  0  0  0  0  0  0  0  0  0
    7.5843   -4.8473    4.2046 C   0  0  0  0  0  0  0  0  0  0  0  0
    8.4594   -5.0094    5.2758 C   0  0  0  0  0  0  0  0  0  0  0  0
    7.9183   -4.6849    6.4975 C   0  0  0  0  0  0  0  0  0  0  0  0
    6.6047   -4.2205    6.6495 C   0  0  0  0  0  0  0  0  0  0  0  0
    5.7260   -4.0631    5.6049 C   0  0  0  0  0  0  0  0  0  0  0  0
    6.2560   -4.3942    4.3562 C   0  0  0  0  0  0  0  0  0  0  0  0
    5.6115   -4.4181    3.0497 C   0  0  0  0  0  0  0  0  0  0  0  0
    4.2552   -4.4702    2.8295 C   0  0  0  0  0  0  0  0  0  0  0  0
    3.2761   -4.0691    3.7479 C   0  0  0  0  0  0  0  0  0  0  0  0
    2.4296   -3.6476    4.4054 N   0  0  0  0  0  0  0  0  0  0  0  0
    3.7020   -4.9063    1.6061 C   0  0  0  0  0  0  0  0  0  0  0  0
    3.2220   -5.3329    0.6545 N   0  0  0  0  0  0  0  0  0  0  0  0
    6.7375   -4.0916    8.1461 C   0  0  0  0  0  0  0  0  0  0  0  0
    6.0730   -5.1815    9.0225 C   0  0  0  0  0  0  0  0  0  0  0  0
    6.0105   -6.4296    8.1771 C   0  0  0  0  0  0  0  0  0  0  0  0
    7.2487   -6.8820    8.0319 C   0  0  0  0  0  0  0  0  0  0  0  0
    8.1707   -5.9485    8.7767 C   0  0  0  0  0  0  0  0  0  0  0  0
    7.2546   -5.5347    9.9396 C   0  0  0  0  0  0  0  0  0  0  0  0
    8.1968   -4.6208    7.9787 C   0  0  0  0  0  0  0  0  0  0  0  0
   -8.0490    5.5532    0.3789 H   0  0  0  0  0  0  0  0  0  0  0  0
   -6.8797    3.9983   -5.6004 H   0  0  0  0  0  0  0  0  0  0  0  0
  -10.9590    6.6570   -4.2027 H   0  0  0  0  0  0  0  0  0  0  0  0
  -11.4001    5.3493   -7.3326 H   0  0  0  0  0  0  0  0  0  0  0  0
  -10.8458    7.9444   -7.5616 H   0  0  0  0  0  0  0  0  0  0  0  0
  -11.3250    6.9819   -9.9592 H   0  0  0  0  0  0  0  0  0  0  0  0
   -9.1961    5.5950  -10.7346 H   0  0  0  0  0  0  0  0  0  0  0  0
   -7.4054    5.7039   -8.8148 H   0  0  0  0  0  0  0  0  0  0  0  0
   -8.2961    7.3892   -6.9211 H   0  0  0  0  0  0  0  0  0  0  0  0
   -8.3897    8.1440   -8.5287 H   0  0  0  0  0  0  0  0  0  0  0  0
   -9.3140    3.9892   -8.0946 H   0  0  0  0  0  0  0  0  0  0  0  0
   -6.7364    4.8527    2.2373 H   0  0  0  0  0  0  0  0  0  0  0  0
   -6.2390    4.6413    4.3614 H   0  0  0  0  0  0  0  0  0  0  0  0
   -4.8949    4.5551    5.5094 H   0  0  0  0  0  0  0  0  0  0  0  0
   -4.9440    6.3832    3.0472 H   0  0  0  0  0  0  0  0  0  0  0  0
   -5.2215    6.9102    4.7099 H   0  0  0  0  0  0  0  0  0  0  0  0
   -3.6412    6.2757    4.2327 H   0  0  0  0  0  0  0  0  0  0  0  0
   -2.9013    2.2553   -1.4277 H   0  0  0  0  0  0  0  0  0  0  0  0
   -0.3118   -1.0002   -3.4568 H   0  0  0  0  0  0  0  0  0  0  0  0
   -0.9413   -0.2865   -5.8273 H   0  0  0  0  0  0  0  0  0  0  0  0
   -1.6401    1.7300   -7.2368 H   0  0  0  0  0  0  0  0  0  0  0  0
   -1.2978    3.3153   -6.5273 H   0  0  0  0  0  0  0  0  0  0  0  0
   -3.8963    1.7448   -6.1727 H   0  0  0  0  0  0  0  0  0  0  0  0
   -3.5385    3.2989   -5.4158 H   0  0  0  0  0  0  0  0  0  0  0  0
   -3.6793    3.1850   -7.1774 H   0  0  0  0  0  0  0  0  0  0  0  0
   -0.1025    2.1959    3.7863 H   0  0  0  0  0  0  0  0  0  0  0  0
    0.3460    1.2686    6.1153 H   0  0  0  0  0  0  0  0  0  0  0  0
    0.7935   -1.0340    7.3477 H   0  0  0  0  0  0  0  0  0  0  0  0
    1.2132   -2.4270    6.3272 H   0  0  0  0  0  0  0  0  0  0  0  0
    3.0761   -0.0922    6.9722 H   0  0  0  0  0  0  0  0  0  0  0  0
    3.4610   -1.4544    5.9167 H   0  0  0  0  0  0  0  0  0  0  0  0
    3.1837   -1.7254    7.6444 H   0  0  0  0  0  0  0  0  0  0  0  0
    2.7823   -0.8215    1.5884 H   0  0  0  0  0  0  0  0  0  0  0  0
    4.1340   -2.4951   -2.6978 H   0  0  0  0  0  0  0  0  0  0  0  0
    3.4755   -7.0657   -3.1212 H   0  0  0  0  0  0  0  0  0  0  0  0
    2.9706   -5.9698   -4.4383 H   0  0  0  0  0  0  0  0  0  0  0  0
    1.0554   -6.5805   -2.9076 H   0  0  0  0  0  0  0  0  0  0  0  0
    1.9457   -5.8461   -1.5575 H   0  0  0  0  0  0  0  0  0  0  0  0
    1.3866   -4.8396   -2.8931 H   0  0  0  0  0  0  0  0  0  0  0  0
    5.2497   -6.7202   -4.6521 H   0  0  0  0  0  0  0  0  0  0  0  0
    7.6781   -6.7990   -4.9403 H   0  0  0  0  0  0  0  0  0  0  0  0
    9.1547   -5.3866   -3.6215 H   0  0  0  0  0  0  0  0  0  0  0  0
   10.0873   -3.6559   -2.7447 H   0  0  0  0  0  0  0  0  0  0  0  0
    9.9967   -2.7582   -1.2164 H   0  0  0  0  0  0  0  0  0  0  0  0
   11.3132   -4.8697   -0.9706 H   0  0  0  0  0  0  0  0  0  0  0  0
    9.8882   -5.8168   -1.4134 H   0  0  0  0  0  0  0  0  0  0  0  0
    9.8912   -4.8711    0.0755 H   0  0  0  0  0  0  0  0  0  0  0  0
    7.5003   -4.8019    0.1715 H   0  0  0  0  0  0  0  0  0  0  0  0
    9.4653   -5.3676    5.1221 H   0  0  0  0  0  0  0  0  0  0  0  0
    4.7157   -3.7068    5.7251 H   0  0  0  0  0  0  0  0  0  0  0  0
    6.6029   -3.0908    8.5521 H   0  0  0  0  0  0  0  0  0  0  0  0
    5.1442   -4.8761    9.4970 H   0  0  0  0  0  0  0  0  0  0  0  0
    5.1073   -6.8104    7.7373 H   0  0  0  0  0  0  0  0  0  0  0  0
    7.5868   -7.7165    7.4460 H   0  0  0  0  0  0  0  0  0  0  0  0
    9.1516   -6.3430    9.0286 H   0  0  0  0  0  0  0  0  0  0  0  0
    7.0320   -6.3597   10.6147 H   0  0  0  0  0  0  0  0  0  0  0  0
    7.6316   -4.6855   10.5081 H   0  0  0  0  0  0  0  0  0  0  0  0
    9.0143   -3.9707    8.2848 H   0  0  0  0  0  0  0  0  0  0  0  0
  1  2  2  0  0  0  0
  2  3  1  0  0  0  0
  3  4  2  0  0  0  0
  3  5  1  0  0  0  0
  5  6  2  0  0  0  0
  6  7  1  0  0  0  0
  7  8  2  0  0  0  0
  8  9  1  0  0  0  0
  9 10  2  0  0  0  0
 10 11  1  0  0  0  0
 11 12  2  0  0  0  0
 12 13  1  0  0  0  0
 13 14  3  0  0  0  0
 12 15  1  0  0  0  0
 15 16  3  0  0  0  0
  8 17  1  0  0  0  0
 17 18  1  0  0  0  0
 18 19  1  0  0  0  0
 19 20  2  0  0  0  0
 20 21  1  0  0  0  0
 21 22  1  0  0  0  0
 21 23  1  0  0  0  0
  1 24  1  0  0  0  0
 24 25  2  0  0  0  0
 25 26  1  0  0  0  0
 26 27  1  0  0  0  0
 27 28  1  0  0  0  0
 28 29  1  0  0  0  0
 26 30  2  0  0  0  0
 30 31  1  0  0  0  0
 30 32  1  0  0  0  0
 32 33  2  0  0  0  0
 33 34  1  0  0  0  0
 34 35  2  0  0  0  0
 35 36  1  0  0  0  0
 36 37  2  0  0  0  0
 37 38  1  0  0  0  0
 38 39  2  0  0  0  0
 39 40  1  0  0  0  0
 40 41  1  0  0  0  0
 39 42  1  0  0  0  0
 35 43  1  0  0  0  0
 43 44  2  0  0  0  0
 44 45  1  0  0  0  0
 45 46  1  0  0  0  0
 46 47  2  0  0  0  0
 47 48  1  0  0  0  0
 48 49  2  0  0  0  0
 49 50  1  0  0  0  0
 50 51  1  0  0  0  0
 49 52  1  0  0  0  0
 45 53  2  0  0  0  0
 53 54  1  0  0  0  0
 44 55  1  0  0  0  0
 55 56  2  0  0  0  0
 56 57  1  0  0  0  0
 56 58  1  0  0  0  0
 58 59  2  0  0  0  0
 59 60  1  0  0  0  0
 60 61  1  0  0  0  0
 61 62  2  0  0  0  0
 62 63  1  0  0  0  0
 63 64  1  0  0  0  0
 64 65  1  0  0  0  0
 62 66  1  0  0  0  0
 66 67  2  0  0  0  0
 67 68  1  0  0  0  0
 68 69  2  0  0  0  0
 69 70  1  0  0  0  0
 70 71  1  0  0  0  0
 71 72  1  0  0  0  0
 60 73  2  0  0  0  0
 73 74  1  0  0  0  0
 73 75  1  0  0  0  0
 75 76  2  0  0  0  0
 76 77  1  0  0  0  0
 77 78  2  0  0  0  0
 77 79  1  0  0  0  0
 79 80  2  0  0  0  0
 80 81  1  0  0  0  0
 81 82  2  0  0  0  0
 82 83  1  0  0  0  0
 83 84  2  0  0  0  0
 84 85  1  0  0  0  0
 85 86  2  0  0  0  0
 86 87  1  0  0  0  0
 87 88  3  0  0  0  0
 86 89  1  0  0  0  0
 89 90  3  0  0  0  0
 82 91  1  0  0  0  0
 91 92  1  0  0  0  0
 92 93  1  0  0  0  0
 93 94  2  0  0  0  0
 94 95  1  0  0  0  0
 95 96  1  0  0  0  0
 95 97  1  0  0  0  0
 11  2  1  0  0  0  0
 23 17  1  0  0  0  0
 31 24  1  0  0  0  0
 54 32  1  0  0  0  0
 74 58  1  0  0  0  0
 85 76  1  0  0  0  0
 97 91  1  0  0  0  0
 10  5  1  0  0  0  0
 22 18  1  0  0  0  0
 53 34  1  0  0  0  0
 69 61  1  0  0  0  0
 84 79  1  0  0  0  0
 96 92  1  0  0  0  0
 23  7  1  0  0  0  0
 42 36  1  0  0  0  0
 57 43  1  0  0  0  0
 97 81  1  0  0  0  0
 52 46  1  0  0  0  0
  1 98  1  0  0  0  0
  6 99  1  0  0  0  0
  9100  1  0  0  0  0
 17101  1  0  0  0  0
 18102  1  0  0  0  0
 19103  1  0  0  0  0
 20104  1  0  0  0  0
 21105  1  0  0  0  0
 22106  1  0  0  0  0
 22107  1  0  0  0  0
 23108  1  0  0  0  0
 25109  1  0  0  0  0
 28110  1  0  0  0  0
 28111  1  0  0  0  0
 29112  1  0  0  0  0
 29113  1  0  0  0  0
 29114  1  0  0  0  0
 33115  1  0  0  0  0
 37116  1  0  0  0  0
 38117  1  0  0  0  0
 40118  1  0  0  0  0
 40119  1  0  0  0  0
 41120  1  0  0  0  0
 41121  1  0  0  0  0
 41122  1  0  0  0  0
 47123  1  0  0  0  0
 48124  1  0  0  0  0
 50125  1  0  0  0  0
 50126  1  0  0  0  0
 51127  1  0  0  0  0
 51128  1  0  0  0  0
 51129  1  0  0  0  0
 55130  1  0  0  0  0
 59131  1  0  0  0  0
 64132  1  0  0  0  0
 64133  1  0  0  0  0
 65134  1  0  0  0  0
 65135  1  0  0  0  0
 65136  1  0  0  0  0
 66137  1  0  0  0  0
 67138  1  0  0  0  0
 68139  1  0  0  0  0
 71140  1  0  0  0  0
 71141  1  0  0  0  0
 72142  1  0  0  0  0
 72143  1  0  0  0  0
 72144  1  0  0  0  0
 75145  1  0  0  0  0
 80146  1  0  0  0  0
 83147  1  0  0  0  0
 91148  1  0  0  0  0
 92149  1  0  0  0  0
 93150  1  0  0  0  0
 94151  1  0  0  0  0
 95152  1  0  0  0  0
 96153  1  0  0  0  0
 96154  1  0  0  0  0
 97155  1  0  0  0  0
M  END
