
  xtb     02042214213D
 energy: -273.700948906564 gnorm: 0.000186817468 xtb: 6.4.1 (unknown)
166183  0     0  0            999 V2000
    5.7840   -4.1527    3.5559 C   0  0  0  0  0  0  0  0  0  0  0  0
    6.8622   -3.4334    3.1499 C   0  0  0  0  0  0  0  0  0  0  0  0
    8.2291   -4.0170    3.2410 C   0  0  0  0  0  0  0  0  0  0  0  0
    8.5429   -5.0328    3.8206 O   0  0  0  0  0  0  0  0  0  0  0  0
    9.0881   -3.1288    2.4373 C   0  0  0  0  0  0  0  0  0  0  0  0
   10.4382   -3.3056    2.1414 C   0  0  0  0  0  0  0  0  0  0  0  0
   10.9836   -2.2949    1.3857 C   0  0  0  0  0  0  0  0  0  0  0  0
   10.2433   -1.1848    0.9569 C   0  0  0  0  0  0  0  0  0  0  0  0
    8.9123   -0.9943    1.2417 C   0  0  0  0  0  0  0  0  0  0  0  0
    8.3361   -2.0154    2.0024 C   0  0  0  0  0  0  0  0  0  0  0  0
    6.9811   -2.1285    2.5298 C   0  0  0  0  0  0  0  0  0  0  0  0
    6.0921   -1.0908    2.6451 C   0  0  0  0  0  0  0  0  0  0  0  0
    4.9342   -1.1261    3.4467 C   0  0  0  0  0  0  0  0  0  0  0  0
    4.0219   -1.0621    4.1419 N   0  0  0  0  0  0  0  0  0  0  0  0
    6.2616    0.1798    2.0606 C   0  0  0  0  0  0  0  0  0  0  0  0
    6.3122    1.2276    1.5932 N   0  0  0  0  0  0  0  0  0  0  0  0
   11.4245   -0.5665    0.2534 C   0  0  0  0  0  0  0  0  0  0  0  0
   12.1331    0.6215    0.9486 C   0  0  0  0  0  0  0  0  0  0  0  0
   11.8856    0.4598    2.4281 C   0  0  0  0  0  0  0  0  0  0  0  0
   12.5876   -0.5858    2.8440 C   0  0  0  0  0  0  0  0  0  0  0  0
   13.3226   -1.1502    1.6532 C   0  0  0  0  0  0  0  0  0  0  0  0
   13.5907    0.1412    0.8638 C   0  0  0  0  0  0  0  0  0  0  0  0
   12.2530   -1.7982    0.7390 C   0  0  0  0  0  0  0  0  0  0  0  0
    4.4237   -3.9325    3.2118 C   0  0  0  0  0  0  0  0  0  0  0  0
    3.3045   -4.1868    3.9675 C   0  0  0  0  0  0  0  0  0  0  0  0
    2.1154   -3.7836    3.3519 C   0  0  0  0  0  0  0  0  0  0  0  0
    0.5440   -3.9967    4.1299 S   0  0  0  0  0  0  0  0  0  0  0  0
    0.7738   -2.9746    5.6330 C   0  0  0  0  0  0  0  0  0  0  0  0
    0.8672   -1.4984    5.3150 C   0  0  0  0  0  0  0  0  0  0  0  0
    2.2906   -3.2874    2.0665 C   0  0  0  0  0  0  0  0  0  0  0  0
    3.9781   -3.2987    1.6467 S   0  0  0  0  0  0  0  0  0  0  0  0
    1.2871   -2.7569    1.2045 C   0  0  0  0  0  0  0  0  0  0  0  0
    1.1818   -2.7403   -0.1822 C   0  0  0  0  0  0  0  0  0  0  0  0
    2.0376   -3.3422   -1.0995 N   0  0  0  0  0  0  0  0  0  0  0  0
    1.4342   -4.1393   -2.0853 C   0  0  0  0  0  0  0  0  0  0  0  0
    0.3826   -4.9830   -1.7379 C   0  0  0  0  0  0  0  0  0  0  0  0
   -0.2478   -5.7584   -2.6913 C   0  0  0  0  0  0  0  0  0  0  0  0
    0.1710   -5.7085   -4.0137 C   0  0  0  0  0  0  0  0  0  0  0  0
   -0.5438   -6.6534   -5.3206 S   0  0  0  0  0  0  0  0  0  0  0  0
   -1.8816   -7.5790   -4.5155 C   0  0  0  0  0  0  0  0  0  0  0  0
    1.2257   -4.8664   -4.3648 C   0  0  0  0  0  0  0  0  0  0  0  0
    1.8474   -4.0867   -3.4169 C   0  0  0  0  0  0  0  0  0  0  0  0
    3.3802   -2.9828   -1.1960 C   0  0  0  0  0  0  0  0  0  0  0  0
    4.3195   -3.9133   -1.6412 C   0  0  0  0  0  0  0  0  0  0  0  0
    5.6509   -3.5743   -1.7401 C   0  0  0  0  0  0  0  0  0  0  0  0
    6.0727   -2.2961   -1.3928 C   0  0  0  0  0  0  0  0  0  0  0  0
    7.7547   -1.7716   -1.5337 S   0  0  0  0  0  0  0  0  0  0  0  0
    8.6808   -3.3326   -1.4551 C   0  0  0  0  0  0  0  0  0  0  0  0
    5.1419   -1.3604   -0.9532 C   0  0  0  0  0  0  0  0  0  0  0  0
    3.8085   -1.6981   -0.8534 C   0  0  0  0  0  0  0  0  0  0  0  0
   -0.0209   -2.1153   -0.5924 C   0  0  0  0  0  0  0  0  0  0  0  0
   -0.7202   -1.7500   -2.1319 S   0  0  0  0  0  0  0  0  0  0  0  0
   -2.0843   -0.9544   -1.3445 C   0  0  0  0  0  0  0  0  0  0  0  0
   -1.9634   -0.9379    0.0392 C   0  0  0  0  0  0  0  0  0  0  0  0
   -2.7951   -0.3070    0.9451 N   0  0  0  0  0  0  0  0  0  0  0  0
   -2.9246   -0.9088    2.2094 C   0  0  0  0  0  0  0  0  0  0  0  0
   -2.8360   -0.1579    3.3806 C   0  0  0  0  0  0  0  0  0  0  0  0
   -2.8691   -0.7867    4.6054 C   0  0  0  0  0  0  0  0  0  0  0  0
   -2.9878   -2.1736    4.6885 C   0  0  0  0  0  0  0  0  0  0  0  0
   -2.9578   -2.8781    6.3052 S   0  0  0  0  0  0  0  0  0  0  0  0
   -2.8200   -4.6618    5.9924 C   0  0  0  0  0  0  0  0  0  0  0  0
   -3.1207   -2.9195    3.5261 C   0  0  0  0  0  0  0  0  0  0  0  0
   -3.0922   -2.2881    2.2989 C   0  0  0  0  0  0  0  0  0  0  0  0
   -3.3828    0.9338    0.6792 C   0  0  0  0  0  0  0  0  0  0  0  0
   -2.7595    1.8663   -0.1529 C   0  0  0  0  0  0  0  0  0  0  0  0
   -3.4026    3.0348   -0.4934 C   0  0  0  0  0  0  0  0  0  0  0  0
   -4.6712    3.3138    0.0108 C   0  0  0  0  0  0  0  0  0  0  0  0
   -5.4162    4.8295   -0.5061 S   0  0  0  0  0  0  0  0  0  0  0  0
   -7.1652    4.6169   -0.0702 C   0  0  0  0  0  0  0  0  0  0  0  0
   -5.2689    2.4207    0.8893 C   0  0  0  0  0  0  0  0  0  0  0  0
   -4.6331    1.2386    1.2131 C   0  0  0  0  0  0  0  0  0  0  0  0
   -0.7921   -1.6265    0.4444 C   0  0  0  0  0  0  0  0  0  0  0  0
   -0.0788   -1.9597    1.9749 S   0  0  0  0  0  0  0  0  0  0  0  0
   -3.0906   -0.3629   -2.1608 C   0  0  0  0  0  0  0  0  0  0  0  0
   -2.9041    0.1919   -3.4065 C   0  0  0  0  0  0  0  0  0  0  0  0
   -4.0318    0.8647   -3.8964 C   0  0  0  0  0  0  0  0  0  0  0  0
   -4.2024    1.5407   -5.4898 S   0  0  0  0  0  0  0  0  0  0  0  0
   -2.4794    1.6888   -6.0784 C   0  0  0  0  0  0  0  0  0  0  0  0
   -1.7136    2.7559   -5.3222 C   0  0  0  0  0  0  0  0  0  0  0  0
   -5.1115    0.8191   -3.0133 C   0  0  0  0  0  0  0  0  0  0  0  0
   -4.7428   -0.2195   -1.6517 S   0  0  0  0  0  0  0  0  0  0  0  0
   -6.3480    1.4919   -2.9890 C   0  0  0  0  0  0  0  0  0  0  0  0
   -6.5785    2.7811   -3.3874 C   0  0  0  0  0  0  0  0  0  0  0  0
   -5.5242    3.7906   -3.6095 C   0  0  0  0  0  0  0  0  0  0  0  0
   -4.3238    3.6113   -3.6658 O   0  0  0  0  0  0  0  0  0  0  0  0
   -6.2187    5.0913   -3.6500 C   0  0  0  0  0  0  0  0  0  0  0  0
   -5.6278    6.3468   -3.7540 C   0  0  0  0  0  0  0  0  0  0  0  0
   -6.5195    7.3900   -3.6979 C   0  0  0  0  0  0  0  0  0  0  0  0
   -7.9006    7.2026   -3.5556 C   0  0  0  0  0  0  0  0  0  0  0  0
   -8.4971    5.9680   -3.4577 C   0  0  0  0  0  0  0  0  0  0  0  0
   -7.6055    4.8920   -3.5035 C   0  0  0  0  0  0  0  0  0  0  0  0
   -7.8566    3.4587   -3.3817 C   0  0  0  0  0  0  0  0  0  0  0  0
   -9.0884    2.8575   -3.3240 C   0  0  0  0  0  0  0  0  0  0  0  0
   -9.2988    1.4637   -3.2784 C   0  0  0  0  0  0  0  0  0  0  0  0
   -9.5531    0.3438   -3.2501 N   0  0  0  0  0  0  0  0  0  0  0  0
  -10.3153    3.5505   -3.3205 C   0  0  0  0  0  0  0  0  0  0  0  0
  -11.3483    4.0522   -3.2978 N   0  0  0  0  0  0  0  0  0  0  0  0
   -8.1801    8.6859   -3.5343 C   0  0  0  0  0  0  0  0  0  0  0  0
   -8.4843    9.3426   -2.1644 C   0  0  0  0  0  0  0  0  0  0  0  0
   -7.8139    8.4837   -1.1217 C   0  0  0  0  0  0  0  0  0  0  0  0
   -6.5029    8.6414   -1.2469 C   0  0  0  0  0  0  0  0  0  0  0  0
   -6.2643    9.6208   -2.3703 C   0  0  0  0  0  0  0  0  0  0  0  0
   -7.4998   10.5218   -2.2138 C   0  0  0  0  0  0  0  0  0  0  0  0
   -6.6398    8.8919   -3.6843 C   0  0  0  0  0  0  0  0  0  0  0  0
    5.9965   -5.0230    4.1696 H   0  0  0  0  0  0  0  0  0  0  0  0
   10.9758   -4.1693    2.5003 H   0  0  0  0  0  0  0  0  0  0  0  0
    8.3562   -0.1372    0.9032 H   0  0  0  0  0  0  0  0  0  0  0  0
   11.3114   -0.4143   -0.8182 H   0  0  0  0  0  0  0  0  0  0  0  0
   11.8998    1.5950    0.5264 H   0  0  0  0  0  0  0  0  0  0  0  0
   11.2020    1.0685    2.9904 H   0  0  0  0  0  0  0  0  0  0  0  0
   12.6083   -1.0258    3.8239 H   0  0  0  0  0  0  0  0  0  0  0  0
   14.1744   -1.7886    1.8732 H   0  0  0  0  0  0  0  0  0  0  0  0
   14.2844    0.8088    1.3724 H   0  0  0  0  0  0  0  0  0  0  0  0
   13.9308   -0.0356   -0.1557 H   0  0  0  0  0  0  0  0  0  0  0  0
   12.6938   -2.4486   -0.0148 H   0  0  0  0  0  0  0  0  0  0  0  0
    3.3485   -4.6030    4.9579 H   0  0  0  0  0  0  0  0  0  0  0  0
    1.6660   -3.3348    6.1427 H   0  0  0  0  0  0  0  0  0  0  0  0
   -0.1032   -3.1932    6.2412 H   0  0  0  0  0  0  0  0  0  0  0  0
    1.7494   -1.2873    4.7150 H   0  0  0  0  0  0  0  0  0  0  0  0
    0.9406   -0.9360    6.2434 H   0  0  0  0  0  0  0  0  0  0  0  0
   -0.0187   -1.1679    4.7766 H   0  0  0  0  0  0  0  0  0  0  0  0
    0.0577   -5.0346   -0.7087 H   0  0  0  0  0  0  0  0  0  0  0  0
   -1.0583   -6.3996   -2.3853 H   0  0  0  0  0  0  0  0  0  0  0  0
   -1.4725   -8.2454   -3.7616 H   0  0  0  0  0  0  0  0  0  0  0  0
   -2.6041   -6.8904   -4.0873 H   0  0  0  0  0  0  0  0  0  0  0  0
   -2.3493   -8.1597   -5.3045 H   0  0  0  0  0  0  0  0  0  0  0  0
    1.5412   -4.8252   -5.3959 H   0  0  0  0  0  0  0  0  0  0  0  0
    2.6497   -3.4236   -3.7027 H   0  0  0  0  0  0  0  0  0  0  0  0
    3.9968   -4.9093   -1.9042 H   0  0  0  0  0  0  0  0  0  0  0  0
    6.3538   -4.3121   -2.0918 H   0  0  0  0  0  0  0  0  0  0  0  0
    9.7133   -3.0550   -1.2675 H   0  0  0  0  0  0  0  0  0  0  0  0
    8.3068   -3.9343   -0.6322 H   0  0  0  0  0  0  0  0  0  0  0  0
    8.6090   -3.8658   -2.3985 H   0  0  0  0  0  0  0  0  0  0  0  0
    5.4708   -0.3651   -0.6964 H   0  0  0  0  0  0  0  0  0  0  0  0
    3.0902   -0.9671   -0.5129 H   0  0  0  0  0  0  0  0  0  0  0  0
   -2.7172    0.9135    3.3211 H   0  0  0  0  0  0  0  0  0  0  0  0
   -2.7806   -0.2127    5.5151 H   0  0  0  0  0  0  0  0  0  0  0  0
   -2.6455   -5.1166    6.9628 H   0  0  0  0  0  0  0  0  0  0  0  0
   -3.7473   -5.0411    5.5729 H   0  0  0  0  0  0  0  0  0  0  0  0
   -1.9777   -4.8539    5.3331 H   0  0  0  0  0  0  0  0  0  0  0  0
   -3.2407   -3.9895    3.5588 H   0  0  0  0  0  0  0  0  0  0  0  0
   -3.1915   -2.8710    1.3948 H   0  0  0  0  0  0  0  0  0  0  0  0
   -1.7755    1.6611   -0.5471 H   0  0  0  0  0  0  0  0  0  0  0  0
   -2.9376    3.7395   -1.1645 H   0  0  0  0  0  0  0  0  0  0  0  0
   -7.6894    5.4234   -0.5740 H   0  0  0  0  0  0  0  0  0  0  0  0
   -7.3013    4.7012    1.0042 H   0  0  0  0  0  0  0  0  0  0  0  0
   -7.5188    3.6574   -0.4364 H   0  0  0  0  0  0  0  0  0  0  0  0
   -6.2375    2.6248    1.3163 H   0  0  0  0  0  0  0  0  0  0  0  0
   -5.1181    0.5312    1.8685 H   0  0  0  0  0  0  0  0  0  0  0  0
   -1.9523    0.1416   -3.9026 H   0  0  0  0  0  0  0  0  0  0  0  0
   -2.5926    1.9585   -7.1286 H   0  0  0  0  0  0  0  0  0  0  0  0
   -2.0075    0.7087   -6.0190 H   0  0  0  0  0  0  0  0  0  0  0  0
   -1.6415    2.5090   -4.2660 H   0  0  0  0  0  0  0  0  0  0  0  0
   -0.7104    2.8533   -5.7330 H   0  0  0  0  0  0  0  0  0  0  0  0
   -2.2269    3.7101   -5.4029 H   0  0  0  0  0  0  0  0  0  0  0  0
   -7.1474    0.9614   -2.4834 H   0  0  0  0  0  0  0  0  0  0  0  0
   -4.5589    6.4505   -3.8524 H   0  0  0  0  0  0  0  0  0  0  0  0
   -9.5599    5.8362   -3.3373 H   0  0  0  0  0  0  0  0  0  0  0  0
   -8.8237    9.0617   -4.3273 H   0  0  0  0  0  0  0  0  0  0  0  0
   -9.5332    9.5723   -1.9963 H   0  0  0  0  0  0  0  0  0  0  0  0
   -8.3461    7.8302   -0.4548 H   0  0  0  0  0  0  0  0  0  0  0  0
   -5.7191    8.1321   -0.7172 H   0  0  0  0  0  0  0  0  0  0  0  0
   -5.2907   10.1036   -2.3848 H   0  0  0  0  0  0  0  0  0  0  0  0
   -7.4871   11.0986   -1.2901 H   0  0  0  0  0  0  0  0  0  0  0  0
   -7.6615   11.1871   -3.0608 H   0  0  0  0  0  0  0  0  0  0  0  0
   -6.2774    9.4151   -4.5671 H   0  0  0  0  0  0  0  0  0  0  0  0
  1  2  2  0  0  0  0
  2  3  1  0  0  0  0
  3  4  2  0  0  0  0
  3  5  1  0  0  0  0
  5  6  2  0  0  0  0
  6  7  1  0  0  0  0
  7  8  2  0  0  0  0
  8  9  1  0  0  0  0
  9 10  2  0  0  0  0
 10 11  1  0  0  0  0
 11 12  2  0  0  0  0
 12 13  1  0  0  0  0
 13 14  3  0  0  0  0
 12 15  1  0  0  0  0
 15 16  3  0  0  0  0
  8 17  1  0  0  0  0
 17 18  1  0  0  0  0
 18 19  1  0  0  0  0
 19 20  2  0  0  0  0
 20 21  1  0  0  0  0
 21 22  1  0  0  0  0
 21 23  1  0  0  0  0
  1 24  1  0  0  0  0
 24 25  2  0  0  0  0
 25 26  1  0  0  0  0
 26 27  1  0  0  0  0
 27 28  1  0  0  0  0
 28 29  1  0  0  0  0
 26 30  2  0  0  0  0
 30 31  1  0  0  0  0
 30 32  1  0  0  0  0
 32 33  2  0  0  0  0
 33 34  1  0  0  0  0
 34 35  1  0  0  0  0
 35 36  2  0  0  0  0
 36 37  1  0  0  0  0
 37 38  2  0  0  0  0
 38 39  1  0  0  0  0
 39 40  1  0  0  0  0
 38 41  1  0  0  0  0
 41 42  2  0  0  0  0
 34 43  1  0  0  0  0
 43 44  2  0  0  0  0
 44 45  1  0  0  0  0
 45 46  2  0  0  0  0
 46 47  1  0  0  0  0
 47 48  1  0  0  0  0
 46 49  1  0  0  0  0
 49 50  2  0  0  0  0
 33 51  1  0  0  0  0
 51 52  1  0  0  0  0
 52 53  1  0  0  0  0
 53 54  2  0  0  0  0
 54 55  1  0  0  0  0
 55 56  1  0  0  0  0
 56 57  2  0  0  0  0
 57 58  1  0  0  0  0
 58 59  2  0  0  0  0
 59 60  1  0  0  0  0
 60 61  1  0  0  0  0
 59 62  1  0  0  0  0
 62 63  2  0  0  0  0
 55 64  1  0  0  0  0
 64 65  2  0  0  0  0
 65 66  1  0  0  0  0
 66 67  2  0  0  0  0
 67 68  1  0  0  0  0
 68 69  1  0  0  0  0
 67 70  1  0  0  0  0
 70 71  2  0  0  0  0
 54 72  1  0  0  0  0
 72 73  1  0  0  0  0
 53 74  1  0  0  0  0
 74 75  2  0  0  0  0
 75 76  1  0  0  0  0
 76 77  1  0  0  0  0
 77 78  1  0  0  0  0
 78 79  1  0  0  0  0
 76 80  2  0  0  0  0
 80 81  1  0  0  0  0
 80 82  1  0  0  0  0
 82 83  2  0  0  0  0
 83 84  1  0  0  0  0
 84 85  2  0  0  0  0
 84 86  1  0  0  0  0
 86 87  2  0  0  0  0
 87 88  1  0  0  0  0
 88 89  2  0  0  0  0
 89 90  1  0  0  0  0
 90 91  2  0  0  0  0
 91 92  1  0  0  0  0
 92 93  2  0  0  0  0
 93 94  1  0  0  0  0
 94 95  3  0  0  0  0
 93 96  1  0  0  0  0
 96 97  3  0  0  0  0
 89 98  1  0  0  0  0
 98 99  1  0  0  0  0
 99100  1  0  0  0  0
100101  2  0  0  0  0
101102  1  0  0  0  0
102103  1  0  0  0  0
102104  1  0  0  0  0
 11  2  1  0  0  0  0
 23 17  1  0  0  0  0
 31 24  1  0  0  0  0
 73 32  1  0  0  0  0
 81 74  1  0  0  0  0
 92 83  1  0  0  0  0
104 98  1  0  0  0  0
 10  5  1  0  0  0  0
 22 18  1  0  0  0  0
 42 35  1  0  0  0  0
 50 43  1  0  0  0  0
 72 51  2  0  0  0  0
 91 86  1  0  0  0  0
103 99  1  0  0  0  0
 23  7  1  0  0  0  0
 63 56  1  0  0  0  0
 71 64  1  0  0  0  0
104 88  1  0  0  0  0
  1105  1  0  0  0  0
  6106  1  0  0  0  0
  9107  1  0  0  0  0
 17108  1  0  0  0  0
 18109  1  0  0  0  0
 19110  1  0  0  0  0
 20111  1  0  0  0  0
 21112  1  0  0  0  0
 22113  1  0  0  0  0
 22114  1  0  0  0  0
 23115  1  0  0  0  0
 25116  1  0  0  0  0
 28117  1  0  0  0  0
 28118  1  0  0  0  0
 29119  1  0  0  0  0
 29120  1  0  0  0  0
 29121  1  0  0  0  0
 36122  1  0  0  0  0
 37123  1  0  0  0  0
 40124  1  0  0  0  0
 40125  1  0  0  0  0
 40126  1  0  0  0  0
 41127  1  0  0  0  0
 42128  1  0  0  0  0
 44129  1  0  0  0  0
 45130  1  0  0  0  0
 48131  1  0  0  0  0
 48132  1  0  0  0  0
 48133  1  0  0  0  0
 49134  1  0  0  0  0
 50135  1  0  0  0  0
 57136  1  0  0  0  0
 58137  1  0  0  0  0
 61138  1  0  0  0  0
 61139  1  0  0  0  0
 61140  1  0  0  0  0
 62141  1  0  0  0  0
 63142  1  0  0  0  0
 65143  1  0  0  0  0
 66144  1  0  0  0  0
 69145  1  0  0  0  0
 69146  1  0  0  0  0
 69147  1  0  0  0  0
 70148  1  0  0  0  0
 71149  1  0  0  0  0
 75150  1  0  0  0  0
 78151  1  0  0  0  0
 78152  1  0  0  0  0
 79153  1  0  0  0  0
 79154  1  0  0  0  0
 79155  1  0  0  0  0
 82156  1  0  0  0  0
 87157  1  0  0  0  0
 90158  1  0  0  0  0
 98159  1  0  0  0  0
 99160  1  0  0  0  0
100161  1  0  0  0  0
101162  1  0  0  0  0
102163  1  0  0  0  0
103164  1  0  0  0  0
103165  1  0  0  0  0
104166  1  0  0  0  0
M  END
