164

C          6.48400        2.58760        1.62140
C          6.47210        3.87910        1.16670
C          5.27050        4.69460        0.98960
O          4.13640        4.43660        1.36150
C          5.69140        5.89020        0.23540
C          4.87770        6.92090       -0.23140
C          5.54900        7.88220       -0.94820
C          6.92830        7.82200       -1.18610
C          7.74320        6.81420       -0.72710
C          7.08190        5.82680        0.00870
C          7.60200        4.60900        0.63040
C          8.92280        4.25280        0.70310
C          9.42790        3.11090        1.36100
N          9.93320        2.22320        1.88620
C          9.98270        5.00710        0.15870
N         10.89280        5.57340       -0.25360
C          6.92910        9.10510       -1.97950
C          7.45860       10.36280       -1.25930
C          6.90150       11.50710       -2.07510
C          5.59550       11.56590       -1.84850
C          5.24760       10.46230       -0.87540
C          6.53280       10.43400       -0.03800
C          5.39100        9.17370       -1.71240
C          5.41430        1.76880        1.99880
S          3.71640        2.16740        2.13260
C          3.29270        0.49930        2.36130
C          4.41230       -0.31420        2.37990
C          5.60350        0.39980        2.22250
O          6.82510       -0.18090        2.26140
C          6.77580       -1.48050        2.82230
C          5.61050       -2.27910        2.23680
O          4.36900       -1.66910        2.54020
C          1.95100       -0.00140        2.30610
C          1.51030       -0.95520        1.40290
N          2.24130       -1.45820        0.34280
C          3.15130       -0.65130       -0.34450
C          2.90170        0.70790       -0.52560
C          3.85490        1.53790       -1.07960
C          5.08000        1.02040       -1.47450
S          6.42020        2.02080       -2.04960
C          5.61090        3.57230       -2.53410
C          5.30080       -0.35230       -1.38400
C          4.34490       -1.18130       -0.83730
C          1.98690       -2.77920       -0.06530
C          1.85940       -3.78830        0.88900
C          1.54320       -5.07020        0.50040
C          1.34840       -5.37380       -0.84670
S          0.93860       -7.04530       -1.22170
C          0.50620       -7.01490       -2.98320
C          1.50170       -4.37500       -1.80060
C          1.81970       -3.08860       -1.41090
C          0.15860       -1.29390        1.64890
S         -0.95030       -2.36490        0.87700
C         -2.20980       -1.87670        2.00050
C         -1.80260       -0.87930        2.87610
N         -2.63050       -0.19580        3.74410
C         -2.10750        0.26660        4.96000
C         -1.19090       -0.50520        5.66760
C         -0.64720       -0.04570        6.85130
C         -1.01910        1.19480        7.35020
S         -0.39650        1.88260        8.85130
C          0.99670        0.79820        9.27610
C         -1.95290        1.96160        6.65420
C         -2.48910        1.50730        5.47110
C         -3.97870        0.00090        3.42180
C         -4.96210       -0.03270        4.41000
C         -6.29640        0.01200        4.06480
C         -6.68180        0.09030        2.72820
S         -8.40890        0.00010        2.37450
C         -8.44530       -0.45380        0.61700
C         -5.70530        0.22980        1.75080
C         -4.37020        0.19470        2.09780
C         -0.42900       -0.57970        2.68090
S          0.68140        0.54890        3.38460
C         -3.49070       -2.48680        1.85950
S         -4.14830       -2.72620        0.27070
C         -5.60020       -3.46690        0.89540
C         -5.54250       -3.50650        2.28330
C         -4.35580       -2.96700        2.82130
O         -4.08660       -2.95150        4.15510
C         -5.22040       -3.28120        4.93870
C         -5.99920       -4.44360        4.32520
O         -6.49440       -4.08820        3.04530
C         -6.67780       -3.86610        0.08110
C         -6.65930       -4.11800       -1.26020
C         -7.89240       -3.98380       -2.07250
O         -9.02770       -3.87140       -1.66370
C         -7.42790       -3.92620       -3.47460
C         -8.20160       -3.69530       -4.61010
C         -7.48470       -3.67590       -5.78280
C         -6.09800       -3.87290       -5.82970
C         -5.32220       -4.10950       -4.71980
C         -6.03220       -4.12970       -3.51670
C         -5.56150       -4.38780       -2.15900
C         -4.39290       -5.02630       -1.82270
C         -4.15820       -5.55740       -0.53680
N         -3.96710       -6.05790        0.47880
C         -3.34000       -5.29760       -2.71280
N         -2.43020       -5.51470       -3.38100
C         -6.04450       -3.70970       -7.32860
C         -5.52480       -2.35650       -7.85830
C         -6.03060       -2.30630       -9.28190
C         -7.34360       -2.11970       -9.23720
C         -7.74720       -2.04090       -7.78250
C         -6.49720       -1.37060       -7.19800
C         -7.59060       -3.49090       -7.27660
H          7.42900        2.05730        1.61880
H          3.81710        6.92290       -0.03270
H          8.80110        6.77940       -0.92560
H          7.27610        9.02610       -3.00810
H          8.52980       10.36600       -1.07780
H          7.48600       12.10050       -2.75340
H          4.87100       12.21830       -2.29970
H          4.30470       10.55810       -0.34370
H          6.60990        9.57650        0.62780
H          6.67300       11.35120        0.53150
H          4.71280        9.14160       -2.56340
H          7.73100       -1.95010        2.58740
H          6.65820       -1.40380        3.91130
H          5.73420       -2.34020        1.14870
H          5.56890       -3.28260        2.66180
H          1.95880        1.12540       -0.20640
H          3.63490        2.58900       -1.17050
H          4.82240        3.36160       -3.25020
H          5.21990        4.08920       -1.66230
H          6.38480        4.17650       -2.99790
H          6.23990       -0.75600       -1.73020
H          4.51610       -2.24640       -0.77680
H          2.01120       -3.55160        1.93170
H          1.43720       -5.85440        1.23390
H         -0.32070       -6.32960       -3.14800
H          1.37590       -6.75150       -3.57820
H          0.19490       -8.02790       -3.21970
H          1.35970       -4.58280       -2.84840
H          1.92610       -2.31070       -2.15290
H         -0.91300       -1.47860        5.29200
H          0.05680       -0.67020        7.37670
H          0.63550       -0.18300        9.57060
H          1.49150        1.27350       10.11730
H          1.67810        0.73350        8.43310
H         -2.24050        2.92330        7.05010
H         -3.19920        2.11320        4.92870
H         -4.67270       -0.13300        5.44550
H         -7.06000       -0.03920        4.82670
H         -8.21510        0.40880       -0.00210
H         -7.74710       -1.26580        0.43560
H         -9.45810       -0.78900        0.41660
H         -5.97180        0.36200        0.71460
H         -3.62140        0.30370        1.32770
H         -4.83900       -3.54100        5.92670
H         -5.88010       -2.40670        5.01010
H         -5.34590       -5.32030        4.22940
H         -6.87020       -4.69310        4.93110
H         -7.64870       -3.89310        0.56580
H         -9.26860       -3.55580       -4.53540
H         -4.25530       -4.25770       -4.76150
H         -5.65760       -4.56150       -7.88460
H         -4.46160       -2.18770       -7.71020
H         -5.41040       -2.46260      -10.14490
H         -8.03900       -2.08890      -10.05530
H         -8.70890       -1.58360       -7.56580
H         -6.36550       -0.35410       -7.56560
H         -6.46010       -1.37230       -6.11010
H         -8.23420       -4.19590       -7.79940
