
  xtb     02042213423D
 energy: -282.362734311291 gnorm: 0.000532750904 xtb: 6.4.1 (unknown)
164183  0     0  0            999 V2000
    5.5127   -5.0870   -0.0377 C   0  0  0  0  0  0  0  0  0  0  0  0
    5.8061   -5.3009   -1.3606 C   0  0  0  0  0  0  0  0  0  0  0  0
    4.9709   -4.8744   -2.4864 C   0  0  0  0  0  0  0  0  0  0  0  0
    3.8870   -4.3145   -2.4325 O   0  0  0  0  0  0  0  0  0  0  0  0
    5.6650   -5.3067   -3.7071 C   0  0  0  0  0  0  0  0  0  0  0  0
    5.2520   -5.1069   -5.0219 C   0  0  0  0  0  0  0  0  0  0  0  0
    6.1039   -5.6362   -5.9609 C   0  0  0  0  0  0  0  0  0  0  0  0
    7.2794   -6.3162   -5.6163 C   0  0  0  0  0  0  0  0  0  0  0  0
    7.7017   -6.5127   -4.3225 C   0  0  0  0  0  0  0  0  0  0  0  0
    6.8500   -5.9818   -3.3508 C   0  0  0  0  0  0  0  0  0  0  0  0
    6.9651   -5.9848   -1.8931 C   0  0  0  0  0  0  0  0  0  0  0  0
    8.0200   -6.4990   -1.1821 C   0  0  0  0  0  0  0  0  0  0  0  0
    8.1684   -6.4400    0.2178 C   0  0  0  0  0  0  0  0  0  0  0  0
    8.3794   -6.4148    1.3477 N   0  0  0  0  0  0  0  0  0  0  0  0
    9.1377   -7.1395   -1.7549 C   0  0  0  0  0  0  0  0  0  0  0  0
   10.0765   -7.6772   -2.1407 N   0  0  0  0  0  0  0  0  0  0  0  0
    7.6321   -6.5982   -7.0552 C   0  0  0  0  0  0  0  0  0  0  0  0
    7.3669   -8.0253   -7.5956 C   0  0  0  0  0  0  0  0  0  0  0  0
    6.2396   -8.5952   -6.7710 C   0  0  0  0  0  0  0  0  0  0  0  0
    5.1298   -7.9472   -7.0990 C   0  0  0  0  0  0  0  0  0  0  0  0
    5.4871   -6.9266   -8.1513 C   0  0  0  0  0  0  0  0  0  0  0  0
    6.6086   -7.6774   -8.8866 C   0  0  0  0  0  0  0  0  0  0  0  0
    6.3249   -5.8358   -7.4394 C   0  0  0  0  0  0  0  0  0  0  0  0
    4.5373   -4.2532    0.5254 C   0  0  0  0  0  0  0  0  0  0  0  0
    4.4582   -3.9993    1.8942 C   0  0  0  0  0  0  0  0  0  0  0  0
    3.5941   -2.9715    2.2271 C   0  0  0  0  0  0  0  0  0  0  0  0
    3.3505   -2.4232    3.8952 S   0  0  0  0  0  0  0  0  0  0  0  0
    1.9419   -3.4925    4.3752 C   0  0  0  0  0  0  0  0  0  0  0  0
    2.3380   -4.9497    4.4894 C   0  0  0  0  0  0  0  0  0  0  0  0
    3.0197   -2.3613    1.1078 C   0  0  0  0  0  0  0  0  0  0  0  0
    3.4208   -3.2286   -0.3432 S   0  0  0  0  0  0  0  0  0  0  0  0
    2.2316   -1.1876    1.0848 C   0  0  0  0  0  0  0  0  0  0  0  0
    2.0611   -0.2445    0.0613 C   0  0  0  0  0  0  0  0  0  0  0  0
    2.7690   -0.1526   -1.1169 N   0  0  0  0  0  0  0  0  0  0  0  0
    2.1375    0.4421   -2.2275 C   0  0  0  0  0  0  0  0  0  0  0  0
    2.8014    1.4122   -2.9699 C   0  0  0  0  0  0  0  0  0  0  0  0
    2.1845    2.0167   -4.0471 C   0  0  0  0  0  0  0  0  0  0  0  0
    0.8886    1.6582   -4.3959 C   0  0  0  0  0  0  0  0  0  0  0  0
   -0.0071    2.3687   -5.7375 S   0  0  0  0  0  0  0  0  0  0  0  0
    1.0857    3.6835   -6.3485 C   0  0  0  0  0  0  0  0  0  0  0  0
    0.2283    0.6719   -3.6643 C   0  0  0  0  0  0  0  0  0  0  0  0
    0.8451    0.0674   -2.5924 C   0  0  0  0  0  0  0  0  0  0  0  0
    4.0838   -0.6039   -1.2589 C   0  0  0  0  0  0  0  0  0  0  0  0
    4.4947   -1.1627   -2.4726 C   0  0  0  0  0  0  0  0  0  0  0  0
    5.7344   -1.7469   -2.5833 C   0  0  0  0  0  0  0  0  0  0  0  0
    6.5904   -1.8001   -1.4852 C   0  0  0  0  0  0  0  0  0  0  0  0
    8.0799   -2.7244   -1.6924 S   0  0  0  0  0  0  0  0  0  0  0  0
    8.6985   -2.9185    0.0024 C   0  0  0  0  0  0  0  0  0  0  0  0
    6.2281   -1.1590   -0.3072 C   0  0  0  0  0  0  0  0  0  0  0  0
    4.9910   -0.5549   -0.2016 C   0  0  0  0  0  0  0  0  0  0  0  0
    1.0724    0.7048    0.4183 C   0  0  0  0  0  0  0  0  0  0  0  0
    0.4163    2.1131   -0.3558 S   0  0  0  0  0  0  0  0  0  0  0  0
   -0.6512    2.3844    1.0090 C   0  0  0  0  0  0  0  0  0  0  0  0
   -0.4022    1.5061    2.0695 C   0  0  0  0  0  0  0  0  0  0  0  0
   -0.8669    1.6454    3.3552 N   0  0  0  0  0  0  0  0  0  0  0  0
   -0.9905    0.5054    4.1595 C   0  0  0  0  0  0  0  0  0  0  0  0
   -1.5121   -0.6716    3.6294 C   0  0  0  0  0  0  0  0  0  0  0  0
   -1.5740   -1.8201    4.3934 C   0  0  0  0  0  0  0  0  0  0  0  0
   -1.1161   -1.8052    5.7041 C   0  0  0  0  0  0  0  0  0  0  0  0
   -1.0893   -3.2171    6.7612 S   0  0  0  0  0  0  0  0  0  0  0  0
   -1.7515   -4.5549    5.7282 C   0  0  0  0  0  0  0  0  0  0  0  0
   -0.6329   -0.6160    6.2504 C   0  0  0  0  0  0  0  0  0  0  0  0
   -0.5718    0.5289    5.4899 C   0  0  0  0  0  0  0  0  0  0  0  0
   -1.2211    2.9065    3.8517 C   0  0  0  0  0  0  0  0  0  0  0  0
   -0.4980    4.0402    3.4855 C   0  0  0  0  0  0  0  0  0  0  0  0
   -0.9540    5.3010    3.8065 C   0  0  0  0  0  0  0  0  0  0  0  0
   -2.1430    5.4534    4.5131 C   0  0  0  0  0  0  0  0  0  0  0  0
   -2.8936    7.0107    4.8353 S   0  0  0  0  0  0  0  0  0  0  0  0
   -2.0130    8.1408    3.7234 C   0  0  0  0  0  0  0  0  0  0  0  0
   -2.7963    4.3178    4.9916 C   0  0  0  0  0  0  0  0  0  0  0  0
   -2.3395    3.0588    4.6716 C   0  0  0  0  0  0  0  0  0  0  0  0
    0.5444    0.5290    1.6884 C   0  0  0  0  0  0  0  0  0  0  0  0
    1.2801   -0.7924    2.5149 S   0  0  0  0  0  0  0  0  0  0  0  0
   -1.6279    3.4151    0.9460 C   0  0  0  0  0  0  0  0  0  0  0  0
   -2.9072    3.2977    1.5275 C   0  0  0  0  0  0  0  0  0  0  0  0
   -3.8639    4.3836    1.5373 C   0  0  0  0  0  0  0  0  0  0  0  0
   -4.9792    4.0447    2.1843 N   0  0  0  0  0  0  0  0  0  0  0  0
   -4.8795    2.5144    2.6390 S   0  0  0  0  0  4  0  0  0  0  0  0
   -3.4001    2.1985    2.1063 N   0  0  0  0  0  0  0  0  0  0  0  0
   -3.5902    5.6406    0.9593 C   0  0  0  0  0  0  0  0  0  0  0  0
   -2.3043    5.7600    0.3910 C   0  0  0  0  0  0  0  0  0  0  0  0
   -1.8047    6.8554   -0.1850 N   0  0  0  0  0  0  0  0  0  0  0  0
   -0.3323    6.5318   -0.7441 S   0  0  0  0  0  0  0  0  0  0  0  0
   -0.2385    4.9949   -0.2885 N   0  0  0  0  0  0  0  0  0  0  0  0
   -1.3718    4.6547    0.3271 C   0  0  0  0  0  0  0  0  0  0  0  0
   -4.5012    6.7312    0.9593 C   0  0  0  0  0  0  0  0  0  0  0  0
   -5.8571    6.6162    0.8525 C   0  0  0  0  0  0  0  0  0  0  0  0
   -6.5561    5.4355    0.2865 C   0  0  0  0  0  0  0  0  0  0  0  0
   -6.0666    4.4196   -0.1613 O   0  0  0  0  0  0  0  0  0  0  0  0
   -7.9817    5.8110    0.2199 C   0  0  0  0  0  0  0  0  0  0  0  0
   -9.0303    5.0168   -0.2387 C   0  0  0  0  0  0  0  0  0  0  0  0
  -10.2570    5.6347   -0.2048 C   0  0  0  0  0  0  0  0  0  0  0  0
  -10.4276    6.9527    0.2392 C   0  0  0  0  0  0  0  0  0  0  0  0
   -9.4003    7.7518    0.6809 C   0  0  0  0  0  0  0  0  0  0  0  0
   -8.1433    7.1383    0.6633 C   0  0  0  0  0  0  0  0  0  0  0  0
   -6.8370    7.6605    1.0573 C   0  0  0  0  0  0  0  0  0  0  0  0
   -6.6014    8.9020    1.5924 C   0  0  0  0  0  0  0  0  0  0  0  0
   -5.3510    9.3709    2.0400 C   0  0  0  0  0  0  0  0  0  0  0  0
   -4.3822    9.8375    2.4454 N   0  0  0  0  0  0  0  0  0  0  0  0
   -7.5867    9.8921    1.7837 C   0  0  0  0  0  0  0  0  0  0  0  0
   -8.3331   10.7474    1.9587 N   0  0  0  0  0  0  0  0  0  0  0  0
  -11.9178    6.9235    0.0046 C   0  0  0  0  0  0  0  0  0  0  0  0
  -12.8085    6.7514    1.2533 C   0  0  0  0  0  0  0  0  0  0  0  0
  -14.1309    6.2812    0.6921 C   0  0  0  0  0  0  0  0  0  0  0  0
  -13.9700    5.0330    0.2717 C   0  0  0  0  0  0  0  0  0  0  0  0
  -12.5359    4.6386    0.5418 C   0  0  0  0  0  0  0  0  0  0  0  0
  -12.2824    5.4309    1.8308 C   0  0  0  0  0  0  0  0  0  0  0  0
  -11.7274    5.4536   -0.4899 C   0  0  0  0  0  0  0  0  0  0  0  0
    6.1487   -5.5629    0.6993 H   0  0  0  0  0  0  0  0  0  0  0  0
    4.3372   -4.5783   -5.2411 H   0  0  0  0  0  0  0  0  0  0  0  0
    8.6104   -7.0359   -4.0767 H   0  0  0  0  0  0  0  0  0  0  0  0
    8.5805   -6.1933   -7.4025 H   0  0  0  0  0  0  0  0  0  0  0  0
    8.2548   -8.6450   -7.6874 H   0  0  0  0  0  0  0  0  0  0  0  0
    6.3712   -9.3482   -6.0162 H   0  0  0  0  0  0  0  0  0  0  0  0
    4.1491   -8.0502   -6.6727 H   0  0  0  0  0  0  0  0  0  0  0  0
    4.6636   -6.5454   -8.7497 H   0  0  0  0  0  0  0  0  0  0  0  0
    6.2490   -8.5592   -9.4148 H   0  0  0  0  0  0  0  0  0  0  0  0
    7.1783   -7.0471   -9.5681 H   0  0  0  0  0  0  0  0  0  0  0  0
    6.4202   -4.9301   -8.0353 H   0  0  0  0  0  0  0  0  0  0  0  0
    5.0587   -4.5216    2.6183 H   0  0  0  0  0  0  0  0  0  0  0  0
    1.1505   -3.3387    3.6413 H   0  0  0  0  0  0  0  0  0  0  0  0
    1.6229   -3.0895    5.3354 H   0  0  0  0  0  0  0  0  0  0  0  0
    2.6395   -5.3450    3.5210 H   0  0  0  0  0  0  0  0  0  0  0  0
    1.4970   -5.5353    4.8561 H   0  0  0  0  0  0  0  0  0  0  0  0
    3.1660   -5.0619    5.1851 H   0  0  0  0  0  0  0  0  0  0  0  0
    3.8061    1.6974   -2.6948 H   0  0  0  0  0  0  0  0  0  0  0  0
    2.7232    2.7695   -4.5990 H   0  0  0  0  0  0  0  0  0  0  0  0
    0.5305    4.1799   -7.1384 H   0  0  0  0  0  0  0  0  0  0  0  0
    1.2988    4.3870   -5.5490 H   0  0  0  0  0  0  0  0  0  0  0  0
    1.9976    3.2553   -6.7544 H   0  0  0  0  0  0  0  0  0  0  0  0
   -0.7725    0.3883   -3.9508 H   0  0  0  0  0  0  0  0  0  0  0  0
    0.3343   -0.7004   -2.0312 H   0  0  0  0  0  0  0  0  0  0  0  0
    3.8127   -1.1841   -3.3078 H   0  0  0  0  0  0  0  0  0  0  0  0
    6.0389   -2.2098   -3.5097 H   0  0  0  0  0  0  0  0  0  0  0  0
    9.5257   -3.6190   -0.0607 H   0  0  0  0  0  0  0  0  0  0  0  0
    9.0555   -1.9665    0.3840 H   0  0  0  0  0  0  0  0  0  0  0  0
    7.9144   -3.3288    0.6326 H   0  0  0  0  0  0  0  0  0  0  0  0
    6.8938   -1.1322    0.5402 H   0  0  0  0  0  0  0  0  0  0  0  0
    4.7139   -0.0742    0.7247 H   0  0  0  0  0  0  0  0  0  0  0  0
   -1.8776   -0.6768    2.6137 H   0  0  0  0  0  0  0  0  0  0  0  0
   -1.9820   -2.7159    3.9543 H   0  0  0  0  0  0  0  0  0  0  0  0
   -2.7798   -4.3391    5.4535 H   0  0  0  0  0  0  0  0  0  0  0  0
   -1.7166   -5.4453    6.3482 H   0  0  0  0  0  0  0  0  0  0  0  0
   -1.1268   -4.6908    4.8504 H   0  0  0  0  0  0  0  0  0  0  0  0
   -0.2928   -0.6100    7.2745 H   0  0  0  0  0  0  0  0  0  0  0  0
   -0.1829    1.4435    5.9111 H   0  0  0  0  0  0  0  0  0  0  0  0
    0.4167    3.9334    2.9211 H   0  0  0  0  0  0  0  0  0  0  0  0
   -0.3789    6.1592    3.4982 H   0  0  0  0  0  0  0  0  0  0  0  0
   -1.9561    7.7018    2.7319 H   0  0  0  0  0  0  0  0  0  0  0  0
   -1.0257    8.3643    4.1177 H   0  0  0  0  0  0  0  0  0  0  0  0
   -2.6158    9.0433    3.6833 H   0  0  0  0  0  0  0  0  0  0  0  0
   -3.6886    4.4401    5.5859 H   0  0  0  0  0  0  0  0  0  0  0  0
   -2.8748    2.1832    5.0076 H   0  0  0  0  0  0  0  0  0  0  0  0
   -4.0497    7.7151    0.9969 H   0  0  0  0  0  0  0  0  0  0  0  0
   -8.8521    4.0091   -0.5802 H   0  0  0  0  0  0  0  0  0  0  0  0
   -9.5467    8.7681    1.0062 H   0  0  0  0  0  0  0  0  0  0  0  0
  -12.3035    7.6627   -0.6949 H   0  0  0  0  0  0  0  0  0  0  0  0
  -12.8355    7.6127    1.9150 H   0  0  0  0  0  0  0  0  0  0  0  0
  -15.0030    6.9031    0.6097 H   0  0  0  0  0  0  0  0  0  0  0  0
  -14.6806    4.4042   -0.2321 H   0  0  0  0  0  0  0  0  0  0  0  0
  -12.3155    3.5745    0.5557 H   0  0  0  0  0  0  0  0  0  0  0  0
  -11.2375    5.4639    2.1331 H   0  0  0  0  0  0  0  0  0  0  0  0
  -12.8907    5.0734    2.6601 H   0  0  0  0  0  0  0  0  0  0  0  0
  -11.9859    5.2128   -1.5195 H   0  0  0  0  0  0  0  0  0  0  0  0
  1  2  2  0  0  0  0
  2  3  1  0  0  0  0
  3  4  2  0  0  0  0
  3  5  1  0  0  0  0
  5  6  2  0  0  0  0
  6  7  1  0  0  0  0
  7  8  2  0  0  0  0
  8  9  1  0  0  0  0
  9 10  2  0  0  0  0
 10 11  1  0  0  0  0
 11 12  2  0  0  0  0
 12 13  1  0  0  0  0
 13 14  3  0  0  0  0
 12 15  1  0  0  0  0
 15 16  3  0  0  0  0
  8 17  1  0  0  0  0
 17 18  1  0  0  0  0
 18 19  1  0  0  0  0
 19 20  2  0  0  0  0
 20 21  1  0  0  0  0
 21 22  1  0  0  0  0
 21 23  1  0  0  0  0
  1 24  1  0  0  0  0
 24 25  2  0  0  0  0
 25 26  1  0  0  0  0
 26 27  1  0  0  0  0
 27 28  1  0  0  0  0
 28 29  1  0  0  0  0
 26 30  2  0  0  0  0
 30 31  1  0  0  0  0
 30 32  1  0  0  0  0
 32 33  2  0  0  0  0
 33 34  1  0  0  0  0
 34 35  1  0  0  0  0
 35 36  2  0  0  0  0
 36 37  1  0  0  0  0
 37 38  2  0  0  0  0
 38 39  1  0  0  0  0
 39 40  1  0  0  0  0
 38 41  1  0  0  0  0
 41 42  2  0  0  0  0
 34 43  1  0  0  0  0
 43 44  2  0  0  0  0
 44 45  1  0  0  0  0
 45 46  2  0  0  0  0
 46 47  1  0  0  0  0
 47 48  1  0  0  0  0
 46 49  1  0  0  0  0
 49 50  2  0  0  0  0
 33 51  1  0  0  0  0
 51 52  1  0  0  0  0
 52 53  1  0  0  0  0
 53 54  2  0  0  0  0
 54 55  1  0  0  0  0
 55 56  1  0  0  0  0
 56 57  2  0  0  0  0
 57 58  1  0  0  0  0
 58 59  2  0  0  0  0
 59 60  1  0  0  0  0
 60 61  1  0  0  0  0
 59 62  1  0  0  0  0
 62 63  2  0  0  0  0
 55 64  1  0  0  0  0
 64 65  2  0  0  0  0
 65 66  1  0  0  0  0
 66 67  2  0  0  0  0
 67 68  1  0  0  0  0
 68 69  1  0  0  0  0
 67 70  1  0  0  0  0
 70 71  2  0  0  0  0
 54 72  1  0  0  0  0
 72 73  1  0  0  0  0
 53 74  1  0  0  0  0
 74 75  2  0  0  0  0
 75 76  1  0  0  0  0
 76 77  1  0  0  0  0
 77 78  2  0  0  0  0
 78 79  2  0  0  0  0
 76 80  2  0  0  0  0
 80 81  1  0  0  0  0
 81 82  2  0  0  0  0
 82 83  1  0  0  0  0
 83 84  1  0  0  0  0
 84 85  2  0  0  0  0
 80 86  1  0  0  0  0
 86 87  2  0  0  0  0
 87 88  1  0  0  0  0
 88 89  2  0  0  0  0
 88 90  1  0  0  0  0
 90 91  2  0  0  0  0
 91 92  1  0  0  0  0
 92 93  2  0  0  0  0
 93 94  1  0  0  0  0
 94 95  2  0  0  0  0
 95 96  1  0  0  0  0
 96 97  2  0  0  0  0
 97 98  1  0  0  0  0
 98 99  3  0  0  0  0
 97100  1  0  0  0  0
100101  3  0  0  0  0
 93102  1  0  0  0  0
102103  1  0  0  0  0
103104  1  0  0  0  0
104105  2  0  0  0  0
105106  1  0  0  0  0
106107  1  0  0  0  0
106108  1  0  0  0  0
 11  2  1  0  0  0  0
 23 17  1  0  0  0  0
 31 24  1  0  0  0  0
 73 32  1  0  0  0  0
 85 74  1  0  0  0  0
 96 87  1  0  0  0  0
108102  1  0  0  0  0
 10  5  1  0  0  0  0
 22 18  1  0  0  0  0
 42 35  1  0  0  0  0
 50 43  1  0  0  0  0
 72 51  2  0  0  0  0
 79 75  1  0  0  0  0
 85 81  1  0  0  0  0
 95 90  1  0  0  0  0
107103  1  0  0  0  0
 23  7  1  0  0  0  0
 63 56  1  0  0  0  0
 71 64  1  0  0  0  0
108 92  1  0  0  0  0
  1109  1  0  0  0  0
  6110  1  0  0  0  0
  9111  1  0  0  0  0
 17112  1  0  0  0  0
 18113  1  0  0  0  0
 19114  1  0  0  0  0
 20115  1  0  0  0  0
 21116  1  0  0  0  0
 22117  1  0  0  0  0
 22118  1  0  0  0  0
 23119  1  0  0  0  0
 25120  1  0  0  0  0
 28121  1  0  0  0  0
 28122  1  0  0  0  0
 29123  1  0  0  0  0
 29124  1  0  0  0  0
 29125  1  0  0  0  0
 36126  1  0  0  0  0
 37127  1  0  0  0  0
 40128  1  0  0  0  0
 40129  1  0  0  0  0
 40130  1  0  0  0  0
 41131  1  0  0  0  0
 42132  1  0  0  0  0
 44133  1  0  0  0  0
 45134  1  0  0  0  0
 48135  1  0  0  0  0
 48136  1  0  0  0  0
 48137  1  0  0  0  0
 49138  1  0  0  0  0
 50139  1  0  0  0  0
 57140  1  0  0  0  0
 58141  1  0  0  0  0
 61142  1  0  0  0  0
 61143  1  0  0  0  0
 61144  1  0  0  0  0
 62145  1  0  0  0  0
 63146  1  0  0  0  0
 65147  1  0  0  0  0
 66148  1  0  0  0  0
 69149  1  0  0  0  0
 69150  1  0  0  0  0
 69151  1  0  0  0  0
 70152  1  0  0  0  0
 71153  1  0  0  0  0
 86154  1  0  0  0  0
 91155  1  0  0  0  0
 94156  1  0  0  0  0
102157  1  0  0  0  0
103158  1  0  0  0  0
104159  1  0  0  0  0
105160  1  0  0  0  0
106161  1  0  0  0  0
107162  1  0  0  0  0
107163  1  0  0  0  0
108164  1  0  0  0  0
M  END
