169

C          7.76970       -2.11070        0.51930
C          8.53190       -1.18640        1.17610
C          8.12120        0.18690        1.49100
O          7.03680        0.70070        1.27660
C          9.29040        0.83790        2.10220
C          9.38680        2.16210        2.52510
C         10.61900        2.49690        3.03280
C         11.67740        1.58200        3.11640
C         11.59290        0.27140        2.70950
C         10.34770       -0.09160        2.18710
C          9.88810       -1.37250        1.65420
C         10.60190       -2.54230        1.66320
C         11.91040       -2.67690        2.17340
N         12.97270       -2.86590        2.56620
C         10.14330       -3.78930        1.19210
N          9.85870       -4.84490        0.83720
C         12.61900        2.60300        3.70490
C         13.66660        3.20640        2.74520
C         14.10280        4.47700        3.43850
C         13.10060        5.34320        3.36160
C         11.97010        4.67280        2.61470
C         12.77660        3.79920        1.64500
C         11.43850        3.62250        3.61320
C          6.42400       -2.04500        0.11780
C          5.78700       -3.11340       -0.50020
C          4.41970       -2.93190       -0.67080
S          3.40330       -4.15000       -1.44240
C          2.50000       -3.11750       -2.66610
C          1.68560       -4.02130       -3.56990
C          3.98110       -1.71380       -0.16650
S          5.29730       -0.74500        0.41300
C          2.62710       -1.30390        0.04210
C          1.64080       -2.05210        0.67310
N          1.84830       -3.29550        1.24720
C          0.84290       -4.26090        1.18050
C         -0.01600       -4.31190        0.08120
C         -1.01740       -5.25340        0.02180
C         -1.18670       -6.17240        1.05510
S         -2.51540       -7.32330        0.86890
C         -2.43680       -8.33380        2.37380
C         -0.32940       -6.13380        2.14590
C          0.67260       -5.18520        2.20740
C          3.07570       -3.55080        1.88190
C          3.69120       -2.54780        2.63220
C          4.95840       -2.73210        3.13570
C          5.64020       -3.92620        2.91090
S          7.30610       -3.99300        3.49500
C          7.81170       -5.70870        3.19570
C          5.00200       -4.95560        2.23270
C          3.72890       -4.76990        1.72720
C          0.42960       -1.32250        0.75840
S         -1.16510       -1.69820        1.32170
C         -1.66920       -0.05710        0.98800
C         -0.68950        0.69830        0.33980
N         -0.89630        1.92580       -0.25250
C          0.14830        2.85820       -0.27780
C          1.01800        2.96820        0.80830
C          2.06060        3.86470        0.77260
C          2.25420        4.68090       -0.34120
S          3.62490        5.78630       -0.26910
C          3.55400        6.68280       -1.84640
C          1.37930        4.58720       -1.41600
C          0.33840        3.68020       -1.38450
C         -2.13990        2.22880       -0.82980
C         -2.69930        3.50000       -0.69580
C         -3.96230        3.75830       -1.18460
C         -4.69240        2.75730       -1.81990
S         -6.33450        3.15070       -2.34120
C         -6.62490        1.96160       -3.68300
C         -4.12400        1.50110       -1.99220
C         -2.85850        1.24540       -1.50830
C          0.51750       -0.03510        0.24790
S          2.09960        0.32050       -0.35910
C         -2.98990        0.36220        1.32450
C         -3.29550        1.67710        1.67690
F         -2.30000        2.53410        1.97950
C         -4.60420        2.12840        1.72980
F         -4.82460        3.42830        1.98020
C         -5.68720        1.29760        1.43720
C         -5.41080       -0.09480        1.31940
N         -6.42430       -0.98000        1.30160
C         -6.13760       -2.25000        1.17100
O         -7.11100       -3.15540        1.15260
C         -8.44280       -2.65810        1.24690
C         -9.39350       -3.83980        1.19650
C         -4.78550       -2.72040        1.06840
N         -3.80620       -1.86580        1.13360
C         -4.07620       -0.55330        1.27110
C         -4.48590       -4.16880        0.93000
C         -6.99880        1.84350        1.32930
C         -7.97450        1.40030        0.48630
C         -7.76230        0.54490       -0.70220
O         -6.74010        0.02040       -1.09990
C         -9.05480        0.54000       -1.42190
C         -9.37780       -0.09830       -2.58460
C        -10.67170        0.06970       -3.12650
C        -11.05460       -0.56550       -4.32350
C        -12.30970       -0.37750       -4.83080
F        -12.67120       -0.98230       -5.97170
C        -13.23440        0.45090       -4.16480
F        -14.45810        0.61580       -4.68570
C        -12.89180        1.08010       -3.00090
C        -11.60580        0.90660       -2.45110
C        -11.24430        1.54880       -1.24460
C         -9.98760        1.36210       -0.73270
C         -9.34800        1.86520        0.47790
C         -9.97400        2.56460        1.47570
C         -9.38280        2.93140        2.70400
N         -8.99340        3.23630        3.74000
C        -11.32480        2.96680        1.42740
N        -12.41740        3.31910        1.44110
H          8.23270       -3.06160        0.28690
H          8.54630        2.83300        2.44110
H         12.41650       -0.41900        2.78190
H         13.02730        2.36380        4.68480
H         14.45210        2.52070        2.43990
H         15.04320        4.59150        3.94480
H         13.03650        6.32580        3.79090
H         11.21020        5.32330        2.19020
H         13.34530        4.39360        0.93180
H         12.18010        3.06210        1.11060
H         11.05780        4.06310        4.53260
H          6.30140       -4.00960       -0.79800
H          3.24830       -2.55900       -3.22800
H          1.86310       -2.42180       -2.12060
H          0.97730       -4.60500       -2.98570
H          1.13690       -3.42280       -4.29420
H          2.33650       -4.70890       -4.10450
H          0.11210       -3.61570       -0.73250
H         -1.67650       -5.29560       -0.83210
H         -1.48600       -8.85650        2.42170
H         -2.59010       -7.70930        3.24900
H         -3.24680       -9.05140        2.28630
H         -0.43290       -6.83100        2.96150
H          1.32730       -5.15540        3.06550
H          3.17920       -1.61150        2.79770
H          5.44360       -1.94510        3.69240
H          7.88910       -5.89390        2.12830
H          7.11200       -6.38640        3.67540
H          8.79300       -5.80680        3.64960
H          5.49510       -5.89860        2.06220
H          3.25430       -5.56220        1.16900
H          0.85650        2.35930        1.68450
H          2.73570        3.95020        1.60960
H          2.61910        7.23020       -1.92210
H          3.67670        5.99010       -2.67370
H          4.38650        7.37900       -1.82310
H          1.49990        5.20720       -2.28950
H         -0.33120        3.60340       -2.22840
H         -2.15100        4.27160       -0.17730
H         -4.40430        4.73410       -1.05640
H         -5.82430        2.04240       -4.41190
H         -6.68890        0.95680       -3.27790
H         -7.57230        2.24380       -4.13160
H         -4.66630        0.70840       -2.47840
H         -2.42940        0.26320       -1.64030
H         -8.55010       -2.09630        2.18180
H         -8.62200       -1.96660        0.41520
H        -10.41830       -3.48800        1.26890
H         -9.26810       -4.38190        0.26320
H         -9.19120       -4.51780        2.02100
H         -4.90210       -4.54930       -0.00110
H         -3.41090       -4.32020        0.94150
H         -4.95060       -4.72420        1.74230
H         -7.19400        2.71910        1.93640
H         -8.66010       -0.72920       -3.08780
H        -10.35840       -1.20240       -4.84670
H        -13.61180        1.71030       -2.50270
H        -11.97120        2.17890       -0.75850
