
  xtb     02052217263D
 energy: -285.018046636633 gnorm: 0.000258173149 xtb: 6.4.1 (unknown)
170188  0     0  0            999 V2000
    0.3590    4.0625    7.9369 C   0  0  0  0  0  0  0  0  0  0  0  0
    1.5986    3.7050    8.3919 C   0  0  0  0  0  0  0  0  0  0  0  0
    2.6133    2.9625    7.6368 C   0  0  0  0  0  0  0  0  0  0  0  0
    2.5774    2.6461    6.4572 O   0  0  0  0  0  0  0  0  0  0  0  0
    3.6940    2.6530    8.5826 C   0  0  0  0  0  0  0  0  0  0  0  0
    4.8487    1.9158    8.3255 C   0  0  0  0  0  0  0  0  0  0  0  0
    5.6728    1.7709    9.4154 C   0  0  0  0  0  0  0  0  0  0  0  0
    5.3742    2.3240   10.6682 C   0  0  0  0  0  0  0  0  0  0  0  0
    4.2430    3.0592   10.9331 C   0  0  0  0  0  0  0  0  0  0  0  0
    3.3862    3.2148    9.8391 C   0  0  0  0  0  0  0  0  0  0  0  0
    2.1033    3.9070    9.7394 C   0  0  0  0  0  0  0  0  0  0  0  0
    1.5126    4.6325   10.7409 C   0  0  0  0  0  0  0  0  0  0  0  0
    0.2880    5.3264   10.6433 C   0  0  0  0  0  0  0  0  0  0  0  0
   -0.6962    5.9192   10.6505 N   0  0  0  0  0  0  0  0  0  0  0  0
    2.0579    4.8072   12.0308 C   0  0  0  0  0  0  0  0  0  0  0  0
    2.4350    4.9944   13.0989 N   0  0  0  0  0  0  0  0  0  0  0  0
    6.6293    1.7749   11.2990 C   0  0  0  0  0  0  0  0  0  0  0  0
    6.4618    0.5282   12.1936 C   0  0  0  0  0  0  0  0  0  0  0  0
    7.8552   -0.0536   12.2675 C   0  0  0  0  0  0  0  0  0  0  0  0
    8.1370   -0.5782   11.0817 C   0  0  0  0  0  0  0  0  0  0  0  0
    6.9387   -0.3599   10.1862 C   0  0  0  0  0  0  0  0  0  0  0  0
    5.8126   -0.4666   11.2227 C   0  0  0  0  0  0  0  0  0  0  0  0
    6.9615    1.1575    9.9026 C   0  0  0  0  0  0  0  0  0  0  0  0
   -0.2340    3.8735    6.6754 C   0  0  0  0  0  0  0  0  0  0  0  0
   -1.5636    4.1964    6.4239 C   0  0  0  0  0  0  0  0  0  0  0  0
   -1.9819    3.8805    5.1326 C   0  0  0  0  0  0  0  0  0  0  0  0
   -3.5684    4.1478    4.4220 S   0  0  0  0  0  0  0  0  0  0  0  0
   -4.6155    4.4980    5.8791 C   0  0  0  0  0  0  0  0  0  0  0  0
   -4.8470    3.2663    6.7328 C   0  0  0  0  0  0  0  0  0  0  0  0
   -0.9511    3.3553    4.3674 C   0  0  0  0  0  0  0  0  0  0  0  0
    0.5181    3.2133    5.2478 S   0  0  0  0  0  0  0  0  0  0  0  0
   -1.0291    2.8485    3.0088 C   0  0  0  0  0  0  0  0  0  0  0  0
   -0.2047    3.3342    1.9770 C   0  0  0  0  0  0  0  0  0  0  0  0
    0.6732    4.3485    1.9437 N   0  0  0  0  0  0  0  0  0  0  0  0
    1.1152    4.3508    0.7189 N   0  0  0  0  0  0  0  0  0  0  0  0
    2.0814    5.3112    0.2658 C   0  0  0  0  0  0  0  0  0  0  0  0
    1.5732    6.7289    0.4912 C   0  0  0  0  0  0  0  0  0  0  0  0
    0.6432    3.4417   -0.0829 N   0  0  0  0  0  0  0  0  0  0  0  0
   -0.2200    2.7493    0.6739 C   0  0  0  0  0  0  0  0  0  0  0  0
   -0.9929    1.6102    0.3949 C   0  0  0  0  0  0  0  0  0  0  0  0
   -1.8169    1.2021    1.4236 C   0  0  0  0  0  0  0  0  0  0  0  0
   -1.8668    1.8034    2.6847 C   0  0  0  0  0  0  0  0  0  0  0  0
   -2.6017    0.1211    1.2314 F   0  0  0  0  0  0  0  0  0  0  0  0
   -0.8468    0.7715   -0.7938 C   0  0  0  0  0  0  0  0  0  0  0  0
   -0.1290   -0.4030   -0.7786 C   0  0  0  0  0  0  0  0  0  0  0  0
    0.6628   -0.7910    0.2983 N   0  0  0  0  0  0  0  0  0  0  0  0
    1.5476    0.1661    0.8260 C   0  0  0  0  0  0  0  0  0  0  0  0
    2.3557    0.8984   -0.0419 C   0  0  0  0  0  0  0  0  0  0  0  0
    3.1967    1.8721    0.4488 C   0  0  0  0  0  0  0  0  0  0  0  0
    3.2371    2.1407    1.8135 C   0  0  0  0  0  0  0  0  0  0  0  0
    4.3465    3.4143    2.3501 S   0  0  0  0  0  0  0  0  0  0  0  0
    3.4815    4.1349    3.7750 C   0  0  0  0  0  0  0  0  0  0  0  0
    2.4496    1.4025    2.6875 C   0  0  0  0  0  0  0  0  0  0  0  0
    1.6130    0.4193    2.1940 C   0  0  0  0  0  0  0  0  0  0  0  0
    0.6070   -2.0947    0.7845 C   0  0  0  0  0  0  0  0  0  0  0  0
   -0.5498   -2.8604    0.6269 C   0  0  0  0  0  0  0  0  0  0  0  0
   -0.5882   -4.1604    1.0776 C   0  0  0  0  0  0  0  0  0  0  0  0
    0.5173   -4.7243    1.7095 C   0  0  0  0  0  0  0  0  0  0  0  0
    0.3484   -6.3973    2.2572 S   0  0  0  0  0  0  0  0  0  0  0  0
    2.0391   -6.8722    2.7198 C   0  0  0  0  0  0  0  0  0  0  0  0
    1.6613   -3.9599    1.8896 C   0  0  0  0  0  0  0  0  0  0  0  0
    1.7074   -2.6607    1.4235 C   0  0  0  0  0  0  0  0  0  0  0  0
   -0.2912   -1.1128   -1.9917 C   0  0  0  0  0  0  0  0  0  0  0  0
    0.3461   -2.5883   -2.6034 S   0  0  0  0  0  0  0  0  0  0  0  0
   -0.5898   -2.3967   -4.0949 C   0  0  0  0  0  0  0  0  0  0  0  0
   -1.2846   -1.1707   -4.1304 C   0  0  0  0  0  0  0  0  0  0  0  0
   -1.9467   -0.6299   -5.1969 N   0  0  0  0  0  0  0  0  0  0  0  0
   -1.6687   -0.9685   -6.5264 C   0  0  0  0  0  0  0  0  0  0  0  0
   -2.7169   -1.1074   -7.4401 C   0  0  0  0  0  0  0  0  0  0  0  0
   -2.4656   -1.5091   -8.7322 C   0  0  0  0  0  0  0  0  0  0  0  0
   -1.1627   -1.7749   -9.1510 C   0  0  0  0  0  0  0  0  0  0  0  0
   -0.9771   -2.3728  -10.7957 S   0  0  0  0  0  0  0  0  0  0  0  0
    0.8112   -2.5927  -10.9992 C   0  0  0  0  0  0  0  0  0  0  0  0
   -0.1099   -1.5732   -8.2650 C   0  0  0  0  0  0  0  0  0  0  0  0
   -0.3636   -1.1767   -6.9673 C   0  0  0  0  0  0  0  0  0  0  0  0
   -2.9831    0.2967   -4.9560 C   0  0  0  0  0  0  0  0  0  0  0  0
   -3.9509    0.0359   -3.9923 C   0  0  0  0  0  0  0  0  0  0  0  0
   -4.9568    0.9493   -3.7460 C   0  0  0  0  0  0  0  0  0  0  0  0
   -5.0070    2.1369   -4.4644 C   0  0  0  0  0  0  0  0  0  0  0  0
   -6.2343    3.3813   -4.2304 S   0  0  0  0  0  0  0  0  0  0  0  0
   -7.1410    2.8268   -2.7584 C   0  0  0  0  0  0  0  0  0  0  0  0
   -4.0520    2.3863   -5.4494 C   0  0  0  0  0  0  0  0  0  0  0  0
   -3.0484    1.4763   -5.6948 C   0  0  0  0  0  0  0  0  0  0  0  0
   -1.1215   -0.4778   -2.9042 C   0  0  0  0  0  0  0  0  0  0  0  0
   -1.6838    1.0479   -2.2924 S   0  0  0  0  0  0  0  0  0  0  0  0
   -0.4963   -3.4370   -5.0254 C   0  0  0  0  0  0  0  0  0  0  0  0
   -1.4278   -3.7426   -5.9921 C   0  0  0  0  0  0  0  0  0  0  0  0
   -2.8643   -3.4401   -5.8788 C   0  0  0  0  0  0  0  0  0  0  0  0
   -3.4262   -2.8576   -4.9694 O   0  0  0  0  0  0  0  0  0  0  0  0
   -3.5045   -4.1031   -7.0347 C   0  0  0  0  0  0  0  0  0  0  0  0
   -4.8546   -4.0913   -7.3685 C   0  0  0  0  0  0  0  0  0  0  0  0
   -5.1484   -4.7513   -8.5388 C   0  0  0  0  0  0  0  0  0  0  0  0
   -4.1716   -5.3880   -9.3135 C   0  0  0  0  0  0  0  0  0  0  0  0
   -2.8372   -5.4251   -8.9848 C   0  0  0  0  0  0  0  0  0  0  0  0
   -2.5194   -4.7524   -7.8043 C   0  0  0  0  0  0  0  0  0  0  0  0
   -1.2212   -4.5284   -7.1754 C   0  0  0  0  0  0  0  0  0  0  0  0
    0.0021   -4.8543   -7.7099 C   0  0  0  0  0  0  0  0  0  0  0  0
    1.2323   -4.4329   -7.1691 C   0  0  0  0  0  0  0  0  0  0  0  0
    2.2710   -4.0785   -6.8273 N   0  0  0  0  0  0  0  0  0  0  0  0
    0.1928   -5.5644   -8.9092 C   0  0  0  0  0  0  0  0  0  0  0  0
    0.4353   -6.1266   -9.8819 N   0  0  0  0  0  0  0  0  0  0  0  0
   -5.1652   -5.8121  -10.3643 C   0  0  0  0  0  0  0  0  0  0  0  0
   -5.2014   -4.9982  -11.6813 C   0  0  0  0  0  0  0  0  0  0  0  0
   -4.7173   -3.6084  -11.3471 C   0  0  0  0  0  0  0  0  0  0  0  0
   -5.6564   -3.0192  -10.6186 C   0  0  0  0  0  0  0  0  0  0  0  0
   -6.7869   -4.0019  -10.4404 C   0  0  0  0  0  0  0  0  0  0  0  0
   -6.7136   -4.7431  -11.7847 C   0  0  0  0  0  0  0  0  0  0  0  0
   -6.2580   -5.1109   -9.4972 C   0  0  0  0  0  0  0  0  0  0  0  0
   -0.3065    4.5356    8.6489 H   0  0  0  0  0  0  0  0  0  0  0  0
    5.0420    1.5096    7.3449 H   0  0  0  0  0  0  0  0  0  0  0  0
    4.0308    3.4776   11.9025 H   0  0  0  0  0  0  0  0  0  0  0  0
    7.3104    2.5121   11.7193 H   0  0  0  0  0  0  0  0  0  0  0  0
    5.9565    0.7104   13.1380 H   0  0  0  0  0  0  0  0  0  0  0  0
    8.4919    0.0226   13.1291 H   0  0  0  0  0  0  0  0  0  0  0  0
    9.0561   -1.0278   10.7548 H   0  0  0  0  0  0  0  0  0  0  0  0
    6.8677   -0.9877    9.3021 H   0  0  0  0  0  0  0  0  0  0  0  0
    4.8372   -0.1549   10.8531 H   0  0  0  0  0  0  0  0  0  0  0  0
    5.7381   -1.4663   11.6473 H   0  0  0  0  0  0  0  0  0  0  0  0
    7.8657    1.4812    9.3908 H   0  0  0  0  0  0  0  0  0  0  0  0
   -2.1835    4.6404    7.1814 H   0  0  0  0  0  0  0  0  0  0  0  0
   -4.1608    5.3142    6.4385 H   0  0  0  0  0  0  0  0  0  0  0  0
   -5.5508    4.8512    5.4451 H   0  0  0  0  0  0  0  0  0  0  0  0
   -5.4945    3.5158    7.5709 H   0  0  0  0  0  0  0  0  0  0  0  0
   -5.3236    2.4853    6.1451 H   0  0  0  0  0  0  0  0  0  0  0  0
   -3.9087    2.8781    7.1236 H   0  0  0  0  0  0  0  0  0  0  0  0
    2.2462    5.1054   -0.7926 H   0  0  0  0  0  0  0  0  0  0  0  0
    3.0137    5.1518    0.8168 H   0  0  0  0  0  0  0  0  0  0  0  0
    2.3279    7.4436    0.1768 H   0  0  0  0  0  0  0  0  0  0  0  0
    0.6646    6.9051   -0.0796 H   0  0  0  0  0  0  0  0  0  0  0  0
    1.3588    6.8816    1.5456 H   0  0  0  0  0  0  0  0  0  0  0  0
   -2.5348    1.3866    3.4216 H   0  0  0  0  0  0  0  0  0  0  0  0
    2.3109    0.7048   -1.1027 H   0  0  0  0  0  0  0  0  0  0  0  0
    3.8269    2.4375   -0.2204 H   0  0  0  0  0  0  0  0  0  0  0  0
    2.4628    4.3759    3.4825 H   0  0  0  0  0  0  0  0  0  0  0  0
    4.0282    5.0392    4.0246 H   0  0  0  0  0  0  0  0  0  0  0  0
    3.4911    3.4524    4.6186 H   0  0  0  0  0  0  0  0  0  0  0  0
    2.4749    1.5963    3.7485 H   0  0  0  0  0  0  0  0  0  0  0  0
    0.9947   -0.1524    2.8705 H   0  0  0  0  0  0  0  0  0  0  0  0
   -1.4212   -2.4287    0.1589 H   0  0  0  0  0  0  0  0  0  0  0  0
   -1.4805   -4.7538    0.9507 H   0  0  0  0  0  0  0  0  0  0  0  0
    2.7100   -6.6975    1.8838 H   0  0  0  0  0  0  0  0  0  0  0  0
    2.3566   -6.3246    3.6026 H   0  0  0  0  0  0  0  0  0  0  0  0
    1.9942   -7.9335    2.9434 H   0  0  0  0  0  0  0  0  0  0  0  0
    2.5305   -4.3637    2.3833 H   0  0  0  0  0  0  0  0  0  0  0  0
    2.6087   -2.0798    1.5512 H   0  0  0  0  0  0  0  0  0  0  0  0
   -3.7300   -0.9213   -7.1181 H   0  0  0  0  0  0  0  0  0  0  0  0
   -3.2772   -1.6508   -9.4284 H   0  0  0  0  0  0  0  0  0  0  0  0
    1.1806   -3.3372  -10.3002 H   0  0  0  0  0  0  0  0  0  0  0  0
    0.9438   -2.9524  -12.0148 H   0  0  0  0  0  0  0  0  0  0  0  0
    1.3188   -1.6408  -10.8739 H   0  0  0  0  0  0  0  0  0  0  0  0
    0.9126   -1.7358   -8.5652 H   0  0  0  0  0  0  0  0  0  0  0  0
    0.4640   -1.0392   -6.2877 H   0  0  0  0  0  0  0  0  0  0  0  0
   -3.9243   -0.9018   -3.4601 H   0  0  0  0  0  0  0  0  0  0  0  0
   -5.6971    0.7170   -2.9983 H   0  0  0  0  0  0  0  0  0  0  0  0
   -6.4504    2.6929   -1.9311 H   0  0  0  0  0  0  0  0  0  0  0  0
   -7.6836    1.9111   -2.9745 H   0  0  0  0  0  0  0  0  0  0  0  0
   -7.8424    3.6234   -2.5302 H   0  0  0  0  0  0  0  0  0  0  0  0
   -4.1053    3.3062   -6.0111 H   0  0  0  0  0  0  0  0  0  0  0  0
   -2.3058    1.6752   -6.4533 H   0  0  0  0  0  0  0  0  0  0  0  0
    0.3801   -4.0681   -4.9333 H   0  0  0  0  0  0  0  0  0  0  0  0
   -5.5764   -3.5842   -6.7468 H   0  0  0  0  0  0  0  0  0  0  0  0
   -2.0967   -5.9263   -9.5857 H   0  0  0  0  0  0  0  0  0  0  0  0
   -5.2581   -6.8827  -10.5363 H   0  0  0  0  0  0  0  0  0  0  0  0
   -4.7155   -5.4829  -12.5237 H   0  0  0  0  0  0  0  0  0  0  0  0
   -3.7473   -3.2323  -11.6166 H   0  0  0  0  0  0  0  0  0  0  0  0
   -5.6373   -2.0461  -10.1626 H   0  0  0  0  0  0  0  0  0  0  0  0
   -7.7477   -3.5829  -10.1519 H   0  0  0  0  0  0  0  0  0  0  0  0
   -6.9779   -4.1092  -12.6299 H   0  0  0  0  0  0  0  0  0  0  0  0
   -7.3069   -5.6563  -11.8099 H   0  0  0  0  0  0  0  0  0  0  0  0
   -7.0574   -5.7279   -9.0909 H   0  0  0  0  0  0  0  0  0  0  0  0
  1  2  2  0  0  0  0
  2  3  1  0  0  0  0
  3  4  2  0  0  0  0
  3  5  1  0  0  0  0
  5  6  2  0  0  0  0
  6  7  1  0  0  0  0
  7  8  2  0  0  0  0
  8  9  1  0  0  0  0
  9 10  2  0  0  0  0
 10 11  1  0  0  0  0
 11 12  2  0  0  0  0
 12 13  1  0  0  0  0
 13 14  3  0  0  0  0
 12 15  1  0  0  0  0
 15 16  3  0  0  0  0
  8 17  1  0  0  0  0
 17 18  1  0  0  0  0
 18 19  1  0  0  0  0
 19 20  2  0  0  0  0
 20 21  1  0  0  0  0
 21 22  1  0  0  0  0
 21 23  1  0  0  0  0
  1 24  1  0  0  0  0
 24 25  2  0  0  0  0
 25 26  1  0  0  0  0
 26 27  1  0  0  0  0
 27 28  1  0  0  0  0
 28 29  1  0  0  0  0
 26 30  2  0  0  0  0
 30 31  1  0  0  0  0
 30 32  1  0  0  0  0
 32 33  1  0  0  0  0
 33 34  2  0  0  0  0
 34 35  1  0  0  0  0
 35 36  1  0  0  0  0
 36 37  1  0  0  0  0
 35 38  1  0  0  0  0
 38 39  2  0  0  0  0
 39 40  1  0  0  0  0
 40 41  2  0  0  0  0
 41 42  1  0  0  0  0
 41 43  1  0  0  0  0
 40 44  1  0  0  0  0
 44 45  2  0  0  0  0
 45 46  1  0  0  0  0
 46 47  1  0  0  0  0
 47 48  2  0  0  0  0
 48 49  1  0  0  0  0
 49 50  2  0  0  0  0
 50 51  1  0  0  0  0
 51 52  1  0  0  0  0
 50 53  1  0  0  0  0
 53 54  2  0  0  0  0
 46 55  1  0  0  0  0
 55 56  2  0  0  0  0
 56 57  1  0  0  0  0
 57 58  2  0  0  0  0
 58 59  1  0  0  0  0
 59 60  1  0  0  0  0
 58 61  1  0  0  0  0
 61 62  2  0  0  0  0
 45 63  1  0  0  0  0
 63 64  1  0  0  0  0
 64 65  1  0  0  0  0
 65 66  2  0  0  0  0
 66 67  1  0  0  0  0
 67 68  1  0  0  0  0
 68 69  2  0  0  0  0
 69 70  1  0  0  0  0
 70 71  2  0  0  0  0
 71 72  1  0  0  0  0
 72 73  1  0  0  0  0
 71 74  1  0  0  0  0
 74 75  2  0  0  0  0
 67 76  1  0  0  0  0
 76 77  2  0  0  0  0
 77 78  1  0  0  0  0
 78 79  2  0  0  0  0
 79 80  1  0  0  0  0
 80 81  1  0  0  0  0
 79 82  1  0  0  0  0
 82 83  2  0  0  0  0
 66 84  1  0  0  0  0
 84 85  1  0  0  0  0
 65 86  1  0  0  0  0
 86 87  2  0  0  0  0
 87 88  1  0  0  0  0
 88 89  2  0  0  0  0
 88 90  1  0  0  0  0
 90 91  2  0  0  0  0
 91 92  1  0  0  0  0
 92 93  2  0  0  0  0
 93 94  1  0  0  0  0
 94 95  2  0  0  0  0
 95 96  1  0  0  0  0
 96 97  2  0  0  0  0
 97 98  1  0  0  0  0
 98 99  3  0  0  0  0
 97100  1  0  0  0  0
100101  3  0  0  0  0
 93102  1  0  0  0  0
102103  1  0  0  0  0
103104  1  0  0  0  0
104105  2  0  0  0  0
105106  1  0  0  0  0
106107  1  0  0  0  0
106108  1  0  0  0  0
 11  2  1  0  0  0  0
 23 17  1  0  0  0  0
 31 24  1  0  0  0  0
 42 32  2  0  0  0  0
 85 44  1  0  0  0  0
 96 87  1  0  0  0  0
108102  1  0  0  0  0
 10  5  1  0  0  0  0
 22 18  1  0  0  0  0
 39 33  1  0  0  0  0
 54 47  1  0  0  0  0
 62 55  1  0  0  0  0
 84 63  2  0  0  0  0
 95 90  1  0  0  0  0
107103  1  0  0  0  0
 23  7  1  0  0  0  0
 75 68  1  0  0  0  0
 83 76  1  0  0  0  0
108 92  1  0  0  0  0
  1109  1  0  0  0  0
  6110  1  0  0  0  0
  9111  1  0  0  0  0
 17112  1  0  0  0  0
 18113  1  0  0  0  0
 19114  1  0  0  0  0
 20115  1  0  0  0  0
 21116  1  0  0  0  0
 22117  1  0  0  0  0
 22118  1  0  0  0  0
 23119  1  0  0  0  0
 25120  1  0  0  0  0
 28121  1  0  0  0  0
 28122  1  0  0  0  0
 29123  1  0  0  0  0
 29124  1  0  0  0  0
 29125  1  0  0  0  0
 36126  1  0  0  0  0
 36127  1  0  0  0  0
 37128  1  0  0  0  0
 37129  1  0  0  0  0
 37130  1  0  0  0  0
 42131  1  0  0  0  0
 48132  1  0  0  0  0
 49133  1  0  0  0  0
 52134  1  0  0  0  0
 52135  1  0  0  0  0
 52136  1  0  0  0  0
 53137  1  0  0  0  0
 54138  1  0  0  0  0
 56139  1  0  0  0  0
 57140  1  0  0  0  0
 60141  1  0  0  0  0
 60142  1  0  0  0  0
 60143  1  0  0  0  0
 61144  1  0  0  0  0
 62145  1  0  0  0  0
 69146  1  0  0  0  0
 70147  1  0  0  0  0
 73148  1  0  0  0  0
 73149  1  0  0  0  0
 73150  1  0  0  0  0
 74151  1  0  0  0  0
 75152  1  0  0  0  0
 77153  1  0  0  0  0
 78154  1  0  0  0  0
 81155  1  0  0  0  0
 81156  1  0  0  0  0
 81157  1  0  0  0  0
 82158  1  0  0  0  0
 83159  1  0  0  0  0
 86160  1  0  0  0  0
 91161  1  0  0  0  0
 94162  1  0  0  0  0
102163  1  0  0  0  0
103164  1  0  0  0  0
104165  1  0  0  0  0
105166  1  0  0  0  0
106167  1  0  0  0  0
107168  1  0  0  0  0
107169  1  0  0  0  0
108170  1  0  0  0  0
M  END
