157

C          4.42530       -5.56210       -0.71790
C          5.16880       -5.00500       -1.71440
C          6.61930       -5.30510       -1.82430
O          7.22510       -6.18100       -1.24670
C          7.16570       -4.26030       -2.71270
C          8.50280       -4.05140       -3.04520
C          8.71150       -2.98480       -3.88660
C          7.67060       -2.17270       -4.35760
C          6.34720       -2.36640       -4.04040
C          6.11240       -3.45350       -3.19440
C          4.85070       -3.99610       -2.70080
C          3.61600       -3.78730       -3.26260
C          2.50060       -4.60360       -2.97610
N          1.59900       -5.29490       -2.81200
C          3.33170       -2.80780       -4.22950
N          3.02920       -2.00200       -4.99100
C          8.60610       -1.29860       -5.15520
C          8.63950       -1.54020       -6.67920
C          9.94510       -0.91600       -7.11630
C         10.92940       -1.68840       -6.67450
C         10.30570       -2.84750       -5.93100
C          9.02050       -3.02470       -6.74990
C          9.76570       -2.20710       -4.63440
C          3.21110       -5.09140       -0.16600
C          2.31480       -5.81080        0.59950
C          1.22300       -5.05880        1.04320
S         -0.20620       -5.64520        1.87420
C         -0.00770       -7.46010        1.81050
C          0.87380       -7.99360        2.92340
C          1.30940       -3.72200        0.67590
S          2.71880       -3.42310       -0.28490
C          0.42540       -2.64940        0.97620
C         -0.15560       -2.32070        2.19550
N          0.15240       -2.91240        3.40330
C          1.43380       -3.44290        3.61590
C          1.60310       -4.63560        4.31860
C          2.84160       -5.23460        4.37890
C          3.93850       -4.66000        3.74010
S          5.44510       -5.58160        3.73920
C          6.40930       -4.80480        2.41170
C          3.79720       -3.41900        3.13480
C          2.55650       -2.81570        3.08130
C         -0.83310       -2.99310        4.39580
C         -2.15630       -3.25220        4.05100
C         -3.14150       -3.29370        5.01790
C         -2.81500       -3.08300        6.35040
S         -3.98410       -3.10120        7.67220
C         -5.58810       -3.25090        6.83570
C         -1.48600       -2.84840        6.70170
C         -0.50500       -2.80060        5.73780
C         -1.01470       -1.20390        2.04540
S         -1.99730       -0.28170        3.12730
C         -2.46270        0.81170        1.81700
C         -1.81880        0.50160        0.62120
N         -1.82890        1.22290       -0.55350
C         -1.67200        0.50340       -1.75690
C         -0.74380        0.90950       -2.70930
C         -0.55280        0.17290       -3.86210
C         -1.29490       -0.98180       -4.08120
S         -1.14030       -2.00660       -5.50250
C          0.18310       -1.23430       -6.47370
C         -2.24150       -1.37770       -3.13570
C         -2.42970       -0.64490       -1.98650
C         -1.95620        2.61150       -0.58560
C         -1.45070        3.40780        0.44180
C         -1.72810        4.75870        0.48780
C         -2.50010        5.34310       -0.50870
S         -3.03740        7.02350       -0.47240
C         -2.87980        7.46470        1.27990
C         -2.89830        4.57590       -1.60070
C         -2.63510        3.22640       -1.64020
C         -1.02900       -0.66680        0.76890
S          0.01780       -1.52080       -0.30630
C         -3.35590        1.87530        2.10880
C         -3.46250        2.51250        3.33500
C         -4.28210        3.63090        3.28490
S         -4.58830        4.74080        4.60000
C         -3.10480        4.53700        5.65180
C         -1.84520        5.00150        4.94730
C         -4.85300        3.85210        2.01310
S         -4.43010        2.55370        0.92450
C         -5.46520        5.04500        1.64920
C         -5.94960        5.49060        0.43400
C         -6.18100        4.62470       -0.69110
O         -5.97080        3.41620       -0.68480
N         -6.73110        5.21080       -1.81930
C         -7.10080        4.31520       -2.90900
C         -5.95900        4.11010       -3.89450
C         -6.91050        6.55850       -1.96720
S         -7.43560        7.18140       -3.40480
N         -6.65140        7.37010       -0.90500
C         -6.84540        8.80780       -1.03990
C         -8.29170        9.20280       -0.77280
C         -6.24270        6.91380        0.34390
O         -6.10830        7.69340        1.26900
H          4.86550       -6.42690       -0.23000
H          9.27740       -4.69520       -2.65910
H          5.55240       -1.73220       -4.39790
H          8.61210       -0.24280       -4.89080
H          7.74450       -1.22640       -7.20930
H         10.01780        0.02050       -7.63730
H         11.98840       -1.52600       -6.75250
H         10.92920       -3.72460       -5.78020
H          8.29160       -3.69240       -6.29450
H          9.22390       -3.34900       -7.76900
H         10.54730       -1.75730       -4.02480
H          2.45170       -6.86100        0.77790
H          0.36490       -7.71410        0.81940
H         -1.02500       -7.83910        1.90970
H          0.43280       -7.77050        3.89200
H          0.97280       -9.07310        2.82740
H          1.86500       -7.54720        2.89230
H          0.74770       -5.10660        4.77770
H          2.96950       -6.17300        4.89650
H          6.81890       -3.85590        2.74670
H          5.78260       -4.67460        1.53400
H          7.21650       -5.49490        2.18630
H          4.64210       -2.91540        2.69320
H          2.45520       -1.85550        2.59710
H         -2.40920       -3.43860        3.01810
H         -4.15570       -3.49880        4.71650
H         -5.71520       -2.43220        6.13360
H         -5.66360       -4.21420        6.33950
H         -6.33430       -3.18360        7.62130
H         -1.23860       -2.69320        7.74070
H          0.52030       -2.60540        6.01440
H         -0.16090        1.80240       -2.53650
H          0.18760        0.49980       -4.57340
H          1.11580       -1.26160       -5.91720
H         -0.09870       -0.22130       -6.74550
H          0.27370       -1.84230       -7.36880
H         -2.82260       -2.26830       -3.31810
H         -3.16310       -0.95270       -1.25590
H         -0.85970        2.95780        1.22600
H         -1.34140        5.34760        1.30460
H         -3.24150        6.64000        1.88620
H         -1.84890        7.71390        1.51600
H         -3.52000        8.32880        1.42890
H         -3.44720        5.05160       -2.39860
H         -2.99270        2.62470       -2.46150
H         -2.91740        2.18000        4.20050
H         -3.31840        5.15770        6.52150
H         -3.04300        3.49740        5.96880
H         -1.66020        4.40700        4.05440
H         -0.99120        4.90100        5.61410
H         -1.93960        6.04570        4.65710
H         -5.50700        5.79250        2.43890
H         -7.37210        3.36160       -2.45160
H         -7.96680        4.74500       -3.41540
H         -5.11800        3.63650       -3.39560
H         -6.29300        3.46810       -4.70460
H         -5.64450        5.06310       -4.31360
H         -6.18700        9.27970       -0.30870
H         -6.54720        9.09810       -2.04860
H         -8.58300        8.89860        0.22970
H         -8.39450       10.28070       -0.85640
H         -8.95350        8.73250       -1.49610
