
  xtb     02092203173D
 energy: -234.227906751074 gnorm: 0.000336975037 xtb: 6.4.1 (unknown)
132148  0     0  0            999 V2000
    7.1613   -2.6645   -5.6432 C   0  0  0  0  0  0  0  0  0  0  0  0
    6.6947   -1.9556   -6.6970 C   0  0  0  0  0  0  0  0  0  0  0  0
    5.5276   -1.0270   -6.6252 C   0  0  0  0  0  0  0  0  0  0  0  0
    4.9284   -0.6578   -5.6397 O   0  0  0  0  0  0  0  0  0  0  0  0
    5.1718   -0.7333   -8.0227 C   0  0  0  0  0  0  0  0  0  0  0  0
    4.1080    0.0576   -8.4541 C   0  0  0  0  0  0  0  0  0  0  0  0
    3.9920    0.1405   -9.8196 C   0  0  0  0  0  0  0  0  0  0  0  0
    4.8632   -0.5226  -10.6961 C   0  0  0  0  0  0  0  0  0  0  0  0
    5.9190   -1.3003  -10.2846 C   0  0  0  0  0  0  0  0  0  0  0  0
    6.0612   -1.3933   -8.8950 C   0  0  0  0  0  0  0  0  0  0  0  0
    7.0475   -2.1152   -8.0995 C   0  0  0  0  0  0  0  0  0  0  0  0
    8.1570   -2.7590   -8.5745 C   0  0  0  0  0  0  0  0  0  0  0  0
    8.4943   -2.8651   -9.9404 C   0  0  0  0  0  0  0  0  0  0  0  0
    8.8194   -2.9905  -11.0341 N   0  0  0  0  0  0  0  0  0  0  0  0
    9.1321   -3.3763   -7.7608 C   0  0  0  0  0  0  0  0  0  0  0  0
    9.9712   -3.8866   -7.1669 N   0  0  0  0  0  0  0  0  0  0  0  0
    4.1409   -0.0173  -11.9206 C   0  0  0  0  0  0  0  0  0  0  0  0
    3.2024   -1.0169  -12.6299 C   0  0  0  0  0  0  0  0  0  0  0  0
    2.2972   -0.1358  -13.4606 C   0  0  0  0  0  0  0  0  0  0  0  0
    1.4774    0.4971  -12.6312 C   0  0  0  0  0  0  0  0  0  0  0  0
    1.8148    0.0548  -11.2258 C   0  0  0  0  0  0  0  0  0  0  0  0
    2.2362   -1.3947  -11.4994 C   0  0  0  0  0  0  0  0  0  0  0  0
    3.1754    0.7269  -10.9432 C   0  0  0  0  0  0  0  0  0  0  0  0
    6.7660   -2.4070   -4.2792 C   0  0  0  0  0  0  0  0  0  0  0  0
    6.2857   -3.4597   -3.4744 C   0  0  0  0  0  0  0  0  0  0  0  0
    6.1998   -4.7765   -3.7076 N   0  0  0  0  0  0  0  0  0  0  0  0
    5.6013   -5.2496   -2.6489 N   0  0  0  0  0  0  0  0  0  0  0  0
    5.3834   -6.6565   -2.4719 C   0  0  0  0  0  0  0  0  0  0  0  0
    6.4960   -7.2593   -1.6197 C   0  0  0  0  0  0  0  0  0  0  0  0
    5.2577   -4.3896   -1.7342 N   0  0  0  0  0  0  0  0  0  0  0  0
    5.6797   -3.2106   -2.2094 C   0  0  0  0  0  0  0  0  0  0  0  0
    5.5518   -1.9064   -1.6815 C   0  0  0  0  0  0  0  0  0  0  0  0
    6.1995   -0.9145   -2.4131 C   0  0  0  0  0  0  0  0  0  0  0  0
    6.7729   -1.1558   -3.6762 C   0  0  0  0  0  0  0  0  0  0  0  0
    7.5512    0.1503   -4.4765 Cl  0  0  0  0  0  0  0  0  0  0  0  0
    6.3314    0.6830   -1.7858 Cl  0  0  0  0  0  0  0  0  0  0  0  0
    4.7171   -1.6762   -0.5312 C   0  0  0  0  0  0  0  0  0  0  0  0
    3.9565   -0.5731   -0.2735 C   0  0  0  0  0  0  0  0  0  0  0  0
    3.0953   -0.7191    0.8397 C   0  0  0  0  0  0  0  0  0  0  0  0
    2.1513    0.1999    1.3150 C   0  0  0  0  0  0  0  0  0  0  0  0
    2.0097    1.5701    0.7255 C   0  0  0  0  0  0  0  0  0  0  0  0
    3.1011    2.5014    1.2570 C   0  0  0  0  0  0  0  0  0  0  0  0
    1.3711   -0.2209    2.3743 C   0  0  0  0  0  0  0  0  0  0  0  0
    1.5049   -1.4934    2.9892 C   0  0  0  0  0  0  0  0  0  0  0  0
    2.4703   -2.4018    2.5292 C   0  0  0  0  0  0  0  0  0  0  0  0
    2.6796   -3.7348    3.1814 C   0  0  0  0  0  0  0  0  0  0  0  0
    3.5225   -3.5882    4.4499 C   0  0  0  0  0  0  0  0  0  0  0  0
    3.2354   -1.9915    1.4532 C   0  0  0  0  0  0  0  0  0  0  0  0
    4.4299   -2.9595    0.6227 S   0  0  0  0  0  0  0  0  0  0  0  0
    0.5457   -1.6784    4.0178 C   0  0  0  0  0  0  0  0  0  0  0  0
   -0.3008   -0.6202    4.1767 C   0  0  0  0  0  0  0  0  0  0  0  0
    0.0649    0.6910    3.0775 S   0  0  0  0  0  0  0  0  0  0  0  0
   -1.4515   -0.4751    5.0331 C   0  0  0  0  0  0  0  0  0  0  0  0
   -2.5357    0.3154    4.5858 C   0  0  0  0  0  0  0  0  0  0  0  0
   -2.7193    0.9558    3.4225 N   0  0  0  0  0  0  0  0  0  0  0  0
   -3.9124    1.4636    3.5189 N   0  0  0  0  0  0  0  0  0  0  0  0
   -4.4713    2.2673    2.4698 C   0  0  0  0  0  0  0  0  0  0  0  0
   -4.6715    3.6992    2.9526 C   0  0  0  0  0  0  0  0  0  0  0  0
   -4.5629    1.2325    4.6247 N   0  0  0  0  0  0  0  0  0  0  0  0
   -3.7121    0.5040    5.3590 C   0  0  0  0  0  0  0  0  0  0  0  0
   -3.8530   -0.0707    6.6408 C   0  0  0  0  0  0  0  0  0  0  0  0
   -2.7947   -0.8693    7.0532 C   0  0  0  0  0  0  0  0  0  0  0  0
   -1.6263   -1.0563    6.2837 C   0  0  0  0  0  0  0  0  0  0  0  0
   -0.3698   -2.0047    6.9820 Cl  0  0  0  0  0  0  0  0  0  0  0  0
   -2.8873   -1.6097    8.6058 Cl  0  0  0  0  0  0  0  0  0  0  0  0
   -5.0687    0.1081    7.3918 C   0  0  0  0  0  0  0  0  0  0  0  0
   -5.7598    1.2707    7.4007 C   0  0  0  0  0  0  0  0  0  0  0  0
   -5.2208    2.5804    6.9303 C   0  0  0  0  0  0  0  0  0  0  0  0
   -4.0612    2.8842    6.7651 O   0  0  0  0  0  0  0  0  0  0  0  0
   -6.3899    3.4713    6.8306 C   0  0  0  0  0  0  0  0  0  0  0  0
   -6.4156    4.7596    6.3008 C   0  0  0  0  0  0  0  0  0  0  0  0
   -7.6635    5.3325    6.2824 C   0  0  0  0  0  0  0  0  0  0  0  0
   -8.8041    4.6788    6.7707 C   0  0  0  0  0  0  0  0  0  0  0  0
   -8.7876    3.4230    7.3277 C   0  0  0  0  0  0  0  0  0  0  0  0
   -7.5267    2.8169    7.3481 C   0  0  0  0  0  0  0  0  0  0  0  0
   -7.1338    1.4943    7.8262 C   0  0  0  0  0  0  0  0  0  0  0  0
   -7.9209    0.6313    8.5372 C   0  0  0  0  0  0  0  0  0  0  0  0
   -7.5095   -0.6335    9.0113 C   0  0  0  0  0  0  0  0  0  0  0  0
   -7.2498   -1.6709    9.4281 N   0  0  0  0  0  0  0  0  0  0  0  0
   -9.2494    0.9028    8.9292 C   0  0  0  0  0  0  0  0  0  0  0  0
  -10.3310    1.0604    9.2800 N   0  0  0  0  0  0  0  0  0  0  0  0
   -9.7146    5.8211    6.3963 C   0  0  0  0  0  0  0  0  0  0  0  0
  -10.5777    5.6600    5.1196 C   0  0  0  0  0  0  0  0  0  0  0  0
   -9.8378    4.7057    4.2154 C   0  0  0  0  0  0  0  0  0  0  0  0
   -8.7599    5.3309    3.7611 C   0  0  0  0  0  0  0  0  0  0  0  0
   -8.7505    6.7192    4.3517 C   0  0  0  0  0  0  0  0  0  0  0  0
  -10.2611    6.9931    4.4227 C   0  0  0  0  0  0  0  0  0  0  0  0
   -8.4432    6.5522    5.8608 C   0  0  0  0  0  0  0  0  0  0  0  0
    7.7844   -3.5361   -5.7956 H   0  0  0  0  0  0  0  0  0  0  0  0
    3.4602    0.5468   -7.7437 H   0  0  0  0  0  0  0  0  0  0  0  0
    6.5809   -1.8036  -10.9696 H   0  0  0  0  0  0  0  0  0  0  0  0
    4.7376    0.5715  -12.6145 H   0  0  0  0  0  0  0  0  0  0  0  0
    3.7082   -1.8263  -13.1489 H   0  0  0  0  0  0  0  0  0  0  0  0
    2.3803   -0.0256  -14.5258 H   0  0  0  0  0  0  0  0  0  0  0  0
    0.7392    1.2418  -12.8647 H   0  0  0  0  0  0  0  0  0  0  0  0
    1.0575    0.2218  -10.4645 H   0  0  0  0  0  0  0  0  0  0  0  0
    1.4066   -2.0041  -11.8541 H   0  0  0  0  0  0  0  0  0  0  0  0
    2.7125   -1.8861  -10.6529 H   0  0  0  0  0  0  0  0  0  0  0  0
    3.1305    1.8135  -10.9820 H   0  0  0  0  0  0  0  0  0  0  0  0
    5.3662   -7.1096   -3.4643 H   0  0  0  0  0  0  0  0  0  0  0  0
    4.4175   -6.7835   -1.9790 H   0  0  0  0  0  0  0  0  0  0  0  0
    6.5227   -6.7748   -0.6469 H   0  0  0  0  0  0  0  0  0  0  0  0
    7.4585   -7.1266   -2.1076 H   0  0  0  0  0  0  0  0  0  0  0  0
    6.3182   -8.3215   -1.4795 H   0  0  0  0  0  0  0  0  0  0  0  0
    3.9602    0.2988   -0.8990 H   0  0  0  0  0  0  0  0  0  0  0  0
    1.0303    1.9718    0.9936 H   0  0  0  0  0  0  0  0  0  0  0  0
    2.0728    1.5172   -0.3627 H   0  0  0  0  0  0  0  0  0  0  0  0
    2.9901    3.4949    0.8298 H   0  0  0  0  0  0  0  0  0  0  0  0
    3.0329    2.5793    2.3394 H   0  0  0  0  0  0  0  0  0  0  0  0
    4.0868    2.1203    1.0006 H   0  0  0  0  0  0  0  0  0  0  0  0
    3.1941   -4.3958    2.4808 H   0  0  0  0  0  0  0  0  0  0  0  0
    1.7168   -4.1833    3.4329 H   0  0  0  0  0  0  0  0  0  0  0  0
    4.4931   -3.1618    4.2078 H   0  0  0  0  0  0  0  0  0  0  0  0
    3.0277   -2.9341    5.1639 H   0  0  0  0  0  0  0  0  0  0  0  0
    3.6762   -4.5588    4.9150 H   0  0  0  0  0  0  0  0  0  0  0  0
    0.4564   -2.5890    4.5795 H   0  0  0  0  0  0  0  0  0  0  0  0
   -3.7692    2.2219    1.6359 H   0  0  0  0  0  0  0  0  0  0  0  0
   -5.4302    1.8327    2.1738 H   0  0  0  0  0  0  0  0  0  0  0  0
   -5.3531    3.7095    3.7995 H   0  0  0  0  0  0  0  0  0  0  0  0
   -3.7221    4.1279    3.2635 H   0  0  0  0  0  0  0  0  0  0  0  0
   -5.0857    4.3051    2.1515 H   0  0  0  0  0  0  0  0  0  0  0  0
   -5.4455   -0.7646    7.9094 H   0  0  0  0  0  0  0  0  0  0  0  0
   -5.5138    5.2280    5.9381 H   0  0  0  0  0  0  0  0  0  0  0  0
   -9.6714    2.9371    7.7065 H   0  0  0  0  0  0  0  0  0  0  0  0
  -10.2655    6.2833    7.2126 H   0  0  0  0  0  0  0  0  0  0  0  0
  -11.6224    5.4288    5.3082 H   0  0  0  0  0  0  0  0  0  0  0  0
  -10.1349    3.6868    4.0487 H   0  0  0  0  0  0  0  0  0  0  0  0
   -7.9767    4.9390    3.1386 H   0  0  0  0  0  0  0  0  0  0  0  0
   -8.1316    7.4537    3.8430 H   0  0  0  0  0  0  0  0  0  0  0  0
  -10.5162    7.8666    5.0206 H   0  0  0  0  0  0  0  0  0  0  0  0
  -10.7211    7.0736    3.4389 H   0  0  0  0  0  0  0  0  0  0  0  0
   -8.1575    7.4897    6.3334 H   0  0  0  0  0  0  0  0  0  0  0  0
  1  2  2  0  0  0  0
  2  3  1  0  0  0  0
  3  4  2  0  0  0  0
  3  5  1  0  0  0  0
  5  6  2  0  0  0  0
  6  7  1  0  0  0  0
  7  8  2  0  0  0  0
  8  9  1  0  0  0  0
  9 10  2  0  0  0  0
 10 11  1  0  0  0  0
 11 12  2  0  0  0  0
 12 13  1  0  0  0  0
 13 14  3  0  0  0  0
 12 15  1  0  0  0  0
 15 16  3  0  0  0  0
  8 17  1  0  0  0  0
 17 18  1  0  0  0  0
 18 19  1  0  0  0  0
 19 20  2  0  0  0  0
 20 21  1  0  0  0  0
 21 22  1  0  0  0  0
 21 23  1  0  0  0  0
  1 24  1  0  0  0  0
 24 25  1  0  0  0  0
 25 26  2  0  0  0  0
 26 27  1  0  0  0  0
 27 28  1  0  0  0  0
 28 29  1  0  0  0  0
 27 30  1  0  0  0  0
 30 31  2  0  0  0  0
 31 32  1  0  0  0  0
 32 33  2  0  0  0  0
 33 34  1  0  0  0  0
 34 35  1  0  0  0  0
 33 36  1  0  0  0  0
 32 37  1  0  0  0  0
 37 38  2  0  0  0  0
 38 39  1  0  0  0  0
 39 40  2  0  0  0  0
 40 41  1  0  0  0  0
 41 42  1  0  0  0  0
 40 43  1  0  0  0  0
 43 44  2  0  0  0  0
 44 45  1  0  0  0  0
 45 46  1  0  0  0  0
 46 47  1  0  0  0  0
 45 48  2  0  0  0  0
 48 49  1  0  0  0  0
 44 50  1  0  0  0  0
 50 51  2  0  0  0  0
 51 52  1  0  0  0  0
 51 53  1  0  0  0  0
 53 54  1  0  0  0  0
 54 55  2  0  0  0  0
 55 56  1  0  0  0  0
 56 57  1  0  0  0  0
 57 58  1  0  0  0  0
 56 59  1  0  0  0  0
 59 60  2  0  0  0  0
 60 61  1  0  0  0  0
 61 62  2  0  0  0  0
 62 63  1  0  0  0  0
 63 64  1  0  0  0  0
 62 65  1  0  0  0  0
 61 66  1  0  0  0  0
 66 67  2  0  0  0  0
 67 68  1  0  0  0  0
 68 69  2  0  0  0  0
 68 70  1  0  0  0  0
 70 71  2  0  0  0  0
 71 72  1  0  0  0  0
 72 73  2  0  0  0  0
 73 74  1  0  0  0  0
 74 75  2  0  0  0  0
 75 76  1  0  0  0  0
 76 77  2  0  0  0  0
 77 78  1  0  0  0  0
 78 79  3  0  0  0  0
 77 80  1  0  0  0  0
 80 81  3  0  0  0  0
 73 82  1  0  0  0  0
 82 83  1  0  0  0  0
 83 84  1  0  0  0  0
 84 85  2  0  0  0  0
 85 86  1  0  0  0  0
 86 87  1  0  0  0  0
 86 88  1  0  0  0  0
 11  2  1  0  0  0  0
 23 17  1  0  0  0  0
 34 24  2  0  0  0  0
 49 37  1  0  0  0  0
 63 53  2  0  0  0  0
 76 67  1  0  0  0  0
 88 82  1  0  0  0  0
 10  5  1  0  0  0  0
 22 18  1  0  0  0  0
 31 25  1  0  0  0  0
 48 39  1  0  0  0  0
 60 54  1  0  0  0  0
 75 70  1  0  0  0  0
 87 83  1  0  0  0  0
 23  7  1  0  0  0  0
 52 43  1  0  0  0  0
 88 72  1  0  0  0  0
  1 89  1  0  0  0  0
  6 90  1  0  0  0  0
  9 91  1  0  0  0  0
 17 92  1  0  0  0  0
 18 93  1  0  0  0  0
 19 94  1  0  0  0  0
 20 95  1  0  0  0  0
 21 96  1  0  0  0  0
 22 97  1  0  0  0  0
 22 98  1  0  0  0  0
 23 99  1  0  0  0  0
 28100  1  0  0  0  0
 28101  1  0  0  0  0
 29102  1  0  0  0  0
 29103  1  0  0  0  0
 29104  1  0  0  0  0
 38105  1  0  0  0  0
 41106  1  0  0  0  0
 41107  1  0  0  0  0
 42108  1  0  0  0  0
 42109  1  0  0  0  0
 42110  1  0  0  0  0
 46111  1  0  0  0  0
 46112  1  0  0  0  0
 47113  1  0  0  0  0
 47114  1  0  0  0  0
 47115  1  0  0  0  0
 50116  1  0  0  0  0
 57117  1  0  0  0  0
 57118  1  0  0  0  0
 58119  1  0  0  0  0
 58120  1  0  0  0  0
 58121  1  0  0  0  0
 66122  1  0  0  0  0
 71123  1  0  0  0  0
 74124  1  0  0  0  0
 82125  1  0  0  0  0
 83126  1  0  0  0  0
 84127  1  0  0  0  0
 85128  1  0  0  0  0
 86129  1  0  0  0  0
 87130  1  0  0  0  0
 87131  1  0  0  0  0
 88132  1  0  0  0  0
M  END
