208

C          8.89250       -0.36650       -5.40760
C          9.06000       -1.71560       -5.59190
C          8.72650       -2.74380       -4.60190
O          8.34220       -2.56520       -3.45670
C          8.98070       -4.03910       -5.24670
C          8.73540       -5.30340       -4.71550
C          9.00220       -6.33410       -5.58390
C          9.49290       -6.12370       -6.87920
C          9.75220       -4.88220       -7.41000
C          9.47280       -3.81800       -6.54880
C          9.55480       -2.37640       -6.77950
C          9.96640       -1.78200       -7.94670
C          9.97360       -0.39600       -8.19940
N          9.98480        0.71530       -8.49410
C         10.42020       -2.47810       -9.08530
N         10.80020       -2.96560      -10.05340
C          9.49430       -7.59660       -7.20420
C          8.33900       -8.09690       -8.09740
C          8.30960       -9.58800       -7.85140
C          7.84000       -9.78550       -6.62620
C          7.54500       -8.43090       -6.02360
C          7.11010       -7.67070       -7.28350
C          8.94310       -7.83070       -5.76110
C          8.16540        0.29940       -4.41130
C          7.90090        1.66690       -4.45860
C          6.93760        2.08230       -3.55780
S          6.43480        3.77500       -3.42190
C          7.71860        4.29980       -2.21320
C          7.38920        5.66520       -1.65160
C          6.39440        1.03330       -2.81040
S          7.25400       -0.44580       -3.12100
C          5.27360        1.08690       -1.94850
C          4.39090        0.06610       -1.57800
N          4.35160       -1.23710       -2.03590
C          4.65730       -1.60290       -3.34570
C          5.18150       -2.87200       -3.60930
C          5.60210       -3.20070       -4.87590
C          5.53250       -2.26800       -5.90860
S          6.25390       -2.73890       -7.45050
C          6.40710       -1.16690       -8.34450
C          4.93350       -1.03740       -5.67510
C          4.48710       -0.71610       -4.40870
C          3.89350       -2.21770       -1.13340
C          4.36800       -2.23460        0.17460
C          3.89160       -3.15810        1.08370
C          2.93260       -4.08520        0.69480
S          2.25000       -5.30050        1.76900
C          2.67800       -4.68750        3.42280
C          2.47760       -4.08750       -0.62400
C          2.94830       -3.16390       -1.52860
C          3.41950        0.55250       -0.66840
S          2.07970       -0.17970        0.14380
C          1.61470        1.37730        0.81450
C          2.49800        2.39250        0.47620
N          2.44840        3.68900        0.95200
C          2.07230        3.95340        2.27530
C          1.45030        5.15470        2.60230
C          1.08000        5.42550        3.90560
C          1.29040        4.48350        4.90260
S          0.80320        4.70090        6.58430
C          0.23590        6.42350        6.65710
C          1.91500        3.28000        4.58040
C          2.31470        3.02460        3.28910
C          2.90720        4.71640        0.11220
C          3.69400        5.75760        0.60390
C          4.17810        6.72110       -0.25240
C          3.90380        6.65950       -1.61780
S          4.61820        7.90630       -2.64140
C          4.60460        7.13630       -4.28670
C          3.09580        5.64300       -2.10650
C          2.59800        4.68560       -1.24560
C          3.51670        1.90310       -0.38050
S          4.82550        2.63810       -1.23070
C          0.40320        1.44390        1.56600
C         -0.52860        2.44160        1.60950
C         -1.69120        2.09490        2.33970
C         -2.87040        2.84040        2.48100
C         -3.04200        4.18110        1.89290
C         -3.96250        4.37080        0.86730
C         -4.16600        5.61450        0.30600
C         -3.46750        6.72610        0.77520
O         -3.54590        7.97390        0.27760
C         -4.56420        8.31710       -0.64710
C         -5.93060        8.43480        0.01740
C         -2.57400        6.53840        1.84420
C         -1.86470        7.73520        2.40730
F         -0.80830        8.11370        1.66170
F         -2.64520        8.81330        2.54150
F         -1.37190        7.50030        3.63970
C         -2.34400        5.27940        2.37510
C         -3.92020        2.23500        3.14980
C         -3.82600        0.94260        3.73090
C         -2.63040        0.20400        3.61920
C         -2.51840       -1.11730        4.24820
C         -2.88240       -1.28730        5.58240
C         -2.81810       -2.52150        6.19500
C         -2.38640       -3.63990        5.48430
O         -2.29730       -4.88920        5.97100
C         -2.71570       -5.15720        7.29890
C         -2.54160       -6.64870        7.53270
C         -2.00240       -3.46430        4.14360
C         -2.06650       -2.22370        3.53690
C         -1.53800       -4.67170        3.38070
F         -0.48280       -5.27230        3.95990
F         -1.15790       -4.37880        2.12840
F         -2.49110       -5.61360        3.26950
C         -1.60980        0.78600        2.88930
S         -0.08680        0.03830        2.49220
C         -5.04510        0.52370        4.29920
C         -6.05660        1.44370        4.18400
S         -5.50230        2.91680        3.37830
C         -7.42200        1.40410        4.55200
C         -8.19270        0.38600        5.03370
C         -7.83080       -1.03160        5.28270
O         -6.72870       -1.53210        5.38760
C         -9.10840       -1.75400        5.41180
C         -9.27320       -3.13280        5.53390
C        -10.58470       -3.53410        5.60720
C        -11.65610       -2.63050        5.56790
C        -11.50720       -1.26840        5.46120
C        -10.17820       -0.83860        5.38230
C         -9.62920        0.50710        5.25300
C        -10.34400        1.66780        5.38320
C        -11.73450        1.72240        5.61920
N        -12.86040        1.84390        5.80740
C         -9.81160        2.97540        5.35620
N         -9.47080        4.07210        5.36630
C        -12.68790       -3.72650        5.66360
C        -13.40810       -4.10980        4.35310
C        -13.97470       -5.48170        4.63960
C        -12.96100       -6.33700        4.67860
C        -11.69200       -5.55760        4.41890
C        -12.22870       -4.49540        3.45070
C        -11.49380       -4.73330        5.70910
H          9.29020        0.29810       -6.16520
H          8.35580       -5.41880       -3.71200
H         10.12780       -4.73960       -8.40910
H         10.45750       -8.02690       -7.47120
H          8.39150       -7.77150       -9.13260
H          8.67310      -10.31880       -8.54980
H          7.73300      -10.71400       -6.09660
H          6.87350       -8.41160       -5.16930
H          7.01870       -6.59430       -7.14880
H          6.18450       -8.06350       -7.70090
H          9.53660       -8.42010       -5.06470
H          8.36560        2.32630       -5.17030
H          7.73500        3.54380       -1.42810
H          8.67100        4.30040       -2.74380
H          7.32960        6.40520       -2.44570
H          8.16380        5.96920       -0.95080
H          6.43570        5.63750       -1.12940
H          5.30050       -3.57860       -2.80350
H          6.02940       -4.17190       -5.07320
H          7.01650       -1.37980       -9.21780
H          5.42940       -0.81540       -8.66080
H          6.90400       -0.43470       -7.71350
H          4.81580       -0.31570       -6.46740
H          4.03280        0.24860       -4.23760
H          5.11810       -1.51830        0.47700
H          4.28100       -3.15020        2.08880
H          2.39110       -3.64330        3.50430
H          3.73780       -4.82580        3.61750
H          2.09280       -5.28520        4.11420
H          1.73580       -4.81310       -0.91890
H          2.57800       -3.15610       -2.54280
H          1.25710        5.88810        1.83310
H          0.62460        6.37400        4.12920
H         -0.64160        6.56150        6.03290
H         -0.01930        6.60090        7.69730
H          1.04060        7.08740        6.35570
H          2.09450        2.55540        5.35970
H          2.82580        2.10110        3.06310
H          3.93830        5.79400        1.65480
H          4.79540        7.52300        0.12260
H          5.00100        6.12730       -4.21470
H          3.59940        7.13920       -4.69820
H          5.25230        7.75000       -4.90480
H          2.84660        5.58630       -3.15330
H          1.96270        3.90030       -1.62930
H         -0.42230        3.37530        1.08770
H         -4.51890        3.52430        0.49310
H         -4.87280        5.71270       -0.50150
H         -4.58550        7.60510       -1.48080
H         -4.24950        9.29030       -1.03160
H         -6.25290        7.47940        0.42500
H         -5.87950        9.15470        0.83020
H         -6.66280        8.77350       -0.71000
H         -1.63620        5.15360        3.18060
H         -3.20580       -0.43240        6.15650
H         -3.11110       -2.61070        7.22810
H         -3.76740       -4.86810        7.42300
H         -2.10240       -4.58390        8.00700
H         -1.49940       -6.92430        7.39930
H         -3.13920       -7.20620        6.81700
H         -2.85510       -6.90480        8.54050
H         -1.78730       -2.12790        2.49910
H         -5.19000       -0.43880        4.75310
H         -7.93560        2.33790        4.35350
H         -8.41960       -3.79200        5.55850
H        -12.34130       -0.58780        5.43180
H        -13.35930       -3.67350        6.51820
H        -14.10190       -3.36160        3.97990
H        -15.01390       -5.67300        4.83250
H        -12.98410       -7.38560        4.91030
H        -10.82240       -6.12850        4.10480
H        -11.53360       -3.68100        3.25480
H        -12.55730       -4.92800        2.50720
H        -11.36790       -5.35270        6.59500
