
  xtb     02162212323D
 energy: -285.736479560234 gnorm: 0.000634943784 xtb: 6.4.1 (unknown)
172191  0     0  0            999 V2000
    5.1848    8.9631    4.8629 C   0  0  0  0  0  0  0  0  0  0  0  0
    4.2562    9.4096    5.7663 C   0  0  0  0  0  0  0  0  0  0  0  0
    2.8506    8.9930    5.8188 C   0  0  0  0  0  0  0  0  0  0  0  0
    2.2878    8.1939    5.0892 O   0  0  0  0  0  0  0  0  0  0  0  0
    2.2390    9.7325    6.9346 C   0  0  0  0  0  0  0  0  0  0  0  0
    0.9165    9.6585    7.3649 C   0  0  0  0  0  0  0  0  0  0  0  0
    0.6338   10.4632    8.4423 C   0  0  0  0  0  0  0  0  0  0  0  0
    1.5954   11.2868    9.0423 C   0  0  0  0  0  0  0  0  0  0  0  0
    2.9022   11.3726    8.6239 C   0  0  0  0  0  0  0  0  0  0  0  0
    3.2141   10.5556    7.5338 C   0  0  0  0  0  0  0  0  0  0  0  0
    4.4826   10.3680    6.8301 C   0  0  0  0  0  0  0  0  0  0  0  0
    5.6636   10.9874    7.1508 C   0  0  0  0  0  0  0  0  0  0  0  0
    5.8244   11.9061    8.2091 C   0  0  0  0  0  0  0  0  0  0  0  0
    6.0386   12.6561    9.0521 N   0  0  0  0  0  0  0  0  0  0  0  0
    6.8981   10.8046    6.4934 C   0  0  0  0  0  0  0  0  0  0  0  0
    7.9423   10.7182    6.0216 N   0  0  0  0  0  0  0  0  0  0  0  0
    0.6258   11.8028   10.0751 C   0  0  0  0  0  0  0  0  0  0  0  0
    0.7280   11.2237   11.5080 C   0  0  0  0  0  0  0  0  0  0  0  0
    1.3207    9.8431   11.3721 C   0  0  0  0  0  0  0  0  0  0  0  0
    0.4085    9.0646   10.8057 C   0  0  0  0  0  0  0  0  0  0  0  0
   -0.8174    9.9052   10.5472 C   0  0  0  0  0  0  0  0  0  0  0  0
   -0.7467   10.8628   11.7474 C   0  0  0  0  0  0  0  0  0  0  0  0
   -0.4464   10.8856    9.4067 C   0  0  0  0  0  0  0  0  0  0  0  0
    5.0565    8.0308    3.8222 C   0  0  0  0  0  0  0  0  0  0  0  0
    6.1338    7.6621    3.0199 C   0  0  0  0  0  0  0  0  0  0  0  0
    5.8295    6.7130    2.0585 C   0  0  0  0  0  0  0  0  0  0  0  0
    7.0757    6.0506    0.9881 S   0  0  0  0  0  0  0  0  0  0  0  0
    7.1371    4.3368    1.6577 C   0  0  0  0  0  0  0  0  0  0  0  0
    8.0584    3.4840    0.8107 C   0  0  0  0  0  0  0  0  0  0  0  0
    4.4832    6.3405    2.0783 C   0  0  0  0  0  0  0  0  0  0  0  0
    3.6214    7.1554    3.3452 S   0  0  0  0  0  0  0  0  0  0  0  0
    3.8038    5.4262    1.2362 C   0  0  0  0  0  0  0  0  0  0  0  0
    2.2000    4.8593    1.7145 S   0  0  0  0  0  0  0  0  0  0  0  0
    2.1393    3.8401    0.3252 C   0  0  0  0  0  0  0  0  0  0  0  0
    1.3557    2.8606   -0.2828 C   0  0  0  0  0  0  0  0  0  0  0  0
    2.0643    2.4197   -1.4218 C   0  0  0  0  0  0  0  0  0  0  0  0
    3.2248    3.1324   -1.5486 N   0  0  0  0  0  0  0  0  0  0  0  0
    4.1956    3.0469   -2.6100 C   0  0  0  0  0  0  0  0  0  0  0  0
    5.2968    2.0362   -2.3059 C   0  0  0  0  0  0  0  0  0  0  0  0
    3.2983    3.9770   -0.4730 C   0  0  0  0  0  0  0  0  0  0  0  0
    4.2306    4.8748    0.0434 C   0  0  0  0  0  0  0  0  0  0  0  0
    1.4459    1.3465   -2.0755 C   0  0  0  0  0  0  0  0  0  0  0  0
    0.2701    0.9884   -1.4632 C   0  0  0  0  0  0  0  0  0  0  0  0
   -0.1271    2.0061   -0.0822 S   0  0  0  0  0  0  0  0  0  0  0  0
   -0.5224   -0.1719   -1.7465 C   0  0  0  0  0  0  0  0  0  0  0  0
   -0.0492   -1.4690   -1.8698 C   0  0  0  0  0  0  0  0  0  0  0  0
    1.2639   -1.8747   -1.6971 N   0  0  0  0  0  0  0  0  0  0  0  0
    2.1103   -1.2656   -0.7704 C   0  0  0  0  0  0  0  0  0  0  0  0
    1.6138   -0.7102    0.4075 C   0  0  0  0  0  0  0  0  0  0  0  0
    2.4240    0.0436    1.2334 C   0  0  0  0  0  0  0  0  0  0  0  0
    3.7635    0.2179    0.9175 C   0  0  0  0  0  0  0  0  0  0  0  0
    4.8649    1.2791    1.8028 S   0  0  0  0  0  0  0  0  0  0  0  0
    3.8745    1.8842    3.1960 C   0  0  0  0  0  0  0  0  0  0  0  0
    4.2945   -0.4482   -0.1846 C   0  0  0  0  0  0  0  0  0  0  0  0
    3.4784   -1.1682   -1.0287 C   0  0  0  0  0  0  0  0  0  0  0  0
    1.6885   -2.9817   -2.4541 C   0  0  0  0  0  0  0  0  0  0  0  0
    1.4012   -3.0340   -3.8166 C   0  0  0  0  0  0  0  0  0  0  0  0
    1.6957   -4.1667   -4.5449 C   0  0  0  0  0  0  0  0  0  0  0  0
    2.2793   -5.2588   -3.9179 C   0  0  0  0  0  0  0  0  0  0  0  0
    2.5368   -6.7409   -4.8534 S   0  0  0  0  0  0  0  0  0  0  0  0
    1.8906   -7.9612   -3.6667 C   0  0  0  0  0  0  0  0  0  0  0  0
    2.6298   -5.1851   -2.5761 C   0  0  0  0  0  0  0  0  0  0  0  0
    2.3359   -4.0528   -1.8460 C   0  0  0  0  0  0  0  0  0  0  0  0
   -1.1001   -2.3728   -2.1625 C   0  0  0  0  0  0  0  0  0  0  0  0
   -1.1668   -4.0852   -2.3883 S   0  0  0  0  0  0  0  0  0  0  0  0
   -2.9142   -3.9934   -2.6179 C   0  0  0  0  0  0  0  0  0  0  0  0
   -3.4065   -2.6777   -2.4257 C   0  0  0  0  0  0  0  0  0  0  0  0
   -4.7258   -2.3083   -2.4488 N   0  0  0  0  0  0  0  0  0  0  0  0
   -5.7425   -3.1069   -1.8996 C   0  0  0  0  0  0  0  0  0  0  0  0
   -5.4988   -3.8973   -0.7791 C   0  0  0  0  0  0  0  0  0  0  0  0
   -6.4999   -4.6785   -0.2380 C   0  0  0  0  0  0  0  0  0  0  0  0
   -7.7704   -4.6699   -0.8009 C   0  0  0  0  0  0  0  0  0  0  0  0
   -9.1292   -5.6184   -0.1982 S   0  0  0  0  0  0  0  0  0  0  0  0
   -8.4515   -6.5025    1.2362 C   0  0  0  0  0  0  0  0  0  0  0  0
   -8.0211   -3.8651   -1.9109 C   0  0  0  0  0  0  0  0  0  0  0  0
   -7.0208   -3.0945   -2.4591 C   0  0  0  0  0  0  0  0  0  0  0  0
   -5.0466   -1.0218   -2.9209 C   0  0  0  0  0  0  0  0  0  0  0  0
   -5.9432   -0.2109   -2.2342 C   0  0  0  0  0  0  0  0  0  0  0  0
   -6.2407    1.0558   -2.6970 C   0  0  0  0  0  0  0  0  0  0  0  0
   -5.6410    1.5323   -3.8559 C   0  0  0  0  0  0  0  0  0  0  0  0
   -5.9271    3.1309   -4.5383 S   0  0  0  0  0  0  0  0  0  0  0  0
   -7.1012    3.9006   -3.3878 C   0  0  0  0  0  0  0  0  0  0  0  0
   -4.7495    0.7160   -4.5516 C   0  0  0  0  0  0  0  0  0  0  0  0
   -4.4566   -0.5471   -4.0928 C   0  0  0  0  0  0  0  0  0  0  0  0
   -2.3518   -1.7743   -2.2070 C   0  0  0  0  0  0  0  0  0  0  0  0
   -2.2686   -0.0700   -1.8879 S   0  0  0  0  0  0  0  0  0  0  0  0
   -3.7093   -5.0397   -3.0799 C   0  0  0  0  0  0  0  0  0  0  0  0
   -3.4022   -6.3584   -3.3295 C   0  0  0  0  0  0  0  0  0  0  0  0
   -2.1509   -7.0415   -3.0017 C   0  0  0  0  0  0  0  0  0  0  0  0
   -1.1225   -6.5531   -2.5563 O   0  0  0  0  0  0  0  0  0  0  0  0
   -2.3680   -8.4687   -3.3030 C   0  0  0  0  0  0  0  0  0  0  0  0
   -1.4689   -9.5170   -3.1196 C   0  0  0  0  0  0  0  0  0  0  0  0
   -1.9465  -10.7423   -3.5183 C   0  0  0  0  0  0  0  0  0  0  0  0
   -3.2272  -10.9157   -4.0567 C   0  0  0  0  0  0  0  0  0  0  0  0
   -4.1290   -9.8925   -4.2322 C   0  0  0  0  0  0  0  0  0  0  0  0
   -3.6633   -8.6371   -3.8322 C   0  0  0  0  0  0  0  0  0  0  0  0
   -4.3212   -7.3307   -3.8739 C   0  0  0  0  0  0  0  0  0  0  0  0
   -5.5786   -7.0930   -4.3754 C   0  0  0  0  0  0  0  0  0  0  0  0
   -6.4506   -8.0926   -4.8518 C   0  0  0  0  0  0  0  0  0  0  0  0
   -7.2187   -8.8518   -5.2430 N   0  0  0  0  0  0  0  0  0  0  0  0
   -6.1798   -5.8281   -4.5232 C   0  0  0  0  0  0  0  0  0  0  0  0
   -6.7336   -4.8372   -4.7076 N   0  0  0  0  0  0  0  0  0  0  0  0
   -3.0401  -12.4025   -4.2321 C   0  0  0  0  0  0  0  0  0  0  0  0
   -3.7293  -13.3121   -3.1934 C   0  0  0  0  0  0  0  0  0  0  0  0
   -2.9951  -14.6273   -3.3200 C   0  0  0  0  0  0  0  0  0  0  0  0
   -1.7820  -14.4633   -2.8081 C   0  0  0  0  0  0  0  0  0  0  0  0
   -1.6759  -13.0341   -2.3270 C   0  0  0  0  0  0  0  0  0  0  0  0
   -3.1244  -12.7977   -1.8806 C   0  0  0  0  0  0  0  0  0  0  0  0
   -1.6113  -12.2092   -3.6297 C   0  0  0  0  0  0  0  0  0  0  0  0
    6.1849    9.3719    4.9401 H   0  0  0  0  0  0  0  0  0  0  0  0
    0.2087    9.0122    6.8698 H   0  0  0  0  0  0  0  0  0  0  0  0
    3.6261   12.0142    9.0973 H   0  0  0  0  0  0  0  0  0  0  0  0
    0.4518   12.8768   10.0734 H   0  0  0  0  0  0  0  0  0  0  0  0
    1.2067   11.8824   12.2275 H   0  0  0  0  0  0  0  0  0  0  0  0
    2.3312    9.5964   11.6408 H   0  0  0  0  0  0  0  0  0  0  0  0
    0.5045    8.0373   10.5062 H   0  0  0  0  0  0  0  0  0  0  0  0
   -1.7472    9.3639   10.3928 H   0  0  0  0  0  0  0  0  0  0  0  0
   -0.9076   10.3580   12.6988 H   0  0  0  0  0  0  0  0  0  0  0  0
   -1.4209   11.7142   11.6638 H   0  0  0  0  0  0  0  0  0  0  0  0
   -1.3210   11.3609    8.9666 H   0  0  0  0  0  0  0  0  0  0  0  0
    7.1202    8.0729    3.1466 H   0  0  0  0  0  0  0  0  0  0  0  0
    6.1219    3.9415    1.6485 H   0  0  0  0  0  0  0  0  0  0  0  0
    7.4958    4.4094    2.6842 H   0  0  0  0  0  0  0  0  0  0  0  0
    8.0527    2.4628    1.1852 H   0  0  0  0  0  0  0  0  0  0  0  0
    9.0746    3.8692    0.8419 H   0  0  0  0  0  0  0  0  0  0  0  0
    7.7256    3.4771   -0.2248 H   0  0  0  0  0  0  0  0  0  0  0  0
    3.6737    2.7698   -3.5299 H   0  0  0  0  0  0  0  0  0  0  0  0
    4.6286    4.0423   -2.7437 H   0  0  0  0  0  0  0  0  0  0  0  0
    6.0687    2.0877   -3.0690 H   0  0  0  0  0  0  0  0  0  0  0  0
    5.7423    2.2472   -1.3365 H   0  0  0  0  0  0  0  0  0  0  0  0
    4.8873    1.0305   -2.2850 H   0  0  0  0  0  0  0  0  0  0  0  0
    5.1662    5.1334   -0.4167 H   0  0  0  0  0  0  0  0  0  0  0  0
    1.8305    0.8405   -2.9420 H   0  0  0  0  0  0  0  0  0  0  0  0
    0.5756   -0.8496    0.6682 H   0  0  0  0  0  0  0  0  0  0  0  0
    1.9930    0.4927    2.1135 H   0  0  0  0  0  0  0  0  0  0  0  0
    3.0125    2.4349    2.8312 H   0  0  0  0  0  0  0  0  0  0  0  0
    4.5260    2.5507    3.7532 H   0  0  0  0  0  0  0  0  0  0  0  0
    3.5753    1.0506    3.8246 H   0  0  0  0  0  0  0  0  0  0  0  0
    5.3526   -0.3700   -0.3824 H   0  0  0  0  0  0  0  0  0  0  0  0
    3.8904   -1.6457   -1.9057 H   0  0  0  0  0  0  0  0  0  0  0  0
    0.9171   -2.1922   -4.2905 H   0  0  0  0  0  0  0  0  0  0  0  0
    1.4554   -4.2231   -5.5952 H   0  0  0  0  0  0  0  0  0  0  0  0
    2.6562   -8.2348   -2.9461 H   0  0  0  0  0  0  0  0  0  0  0  0
    1.0248   -7.5257   -3.1756 H   0  0  0  0  0  0  0  0  0  0  0  0
    1.6055   -8.8313   -4.2503 H   0  0  0  0  0  0  0  0  0  0  0  0
    3.1126   -6.0202   -2.0934 H   0  0  0  0  0  0  0  0  0  0  0  0
    2.5813   -4.0003   -0.7957 H   0  0  0  0  0  0  0  0  0  0  0  0
   -4.5169   -3.9024   -0.3291 H   0  0  0  0  0  0  0  0  0  0  0  0
   -6.2765   -5.2803    0.6280 H   0  0  0  0  0  0  0  0  0  0  0  0
   -8.1138   -5.7931    1.9861 H   0  0  0  0  0  0  0  0  0  0  0  0
   -9.2751   -7.0897    1.6303 H   0  0  0  0  0  0  0  0  0  0  0  0
   -7.6472   -7.1617    0.9228 H   0  0  0  0  0  0  0  0  0  0  0  0
   -9.0070   -3.8650   -2.3479 H   0  0  0  0  0  0  0  0  0  0  0  0
   -7.2192   -2.4896   -3.3291 H   0  0  0  0  0  0  0  0  0  0  0  0
   -6.4045   -0.5728   -1.3274 H   0  0  0  0  0  0  0  0  0  0  0  0
   -6.9351    1.6620   -2.1386 H   0  0  0  0  0  0  0  0  0  0  0  0
   -8.0278    3.3346   -3.3671 H   0  0  0  0  0  0  0  0  0  0  0  0
   -7.2863    4.8944   -3.7834 H   0  0  0  0  0  0  0  0  0  0  0  0
   -6.6578    3.9745   -2.3992 H   0  0  0  0  0  0  0  0  0  0  0  0
   -4.2970    1.0872   -5.4581 H   0  0  0  0  0  0  0  0  0  0  0  0
   -3.7746   -1.1803   -4.6404 H   0  0  0  0  0  0  0  0  0  0  0  0
   -4.7314   -4.7496   -3.2864 H   0  0  0  0  0  0  0  0  0  0  0  0
   -0.4906   -9.3469   -2.6986 H   0  0  0  0  0  0  0  0  0  0  0  0
   -5.1119  -10.0434   -4.6455 H   0  0  0  0  0  0  0  0  0  0  0  0
   -3.1297  -12.7751   -5.2507 H   0  0  0  0  0  0  0  0  0  0  0  0
   -4.8128  -13.3467   -3.2669 H   0  0  0  0  0  0  0  0  0  0  0  0
   -3.4005  -15.4966   -3.8036 H   0  0  0  0  0  0  0  0  0  0  0  0
   -0.9716  -15.1680   -2.7788 H   0  0  0  0  0  0  0  0  0  0  0  0
   -0.8885  -12.8166   -1.6099 H   0  0  0  0  0  0  0  0  0  0  0  0
   -3.3573  -11.7569   -1.6631 H   0  0  0  0  0  0  0  0  0  0  0  0
   -3.3995  -13.4185   -1.0295 H   0  0  0  0  0  0  0  0  0  0  0  0
   -0.7489  -12.4549   -4.2470 H   0  0  0  0  0  0  0  0  0  0  0  0
  1  2  2  0  0  0  0
  2  3  1  0  0  0  0
  3  4  2  0  0  0  0
  3  5  1  0  0  0  0
  5  6  2  0  0  0  0
  6  7  1  0  0  0  0
  7  8  2  0  0  0  0
  8  9  1  0  0  0  0
  9 10  2  0  0  0  0
 10 11  1  0  0  0  0
 11 12  2  0  0  0  0
 12 13  1  0  0  0  0
 13 14  3  0  0  0  0
 12 15  1  0  0  0  0
 15 16  3  0  0  0  0
  8 17  1  0  0  0  0
 17 18  1  0  0  0  0
 18 19  1  0  0  0  0
 19 20  2  0  0  0  0
 20 21  1  0  0  0  0
 21 22  1  0  0  0  0
 21 23  1  0  0  0  0
  1 24  1  0  0  0  0
 24 25  2  0  0  0  0
 25 26  1  0  0  0  0
 26 27  1  0  0  0  0
 27 28  1  0  0  0  0
 28 29  1  0  0  0  0
 26 30  2  0  0  0  0
 30 31  1  0  0  0  0
 30 32  1  0  0  0  0
 32 33  1  0  0  0  0
 33 34  1  0  0  0  0
 34 35  1  0  0  0  0
 35 36  2  0  0  0  0
 36 37  1  0  0  0  0
 37 38  1  0  0  0  0
 38 39  1  0  0  0  0
 37 40  1  0  0  0  0
 40 41  1  0  0  0  0
 36 42  1  0  0  0  0
 42 43  2  0  0  0  0
 43 44  1  0  0  0  0
 43 45  1  0  0  0  0
 45 46  2  0  0  0  0
 46 47  1  0  0  0  0
 47 48  1  0  0  0  0
 48 49  2  0  0  0  0
 49 50  1  0  0  0  0
 50 51  2  0  0  0  0
 51 52  1  0  0  0  0
 52 53  1  0  0  0  0
 51 54  1  0  0  0  0
 54 55  2  0  0  0  0
 47 56  1  0  0  0  0
 56 57  2  0  0  0  0
 57 58  1  0  0  0  0
 58 59  2  0  0  0  0
 59 60  1  0  0  0  0
 60 61  1  0  0  0  0
 59 62  1  0  0  0  0
 62 63  2  0  0  0  0
 46 64  1  0  0  0  0
 64 65  1  0  0  0  0
 65 66  1  0  0  0  0
 66 67  2  0  0  0  0
 67 68  1  0  0  0  0
 68 69  1  0  0  0  0
 69 70  2  0  0  0  0
 70 71  1  0  0  0  0
 71 72  2  0  0  0  0
 72 73  1  0  0  0  0
 73 74  1  0  0  0  0
 72 75  1  0  0  0  0
 75 76  2  0  0  0  0
 68 77  1  0  0  0  0
 77 78  2  0  0  0  0
 78 79  1  0  0  0  0
 79 80  2  0  0  0  0
 80 81  1  0  0  0  0
 81 82  1  0  0  0  0
 80 83  1  0  0  0  0
 83 84  2  0  0  0  0
 67 85  1  0  0  0  0
 85 86  1  0  0  0  0
 66 87  1  0  0  0  0
 87 88  2  0  0  0  0
 88 89  1  0  0  0  0
 89 90  2  0  0  0  0
 89 91  1  0  0  0  0
 91 92  2  0  0  0  0
 92 93  1  0  0  0  0
 93 94  2  0  0  0  0
 94 95  1  0  0  0  0
 95 96  2  0  0  0  0
 96 97  1  0  0  0  0
 97 98  2  0  0  0  0
 98 99  1  0  0  0  0
 99100  3  0  0  0  0
 98101  1  0  0  0  0
101102  3  0  0  0  0
 94103  1  0  0  0  0
103104  1  0  0  0  0
104105  1  0  0  0  0
105106  2  0  0  0  0
106107  1  0  0  0  0
107108  1  0  0  0  0
107109  1  0  0  0  0
 11  2  1  0  0  0  0
 23 17  1  0  0  0  0
 31 24  1  0  0  0  0
 41 32  2  0  0  0  0
 86 45  1  0  0  0  0
 97 88  1  0  0  0  0
109103  1  0  0  0  0
 10  5  1  0  0  0  0
 22 18  1  0  0  0  0
 40 34  2  0  0  0  0
 55 48  1  0  0  0  0
 63 56  1  0  0  0  0
 85 64  2  0  0  0  0
 96 91  1  0  0  0  0
108104  1  0  0  0  0
 23  7  1  0  0  0  0
 44 35  1  0  0  0  0
 76 69  1  0  0  0  0
 84 77  1  0  0  0  0
109 93  1  0  0  0  0
  1110  1  0  0  0  0
  6111  1  0  0  0  0
  9112  1  0  0  0  0
 17113  1  0  0  0  0
 18114  1  0  0  0  0
 19115  1  0  0  0  0
 20116  1  0  0  0  0
 21117  1  0  0  0  0
 22118  1  0  0  0  0
 22119  1  0  0  0  0
 23120  1  0  0  0  0
 25121  1  0  0  0  0
 28122  1  0  0  0  0
 28123  1  0  0  0  0
 29124  1  0  0  0  0
 29125  1  0  0  0  0
 29126  1  0  0  0  0
 38127  1  0  0  0  0
 38128  1  0  0  0  0
 39129  1  0  0  0  0
 39130  1  0  0  0  0
 39131  1  0  0  0  0
 41132  1  0  0  0  0
 42133  1  0  0  0  0
 49134  1  0  0  0  0
 50135  1  0  0  0  0
 53136  1  0  0  0  0
 53137  1  0  0  0  0
 53138  1  0  0  0  0
 54139  1  0  0  0  0
 55140  1  0  0  0  0
 57141  1  0  0  0  0
 58142  1  0  0  0  0
 61143  1  0  0  0  0
 61144  1  0  0  0  0
 61145  1  0  0  0  0
 62146  1  0  0  0  0
 63147  1  0  0  0  0
 70148  1  0  0  0  0
 71149  1  0  0  0  0
 74150  1  0  0  0  0
 74151  1  0  0  0  0
 74152  1  0  0  0  0
 75153  1  0  0  0  0
 76154  1  0  0  0  0
 78155  1  0  0  0  0
 79156  1  0  0  0  0
 82157  1  0  0  0  0
 82158  1  0  0  0  0
 82159  1  0  0  0  0
 83160  1  0  0  0  0
 84161  1  0  0  0  0
 87162  1  0  0  0  0
 92163  1  0  0  0  0
 95164  1  0  0  0  0
103165  1  0  0  0  0
104166  1  0  0  0  0
105167  1  0  0  0  0
106168  1  0  0  0  0
107169  1  0  0  0  0
108170  1  0  0  0  0
108171  1  0  0  0  0
109172  1  0  0  0  0
M  END
