
  xtb     02042217453D
 energy: -330.199525709082 gnorm: 0.000443172066 xtb: 6.4.1 (unknown)
202223  0     0  0            999 V2000
    8.0671    6.2391    0.9473 C   0  0  0  0  0  0  0  0  0  0  0  0
    7.8881    6.5478    2.2720 C   0  0  0  0  0  0  0  0  0  0  0  0
    6.6474    6.3790    3.0361 C   0  0  0  0  0  0  0  0  0  0  0  0
    5.6353    5.7836    2.7017 O   0  0  0  0  0  0  0  0  0  0  0  0
    6.8429    7.0943    4.3071 C   0  0  0  0  0  0  0  0  0  0  0  0
    5.9127    7.2502    5.3328 C   0  0  0  0  0  0  0  0  0  0  0  0
    6.3767    7.9794    6.4009 C   0  0  0  0  0  0  0  0  0  0  0  0
    7.6706    8.5155    6.4463 C   0  0  0  0  0  0  0  0  0  0  0  0
    8.6009    8.3607    5.4454 C   0  0  0  0  0  0  0  0  0  0  0  0
    8.1498    7.6203    4.3488 C   0  0  0  0  0  0  0  0  0  0  0  0
    8.8426    7.2341    3.1208 C   0  0  0  0  0  0  0  0  0  0  0  0
   10.1774    7.4194    2.8691 C   0  0  0  0  0  0  0  0  0  0  0  0
   10.8666    6.9118    1.7483 C   0  0  0  0  0  0  0  0  0  0  0  0
   11.5035    6.4945    0.8882 N   0  0  0  0  0  0  0  0  0  0  0  0
   11.0667    8.0947    3.7305 C   0  0  0  0  0  0  0  0  0  0  0  0
   11.8435    8.6388    4.3776 N   0  0  0  0  0  0  0  0  0  0  0  0
    7.4512    9.1377    7.8028 C   0  0  0  0  0  0  0  0  0  0  0  0
    7.1855   10.6579    7.8311 C   0  0  0  0  0  0  0  0  0  0  0  0
    6.5469   10.8874    9.1821 C   0  0  0  0  0  0  0  0  0  0  0  0
    5.3231   10.3763    9.1421 C   0  0  0  0  0  0  0  0  0  0  0  0
    5.1137    9.7928    7.7633 C   0  0  0  0  0  0  0  0  0  0  0  0
    5.9483   10.7753    6.9316 C   0  0  0  0  0  0  0  0  0  0  0  0
    6.0098    8.5362    7.7538 C   0  0  0  0  0  0  0  0  0  0  0  0
    7.2022    5.5810    0.0585 C   0  0  0  0  0  0  0  0  0  0  0  0
    7.4361    5.4794   -1.3103 C   0  0  0  0  0  0  0  0  0  0  0  0
    6.4604    4.7746   -2.0026 C   0  0  0  0  0  0  0  0  0  0  0  0
    6.4296    4.6889   -3.7661 S   0  0  0  0  0  0  0  0  0  0  0  0
    4.7658    5.4107   -4.0819 C   0  0  0  0  0  0  0  0  0  0  0  0
    4.5472    5.5123   -5.5779 C   0  0  0  0  0  0  0  0  0  0  0  0
    5.4874    4.2453   -1.1581 C   0  0  0  0  0  0  0  0  0  0  0  0
    5.7139    4.7695    0.4778 S   0  0  0  0  0  0  0  0  0  0  0  0
    4.3699    3.4118   -1.4341 C   0  0  0  0  0  0  0  0  0  0  0  0
    4.2387    2.3156   -2.2842 C   0  0  0  0  0  0  0  0  0  0  0  0
    5.2657    1.7377   -2.9993 N   0  0  0  0  0  0  0  0  0  0  0  0
    6.5746    1.7587   -2.4863 C   0  0  0  0  0  0  0  0  0  0  0  0
    7.6676    1.9170   -3.3377 C   0  0  0  0  0  0  0  0  0  0  0  0
    8.9317    2.0861   -2.8187 C   0  0  0  0  0  0  0  0  0  0  0  0
    9.1335    2.1043   -1.4414 C   0  0  0  0  0  0  0  0  0  0  0  0
   10.7624    2.4567   -0.8596 S   0  0  0  0  0  0  0  0  0  0  0  0
   10.4481    3.1701    0.7811 C   0  0  0  0  0  0  0  0  0  0  0  0
    8.0633    1.8510   -0.5936 C   0  0  0  0  0  0  0  0  0  0  0  0
    6.7972    1.6737   -1.1143 C   0  0  0  0  0  0  0  0  0  0  0  0
    4.9852    1.1143   -4.2209 C   0  0  0  0  0  0  0  0  0  0  0  0
    4.0267    1.6501   -5.0825 C   0  0  0  0  0  0  0  0  0  0  0  0
    3.7494    1.0364   -6.2826 C   0  0  0  0  0  0  0  0  0  0  0  0
    4.4245   -0.1237   -6.6565 C   0  0  0  0  0  0  0  0  0  0  0  0
    3.9842   -0.8158   -8.2183 S   0  0  0  0  0  0  0  0  0  0  0  0
    5.1258   -2.2124   -8.4191 C   0  0  0  0  0  0  0  0  0  0  0  0
    5.3802   -0.6599   -5.8031 C   0  0  0  0  0  0  0  0  0  0  0  0
    5.6542   -0.0471   -4.5967 C   0  0  0  0  0  0  0  0  0  0  0  0
    2.9219    1.7893   -2.2123 C   0  0  0  0  0  0  0  0  0  0  0  0
    2.1049    0.4671   -2.9716 S   0  0  0  0  0  0  0  0  0  0  0  0
    0.6515    0.7999   -2.0361 C   0  0  0  0  0  0  0  0  0  0  0  0
    0.8220    1.8421   -1.1332 C   0  0  0  0  0  0  0  0  0  0  0  0
   -0.0688    2.2565   -0.1631 N   0  0  0  0  0  0  0  0  0  0  0  0
    0.1240    3.5472    0.3792 C   0  0  0  0  0  0  0  0  0  0  0  0
    0.1002    4.6669   -0.4495 C   0  0  0  0  0  0  0  0  0  0  0  0
    0.4409    5.9048    0.0530 C   0  0  0  0  0  0  0  0  0  0  0  0
    0.8202    6.0385    1.3855 C   0  0  0  0  0  0  0  0  0  0  0  0
    1.3642    7.6286    1.9270 S   0  0  0  0  0  0  0  0  0  0  0  0
    2.5494    7.2141    3.2422 C   0  0  0  0  0  0  0  0  0  0  0  0
    0.7625    4.9377    2.2315 C   0  0  0  0  0  0  0  0  0  0  0  0
    0.4108    3.7008    1.7319 C   0  0  0  0  0  0  0  0  0  0  0  0
   -0.9721    1.3866    0.4589 C   0  0  0  0  0  0  0  0  0  0  0  0
   -2.2254    1.8640    0.8440 C   0  0  0  0  0  0  0  0  0  0  0  0
   -3.1777    0.9982    1.3319 C   0  0  0  0  0  0  0  0  0  0  0  0
   -2.9027   -0.3635    1.4372 C   0  0  0  0  0  0  0  0  0  0  0  0
   -4.2348   -1.4131    1.9294 S   0  0  0  0  0  0  0  0  0  0  0  0
   -3.5870   -3.0857    1.6665 C   0  0  0  0  0  0  0  0  0  0  0  0
   -1.6277   -0.8277    1.1461 C   0  0  0  0  0  0  0  0  0  0  0  0
   -0.6693    0.0445    0.6706 C   0  0  0  0  0  0  0  0  0  0  0  0
    2.1100    2.4153   -1.2798 C   0  0  0  0  0  0  0  0  0  0  0  0
    2.9340    3.6916   -0.4608 S   0  0  0  0  0  0  0  0  0  0  0  0
   -0.5121   -0.0117   -2.1989 C   0  0  0  0  0  0  0  0  0  0  0  0
   -1.8119    0.3877   -2.0845 C   0  0  0  0  0  0  0  0  0  0  0  0
   -2.7401   -0.6797   -2.0832 C   0  0  0  0  0  0  0  0  0  0  0  0
   -4.1237   -0.6116   -1.8467 C   0  0  0  0  0  0  0  0  0  0  0  0
   -4.8158    0.6761   -1.7209 C   0  0  0  0  0  0  0  0  0  0  0  0
   -4.5817    1.7000   -2.6359 C   0  0  0  0  0  0  0  0  0  0  0  0
   -5.2269    2.9159   -2.4953 C   0  0  0  0  0  0  0  0  0  0  0  0
   -6.1295    3.1164   -1.4689 C   0  0  0  0  0  0  0  0  0  0  0  0
   -6.3948    2.0856   -0.5731 C   0  0  0  0  0  0  0  0  0  0  0  0
   -7.5852    2.3872    0.6995 S   0  0  0  0  0  0  0  0  0  0  0  0
   -8.3544    0.7427    0.9539 C   0  0  0  0  0  0  0  0  0  0  0  0
   -7.8348    0.0281    2.1863 C   0  0  0  0  0  0  0  0  0  0  0  0
   -5.7237    0.8790   -0.6870 C   0  0  0  0  0  0  0  0  0  0  0  0
   -4.7885   -1.8224   -1.7218 C   0  0  0  0  0  0  0  0  0  0  0  0
   -4.1468   -3.0827   -1.8785 C   0  0  0  0  0  0  0  0  0  0  0  0
   -2.7619   -3.1468   -2.1441 C   0  0  0  0  0  0  0  0  0  0  0  0
   -2.0516   -4.4266   -2.2732 C   0  0  0  0  0  0  0  0  0  0  0  0
   -1.1882   -4.6379   -3.3446 C   0  0  0  0  0  0  0  0  0  0  0  0
   -0.4933   -5.8300   -3.4498 C   0  0  0  0  0  0  0  0  0  0  0  0
   -0.6537   -6.8194   -2.5009 C   0  0  0  0  0  0  0  0  0  0  0  0
   -1.5207   -6.6194   -1.4293 C   0  0  0  0  0  0  0  0  0  0  0  0
   -1.6458   -7.9244   -0.2468 S   0  0  0  0  0  0  0  0  0  0  0  0
   -3.2630   -7.6167    0.5596 C   0  0  0  0  0  0  0  0  0  0  0  0
   -3.7081   -8.8742    1.2825 C   0  0  0  0  0  0  0  0  0  0  0  0
   -2.2092   -5.4221   -1.3118 C   0  0  0  0  0  0  0  0  0  0  0  0
   -2.0969   -1.9368   -2.2321 C   0  0  0  0  0  0  0  0  0  0  0  0
   -0.3702   -1.7465   -2.4137 S   0  0  0  0  0  0  0  0  0  0  0  0
   -5.0416   -4.1612   -1.7400 C   0  0  0  0  0  0  0  0  0  0  0  0
   -6.3288   -3.7819   -1.4447 C   0  0  0  0  0  0  0  0  0  0  0  0
   -6.4799   -2.0247   -1.3825 S   0  0  0  0  0  0  0  0  0  0  0  0
   -7.5056   -4.5057   -1.1499 C   0  0  0  0  0  0  0  0  0  0  0  0
   -7.7440   -5.8436   -1.0034 C   0  0  0  0  0  0  0  0  0  0  0  0
   -6.8007   -6.9734   -1.1404 C   0  0  0  0  0  0  0  0  0  0  0  0
   -5.6279   -6.9521   -1.4683 O   0  0  0  0  0  0  0  0  0  0  0  0
   -7.5541   -8.1852   -0.7874 C   0  0  0  0  0  0  0  0  0  0  0  0
   -7.0539   -9.4850   -0.7400 C   0  0  0  0  0  0  0  0  0  0  0  0
   -7.9771  -10.4245   -0.3525 C   0  0  0  0  0  0  0  0  0  0  0  0
   -9.3038  -10.0945   -0.0420 C   0  0  0  0  0  0  0  0  0  0  0  0
   -9.8114   -8.8184   -0.0961 C   0  0  0  0  0  0  0  0  0  0  0  0
   -8.8857   -7.8435   -0.4818 C   0  0  0  0  0  0  0  0  0  0  0  0
   -9.0389   -6.3980   -0.6264 C   0  0  0  0  0  0  0  0  0  0  0  0
  -10.2097   -5.7132   -0.4295 C   0  0  0  0  0  0  0  0  0  0  0  0
  -11.4385   -6.3169   -0.0837 C   0  0  0  0  0  0  0  0  0  0  0  0
  -12.4738   -6.7265    0.1965 N   0  0  0  0  0  0  0  0  0  0  0  0
  -10.4047   -4.3182   -0.5287 C   0  0  0  0  0  0  0  0  0  0  0  0
  -10.6723   -3.2014   -0.5700 N   0  0  0  0  0  0  0  0  0  0  0  0
   -9.6644  -11.5207    0.2881 C   0  0  0  0  0  0  0  0  0  0  0  0
   -9.7688  -11.9070    1.7846 C   0  0  0  0  0  0  0  0  0  0  0  0
   -8.8656  -10.9617    2.5375 C   0  0  0  0  0  0  0  0  0  0  0  0
   -7.6118  -11.2768    2.2408 C   0  0  0  0  0  0  0  0  0  0  0  0
   -7.6445  -12.4402    1.2808 C   0  0  0  0  0  0  0  0  0  0  0  0
   -8.8972  -13.1732    1.7867 C   0  0  0  0  0  0  0  0  0  0  0  0
   -8.1877  -11.8888   -0.0610 C   0  0  0  0  0  0  0  0  0  0  0  0
    8.9925    6.5629    0.4844 H   0  0  0  0  0  0  0  0  0  0  0  0
    4.9272    6.8175    5.2584 H   0  0  0  0  0  0  0  0  0  0  0  0
    9.5934    8.7758    5.4979 H   0  0  0  0  0  0  0  0  0  0  0  0
    8.1273    8.8095    8.5898 H   0  0  0  0  0  0  0  0  0  0  0  0
    8.0453   11.2747    7.5848 H   0  0  0  0  0  0  0  0  0  0  0  0
    7.0541   11.3335   10.0171 H   0  0  0  0  0  0  0  0  0  0  0  0
    4.6037   10.3101    9.9370 H   0  0  0  0  0  0  0  0  0  0  0  0
    4.0855    9.6222    7.4554 H   0  0  0  0  0  0  0  0  0  0  0  0
    6.1148   10.4575    5.9038 H   0  0  0  0  0  0  0  0  0  0  0  0
    5.5286   11.7798    6.9384 H   0  0  0  0  0  0  0  0  0  0  0  0
    5.7257    7.8041    8.5075 H   0  0  0  0  0  0  0  0  0  0  0  0
    8.2858    5.9295   -1.7925 H   0  0  0  0  0  0  0  0  0  0  0  0
    4.0247    4.7640   -3.6130 H   0  0  0  0  0  0  0  0  0  0  0  0
    4.7430    6.3916   -3.6072 H   0  0  0  0  0  0  0  0  0  0  0  0
    5.2999    6.1555   -6.0272 H   0  0  0  0  0  0  0  0  0  0  0  0
    3.5632    5.9300   -5.7807 H   0  0  0  0  0  0  0  0  0  0  0  0
    4.6156    4.5300   -6.0404 H   0  0  0  0  0  0  0  0  0  0  0  0
    7.5136    1.9537   -4.4047 H   0  0  0  0  0  0  0  0  0  0  0  0
    9.7725    2.2450   -3.4752 H   0  0  0  0  0  0  0  0  0  0  0  0
    9.5758    3.8151    0.7289 H   0  0  0  0  0  0  0  0  0  0  0  0
   11.3266    3.7606    1.0226 H   0  0  0  0  0  0  0  0  0  0  0  0
   10.3117    2.3848    1.5196 H   0  0  0  0  0  0  0  0  0  0  0  0
    8.2041    1.7949    0.4743 H   0  0  0  0  0  0  0  0  0  0  0  0
    5.9715    1.4834   -0.4445 H   0  0  0  0  0  0  0  0  0  0  0  0
    3.5069    2.5562   -4.8107 H   0  0  0  0  0  0  0  0  0  0  0  0
    3.0107    1.4522   -6.9504 H   0  0  0  0  0  0  0  0  0  0  0  0
    4.9396   -2.9603   -7.6538 H   0  0  0  0  0  0  0  0  0  0  0  0
    4.9090   -2.6271   -9.3988 H   0  0  0  0  0  0  0  0  0  0  0  0
    6.1522   -1.8589   -8.3874 H   0  0  0  0  0  0  0  0  0  0  0  0
    5.9145   -1.5601   -6.0596 H   0  0  0  0  0  0  0  0  0  0  0  0
    6.3917   -0.4752   -3.9344 H   0  0  0  0  0  0  0  0  0  0  0  0
   -0.1513    4.5504   -1.4935 H   0  0  0  0  0  0  0  0  0  0  0  0
    0.4474    6.7735   -0.5868 H   0  0  0  0  0  0  0  0  0  0  0  0
    3.0882    8.1346    3.4473 H   0  0  0  0  0  0  0  0  0  0  0  0
    3.2374    6.4526    2.8847 H   0  0  0  0  0  0  0  0  0  0  0  0
    2.0257    6.8914    4.1377 H   0  0  0  0  0  0  0  0  0  0  0  0
    1.0130    5.0324    3.2757 H   0  0  0  0  0  0  0  0  0  0  0  0
    0.3900    2.8372    2.3804 H   0  0  0  0  0  0  0  0  0  0  0  0
   -2.4559    2.9125    0.7280 H   0  0  0  0  0  0  0  0  0  0  0  0
   -4.1522    1.3675    1.6092 H   0  0  0  0  0  0  0  0  0  0  0  0
   -3.1725   -3.1570    0.6652 H   0  0  0  0  0  0  0  0  0  0  0  0
   -2.8427   -3.3241    2.4215 H   0  0  0  0  0  0  0  0  0  0  0  0
   -4.4399   -3.7511    1.7659 H   0  0  0  0  0  0  0  0  0  0  0  0
   -1.3642   -1.8648    1.2778 H   0  0  0  0  0  0  0  0  0  0  0  0
    0.3191   -0.3267    0.4437 H   0  0  0  0  0  0  0  0  0  0  0  0
   -2.0967    1.4162   -1.9651 H   0  0  0  0  0  0  0  0  0  0  0  0
   -3.9155    1.5324   -3.4690 H   0  0  0  0  0  0  0  0  0  0  0  0
   -5.0376    3.7091   -3.2035 H   0  0  0  0  0  0  0  0  0  0  0  0
   -6.6456    4.0574   -1.3596 H   0  0  0  0  0  0  0  0  0  0  0  0
   -9.4192    0.9521    1.0556 H   0  0  0  0  0  0  0  0  0  0  0  0
   -8.1922    0.1658    0.0450 H   0  0  0  0  0  0  0  0  0  0  0  0
   -8.0098    0.6310    3.0743 H   0  0  0  0  0  0  0  0  0  0  0  0
   -8.3565   -0.9201    2.3005 H   0  0  0  0  0  0  0  0  0  0  0  0
   -6.7683   -0.1725    2.1145 H   0  0  0  0  0  0  0  0  0  0  0  0
   -5.8775    0.0992    0.0408 H   0  0  0  0  0  0  0  0  0  0  0  0
   -1.0788   -3.8779   -4.1031 H   0  0  0  0  0  0  0  0  0  0  0  0
    0.1729   -5.9903   -4.2840 H   0  0  0  0  0  0  0  0  0  0  0  0
   -0.1176   -7.7528   -2.5761 H   0  0  0  0  0  0  0  0  0  0  0  0
   -3.9680   -7.3513   -0.2276 H   0  0  0  0  0  0  0  0  0  0  0  0
   -3.1476   -6.7886    1.2609 H   0  0  0  0  0  0  0  0  0  0  0  0
   -3.0034   -9.1372    2.0684 H   0  0  0  0  0  0  0  0  0  0  0  0
   -3.7720   -9.7075    0.5868 H   0  0  0  0  0  0  0  0  0  0  0  0
   -4.6887   -8.7135    1.7275 H   0  0  0  0  0  0  0  0  0  0  0  0
   -2.8503   -5.2426   -0.4634 H   0  0  0  0  0  0  0  0  0  0  0  0
   -4.7560   -5.1880   -1.8674 H   0  0  0  0  0  0  0  0  0  0  0  0
   -8.3542   -3.8544   -0.9792 H   0  0  0  0  0  0  0  0  0  0  0  0
   -6.0256   -9.6914   -0.9920 H   0  0  0  0  0  0  0  0  0  0  0  0
  -10.8355   -8.5882    0.1438 H   0  0  0  0  0  0  0  0  0  0  0  0
  -10.4572  -11.9642   -0.3107 H   0  0  0  0  0  0  0  0  0  0  0  0
  -10.7855  -11.9972    2.1569 H   0  0  0  0  0  0  0  0  0  0  0  0
   -9.2219  -10.1508    3.1455 H   0  0  0  0  0  0  0  0  0  0  0  0
   -6.7095  -10.7831    2.5519 H   0  0  0  0  0  0  0  0  0  0  0  0
   -6.7273  -13.0168    1.1943 H   0  0  0  0  0  0  0  0  0  0  0  0
   -9.2526  -13.9457    1.1064 H   0  0  0  0  0  0  0  0  0  0  0  0
   -8.7661  -13.5922    2.7831 H   0  0  0  0  0  0  0  0  0  0  0  0
   -8.0148  -12.5710   -0.8910 H   0  0  0  0  0  0  0  0  0  0  0  0
  1  2  2  0  0  0  0
  2  3  1  0  0  0  0
  3  4  2  0  0  0  0
  3  5  1  0  0  0  0
  5  6  2  0  0  0  0
  6  7  1  0  0  0  0
  7  8  2  0  0  0  0
  8  9  1  0  0  0  0
  9 10  2  0  0  0  0
 10 11  1  0  0  0  0
 11 12  2  0  0  0  0
 12 13  1  0  0  0  0
 13 14  3  0  0  0  0
 12 15  1  0  0  0  0
 15 16  3  0  0  0  0
  8 17  1  0  0  0  0
 17 18  1  0  0  0  0
 18 19  1  0  0  0  0
 19 20  2  0  0  0  0
 20 21  1  0  0  0  0
 21 22  1  0  0  0  0
 21 23  1  0  0  0  0
  1 24  1  0  0  0  0
 24 25  2  0  0  0  0
 25 26  1  0  0  0  0
 26 27  1  0  0  0  0
 27 28  1  0  0  0  0
 28 29  1  0  0  0  0
 26 30  2  0  0  0  0
 30 31  1  0  0  0  0
 30 32  1  0  0  0  0
 32 33  2  0  0  0  0
 33 34  1  0  0  0  0
 34 35  1  0  0  0  0
 35 36  2  0  0  0  0
 36 37  1  0  0  0  0
 37 38  2  0  0  0  0
 38 39  1  0  0  0  0
 39 40  1  0  0  0  0
 38 41  1  0  0  0  0
 41 42  2  0  0  0  0
 34 43  1  0  0  0  0
 43 44  2  0  0  0  0
 44 45  1  0  0  0  0
 45 46  2  0  0  0  0
 46 47  1  0  0  0  0
 47 48  1  0  0  0  0
 46 49  1  0  0  0  0
 49 50  2  0  0  0  0
 33 51  1  0  0  0  0
 51 52  1  0  0  0  0
 52 53  1  0  0  0  0
 53 54  2  0  0  0  0
 54 55  1  0  0  0  0
 55 56  1  0  0  0  0
 56 57  2  0  0  0  0
 57 58  1  0  0  0  0
 58 59  2  0  0  0  0
 59 60  1  0  0  0  0
 60 61  1  0  0  0  0
 59 62  1  0  0  0  0
 62 63  2  0  0  0  0
 55 64  1  0  0  0  0
 64 65  2  0  0  0  0
 65 66  1  0  0  0  0
 66 67  2  0  0  0  0
 67 68  1  0  0  0  0
 68 69  1  0  0  0  0
 67 70  1  0  0  0  0
 70 71  2  0  0  0  0
 54 72  1  0  0  0  0
 72 73  1  0  0  0  0
 53 74  1  0  0  0  0
 74 75  2  0  0  0  0
 75 76  1  0  0  0  0
 76 77  2  0  0  0  0
 77 78  1  0  0  0  0
 78 79  2  0  0  0  0
 79 80  1  0  0  0  0
 80 81  2  0  0  0  0
 81 82  1  0  0  0  0
 82 83  1  0  0  0  0
 83 84  1  0  0  0  0
 84 85  1  0  0  0  0
 82 86  2  0  0  0  0
 77 87  1  0  0  0  0
 87 88  2  0  0  0  0
 88 89  1  0  0  0  0
 89 90  1  0  0  0  0
 90 91  2  0  0  0  0
 91 92  1  0  0  0  0
 92 93  2  0  0  0  0
 93 94  1  0  0  0  0
 94 95  1  0  0  0  0
 95 96  1  0  0  0  0
 96 97  1  0  0  0  0
 94 98  2  0  0  0  0
 89 99  2  0  0  0  0
 99100  1  0  0  0  0
 88101  1  0  0  0  0
101102  2  0  0  0  0
102103  1  0  0  0  0
102104  1  0  0  0  0
104105  2  0  0  0  0
105106  1  0  0  0  0
106107  2  0  0  0  0
106108  1  0  0  0  0
108109  2  0  0  0  0
109110  1  0  0  0  0
110111  2  0  0  0  0
111112  1  0  0  0  0
112113  2  0  0  0  0
113114  1  0  0  0  0
114115  2  0  0  0  0
115116  1  0  0  0  0
116117  3  0  0  0  0
115118  1  0  0  0  0
118119  3  0  0  0  0
111120  1  0  0  0  0
120121  1  0  0  0  0
121122  1  0  0  0  0
122123  2  0  0  0  0
123124  1  0  0  0  0
124125  1  0  0  0  0
124126  1  0  0  0  0
 11  2  1  0  0  0  0
 23 17  1  0  0  0  0
 31 24  1  0  0  0  0
 73 32  1  0  0  0  0
100 74  1  0  0  0  0
114105  1  0  0  0  0
126120  1  0  0  0  0
 10  5  1  0  0  0  0
 22 18  1  0  0  0  0
 42 35  1  0  0  0  0
 50 43  1  0  0  0  0
 72 51  2  0  0  0  0
 99 76  1  0  0  0  0
113108  1  0  0  0  0
125121  1  0  0  0  0
 23  7  1  0  0  0  0
 63 56  1  0  0  0  0
 71 64  1  0  0  0  0
 86 78  1  0  0  0  0
103 87  1  0  0  0  0
126110  1  0  0  0  0
 98 90  1  0  0  0  0
  1127  1  0  0  0  0
  6128  1  0  0  0  0
  9129  1  0  0  0  0
 17130  1  0  0  0  0
 18131  1  0  0  0  0
 19132  1  0  0  0  0
 20133  1  0  0  0  0
 21134  1  0  0  0  0
 22135  1  0  0  0  0
 22136  1  0  0  0  0
 23137  1  0  0  0  0
 25138  1  0  0  0  0
 28139  1  0  0  0  0
 28140  1  0  0  0  0
 29141  1  0  0  0  0
 29142  1  0  0  0  0
 29143  1  0  0  0  0
 36144  1  0  0  0  0
 37145  1  0  0  0  0
 40146  1  0  0  0  0
 40147  1  0  0  0  0
 40148  1  0  0  0  0
 41149  1  0  0  0  0
 42150  1  0  0  0  0
 44151  1  0  0  0  0
 45152  1  0  0  0  0
 48153  1  0  0  0  0
 48154  1  0  0  0  0
 48155  1  0  0  0  0
 49156  1  0  0  0  0
 50157  1  0  0  0  0
 57158  1  0  0  0  0
 58159  1  0  0  0  0
 61160  1  0  0  0  0
 61161  1  0  0  0  0
 61162  1  0  0  0  0
 62163  1  0  0  0  0
 63164  1  0  0  0  0
 65165  1  0  0  0  0
 66166  1  0  0  0  0
 69167  1  0  0  0  0
 69168  1  0  0  0  0
 69169  1  0  0  0  0
 70170  1  0  0  0  0
 71171  1  0  0  0  0
 75172  1  0  0  0  0
 79173  1  0  0  0  0
 80174  1  0  0  0  0
 81175  1  0  0  0  0
 84176  1  0  0  0  0
 84177  1  0  0  0  0
 85178  1  0  0  0  0
 85179  1  0  0  0  0
 85180  1  0  0  0  0
 86181  1  0  0  0  0
 91182  1  0  0  0  0
 92183  1  0  0  0  0
 93184  1  0  0  0  0
 96185  1  0  0  0  0
 96186  1  0  0  0  0
 97187  1  0  0  0  0
 97188  1  0  0  0  0
 97189  1  0  0  0  0
 98190  1  0  0  0  0
101191  1  0  0  0  0
104192  1  0  0  0  0
109193  1  0  0  0  0
112194  1  0  0  0  0
120195  1  0  0  0  0
121196  1  0  0  0  0
122197  1  0  0  0  0
123198  1  0  0  0  0
124199  1  0  0  0  0
125200  1  0  0  0  0
125201  1  0  0  0  0
126202  1  0  0  0  0
M  END
