
  xtb     02052202073D
 energy: -285.344736839381 gnorm: 0.002045503895 xtb: 6.4.1 (unknown)
169187  0     0  0            999 V2000
   -0.5537   -6.9283    1.0153 C   0  0  0  0  0  0  0  0  0  0  0  0
   -0.7160   -7.8864    1.9849 C   0  0  0  0  0  0  0  0  0  0  0  0
   -1.0288   -7.6922    3.4162 C   0  0  0  0  0  0  0  0  0  0  0  0
   -1.3720   -6.6768    3.9904 O   0  0  0  0  0  0  0  0  0  0  0  0
   -0.7946   -9.0011    4.0588 C   0  0  0  0  0  0  0  0  0  0  0  0
   -0.8955   -9.2921    5.4173 C   0  0  0  0  0  0  0  0  0  0  0  0
   -0.5989  -10.5964    5.7338 C   0  0  0  0  0  0  0  0  0  0  0  0
   -0.2212  -11.5416    4.7711 C   0  0  0  0  0  0  0  0  0  0  0  0
   -0.1192  -11.2681    3.4277 C   0  0  0  0  0  0  0  0  0  0  0  0
   -0.4247   -9.9477    3.0841 C   0  0  0  0  0  0  0  0  0  0  0  0
   -0.4319   -9.2907    1.7799 C   0  0  0  0  0  0  0  0  0  0  0  0
   -0.2809   -9.9264    0.5712 C   0  0  0  0  0  0  0  0  0  0  0  0
   -0.4065   -9.3251   -0.6955 C   0  0  0  0  0  0  0  0  0  0  0  0
   -0.5125   -8.9414   -1.7748 N   0  0  0  0  0  0  0  0  0  0  0  0
   -0.0287  -11.3053    0.4209 C   0  0  0  0  0  0  0  0  0  0  0  0
    0.1807  -12.4167    0.2195 N   0  0  0  0  0  0  0  0  0  0  0  0
   -0.0682  -12.6406    5.7933 C   0  0  0  0  0  0  0  0  0  0  0  0
   -1.2061  -13.6806    5.8620 C   0  0  0  0  0  0  0  0  0  0  0  0
   -1.0351  -14.3151    7.2234 C   0  0  0  0  0  0  0  0  0  0  0  0
   -1.3986  -13.4208    8.1339 C   0  0  0  0  0  0  0  0  0  0  0  0
   -1.8210  -12.1667    7.4031 C   0  0  0  0  0  0  0  0  0  0  0  0
   -2.4242  -12.7893    6.1374 C   0  0  0  0  0  0  0  0  0  0  0  0
   -0.4946  -11.5877    6.8663 C   0  0  0  0  0  0  0  0  0  0  0  0
   -0.8576   -5.5600    1.0261 C   0  0  0  0  0  0  0  0  0  0  0  0
   -1.6295   -4.7729    1.8640 C   0  0  0  0  0  0  0  0  0  0  0  0
   -1.7220   -3.4498    1.4579 C   0  0  0  0  0  0  0  0  0  0  0  0
   -2.6335   -2.2440    2.3612 S   0  0  0  0  0  0  0  0  0  0  0  0
   -1.8780   -2.4785    4.0147 C   0  0  0  0  0  0  0  0  0  0  0  0
   -0.3837   -2.2381    3.9866 C   0  0  0  0  0  0  0  0  0  0  0  0
   -1.0499   -3.1676    0.2617 C   0  0  0  0  0  0  0  0  0  0  0  0
   -0.2641   -4.6030   -0.3201 S   0  0  0  0  0  0  0  0  0  0  0  0
   -0.8865   -1.9198   -0.3734 C   0  0  0  0  0  0  0  0  0  0  0  0
   -0.3548   -1.6456   -1.6418 C   0  0  0  0  0  0  0  0  0  0  0  0
   -0.1492   -2.5507   -2.6557 N   0  0  0  0  0  0  0  0  0  0  0  0
    0.8339   -2.2559   -3.6200 C   0  0  0  0  0  0  0  0  0  0  0  0
    0.5416   -2.3356   -4.9811 C   0  0  0  0  0  0  0  0  0  0  0  0
    1.4872   -1.9712   -5.9112 C   0  0  0  0  0  0  0  0  0  0  0  0
    2.7421   -1.5198   -5.5053 C   0  0  0  0  0  0  0  0  0  0  0  0
    3.8545   -1.0357   -6.7809 S   0  0  0  0  0  0  0  0  0  0  0  0
    5.1718   -0.1605   -5.8879 C   0  0  0  0  0  0  0  0  0  0  0  0
    3.0521   -1.4847   -4.1525 C   0  0  0  0  0  0  0  0  0  0  0  0
    2.1033   -1.8519   -3.2185 C   0  0  0  0  0  0  0  0  0  0  0  0
   -1.0178   -3.6272   -2.8824 C   0  0  0  0  0  0  0  0  0  0  0  0
   -0.5173   -4.8168   -3.4113 C   0  0  0  0  0  0  0  0  0  0  0  0
   -1.3379   -5.9104   -3.5961 C   0  0  0  0  0  0  0  0  0  0  0  0
   -2.6837   -5.8329   -3.2569 C   0  0  0  0  0  0  0  0  0  0  0  0
   -3.8227   -7.1625   -3.4145 S   0  0  0  0  0  0  0  0  0  0  0  0
   -2.8185   -8.5334   -4.0500 C   0  0  0  0  0  0  0  0  0  0  0  0
   -3.1950   -4.6333   -2.7585 C   0  0  0  0  0  0  0  0  0  0  0  0
   -2.3769   -3.5430   -2.5752 C   0  0  0  0  0  0  0  0  0  0  0  0
   -0.0947   -0.2611   -1.7906 C   0  0  0  0  0  0  0  0  0  0  0  0
    0.5554    0.6859   -3.0773 S   0  0  0  0  0  0  0  0  0  0  0  0
    0.3360    2.1591   -2.1244 C   0  0  0  0  0  0  0  0  0  0  0  0
   -0.3202    1.9095   -0.9053 C   0  0  0  0  0  0  0  0  0  0  0  0
   -0.7973    2.8272    0.0003 N   0  0  0  0  0  0  0  0  0  0  0  0
   -0.9539    2.4162    1.3424 C   0  0  0  0  0  0  0  0  0  0  0  0
    0.1148    1.8607    2.0429 C   0  0  0  0  0  0  0  0  0  0  0  0
   -0.0618    1.4296    3.3391 C   0  0  0  0  0  0  0  0  0  0  0  0
   -1.3089    1.5337    3.9537 C   0  0  0  0  0  0  0  0  0  0  0  0
   -1.4369    0.8980    5.5931 S   0  0  0  0  0  0  0  0  0  0  0  0
   -3.2221    0.9210    5.9278 C   0  0  0  0  0  0  0  0  0  0  0  0
   -2.3647    2.1205    3.2682 C   0  0  0  0  0  0  0  0  0  0  0  0
   -2.1841    2.5623    1.9731 C   0  0  0  0  0  0  0  0  0  0  0  0
   -1.2334    4.1101   -0.3409 C   0  0  0  0  0  0  0  0  0  0  0  0
   -1.0291    5.1624    0.5564 C   0  0  0  0  0  0  0  0  0  0  0  0
   -1.3252    6.4530    0.1890 C   0  0  0  0  0  0  0  0  0  0  0  0
   -1.8344    6.7295   -1.0795 C   0  0  0  0  0  0  0  0  0  0  0  0
   -2.0125    8.4344   -1.4934 S   0  0  0  0  0  0  0  0  0  0  0  0
   -2.8351    8.4171   -3.1101 C   0  0  0  0  0  0  0  0  0  0  0  0
   -2.1253    5.6792   -1.9405 C   0  0  0  0  0  0  0  0  0  0  0  0
   -1.8362    4.3806   -1.5681 C   0  0  0  0  0  0  0  0  0  0  0  0
   -0.5047    0.5183   -0.7220 C   0  0  0  0  0  0  0  0  0  0  0  0
   -1.2167   -0.4409    0.5361 S   0  0  0  0  0  0  0  0  0  0  0  0
    0.8508    3.3540   -2.6645 C   0  0  0  0  0  0  0  0  0  0  0  0
    1.1363    4.8023   -1.7121 S   0  0  0  0  0  0  0  0  0  0  0  0
    1.5081    5.7677   -3.1319 C   0  0  0  0  0  0  0  0  0  0  0  0
    1.5625    4.9291   -4.2347 C   0  0  0  0  0  0  0  0  0  0  0  0
    1.8609    5.0813   -5.6685 C   0  0  0  0  0  0  0  0  0  0  0  0
    2.1941    6.0557   -6.2960 O   0  0  0  0  0  0  0  0  0  0  0  0
    1.7126    3.8022   -6.1925 N   0  0  0  0  0  0  0  0  0  0  0  0
    1.9225    3.4827   -7.5888 C   0  0  0  0  0  0  0  0  0  0  0  0
    0.6047    3.4354   -8.3528 C   0  0  0  0  0  0  0  0  0  0  0  0
    1.3379    2.8533   -5.2464 C   0  0  0  0  0  0  0  0  0  0  0  0
    1.1854    1.6772   -5.4863 O   0  0  0  0  0  0  0  0  0  0  0  0
    1.2323    3.5927   -3.9829 C   0  0  0  0  0  0  0  0  0  0  0  0
    1.5369    7.1701   -3.2017 C   0  0  0  0  0  0  0  0  0  0  0  0
    1.4617    8.0672   -2.1725 C   0  0  0  0  0  0  0  0  0  0  0  0
    1.6792    7.7489   -0.7544 C   0  0  0  0  0  0  0  0  0  0  0  0
    1.7555    6.6432   -0.2466 O   0  0  0  0  0  0  0  0  0  0  0  0
    1.8409    9.0400   -0.0691 C   0  0  0  0  0  0  0  0  0  0  0  0
    2.1484    9.2438    1.2740 C   0  0  0  0  0  0  0  0  0  0  0  0
    2.2446   10.5671    1.6300 C   0  0  0  0  0  0  0  0  0  0  0  0
    2.0512   11.6147    0.7188 C   0  0  0  0  0  0  0  0  0  0  0  0
    1.7541   11.4280   -0.6109 C   0  0  0  0  0  0  0  0  0  0  0  0
    1.6476   10.0888   -0.9931 C   0  0  0  0  0  0  0  0  0  0  0  0
    1.3189    9.5038   -2.2889 C   0  0  0  0  0  0  0  0  0  0  0  0
    0.8136   10.1677   -3.3747 C   0  0  0  0  0  0  0  0  0  0  0  0
    0.2745    9.5189   -4.5055 C   0  0  0  0  0  0  0  0  0  0  0  0
   -0.2578    9.0497   -5.4084 N   0  0  0  0  0  0  0  0  0  0  0  0
    0.6555   11.5662   -3.4496 C   0  0  0  0  0  0  0  0  0  0  0  0
    0.5102   12.6985   -3.5717 N   0  0  0  0  0  0  0  0  0  0  0  0
    2.2842   12.6738    1.7668 C   0  0  0  0  0  0  0  0  0  0  0  0
    1.0419   13.3960    2.3464 C   0  0  0  0  0  0  0  0  0  0  0  0
   -0.1150   12.4372    2.2118 C   0  0  0  0  0  0  0  0  0  0  0  0
    0.0761   11.4484    3.0748 C   0  0  0  0  0  0  0  0  0  0  0  0
    1.3671   11.7198    3.8074 C   0  0  0  0  0  0  0  0  0  0  0  0
    1.3376   13.2557    3.8485 C   0  0  0  0  0  0  0  0  0  0  0  0
    2.5062   11.5067    2.7800 C   0  0  0  0  0  0  0  0  0  0  0  0
   -0.0946   -7.2558    0.0894 H   0  0  0  0  0  0  0  0  0  0  0  0
   -1.1815   -8.5320    6.1276 H   0  0  0  0  0  0  0  0  0  0  0  0
    0.1811  -12.0035    2.7004 H   0  0  0  0  0  0  0  0  0  0  0  0
    0.9220  -13.0866    5.8662 H   0  0  0  0  0  0  0  0  0  0  0  0
   -1.2593  -14.3537    5.0107 H   0  0  0  0  0  0  0  0  0  0  0  0
   -0.6279  -15.2966    7.3810 H   0  0  0  0  0  0  0  0  0  0  0  0
   -1.3557  -13.5061    9.2040 H   0  0  0  0  0  0  0  0  0  0  0  0
   -2.4352  -11.4613    7.9565 H   0  0  0  0  0  0  0  0  0  0  0  0
   -2.6362  -12.0716    5.3471 H   0  0  0  0  0  0  0  0  0  0  0  0
   -3.3196  -13.3706    6.3512 H   0  0  0  0  0  0  0  0  0  0  0  0
    0.2098  -11.3348    7.6569 H   0  0  0  0  0  0  0  0  0  0  0  0
   -2.1146   -5.1649    2.7377 H   0  0  0  0  0  0  0  0  0  0  0  0
   -2.3819   -1.7450    4.6414 H   0  0  0  0  0  0  0  0  0  0  0  0
   -2.1202   -3.4808    4.3642 H   0  0  0  0  0  0  0  0  0  0  0  0
    0.1217   -3.0245    3.4290 H   0  0  0  0  0  0  0  0  0  0  0  0
   -0.1649   -1.2802    3.5197 H   0  0  0  0  0  0  0  0  0  0  0  0
    0.0035   -2.2294    5.0028 H   0  0  0  0  0  0  0  0  0  0  0  0
   -0.4383   -2.6587   -5.2990 H   0  0  0  0  0  0  0  0  0  0  0  0
    1.2587   -2.0071   -6.9650 H   0  0  0  0  0  0  0  0  0  0  0  0
    4.7328    0.6182   -5.2707 H   0  0  0  0  0  0  0  0  0  0  0  0
    5.7532   -0.8585   -5.2919 H   0  0  0  0  0  0  0  0  0  0  0  0
    5.8044    0.2812   -6.6519 H   0  0  0  0  0  0  0  0  0  0  0  0
    4.0249   -1.1707   -3.8103 H   0  0  0  0  0  0  0  0  0  0  0  0
    2.3421   -1.8174   -2.1652 H   0  0  0  0  0  0  0  0  0  0  0  0
    0.5321   -4.8864   -3.6553 H   0  0  0  0  0  0  0  0  0  0  0  0
   -0.9125   -6.8223   -3.9796 H   0  0  0  0  0  0  0  0  0  0  0  0
   -3.4961   -9.3786   -4.1236 H   0  0  0  0  0  0  0  0  0  0  0  0
   -2.0183   -8.7579   -3.3502 H   0  0  0  0  0  0  0  0  0  0  0  0
   -2.4341   -8.2826   -5.0346 H   0  0  0  0  0  0  0  0  0  0  0  0
   -4.2450   -4.5719   -2.5162 H   0  0  0  0  0  0  0  0  0  0  0  0
   -2.7868   -2.6215   -2.1892 H   0  0  0  0  0  0  0  0  0  0  0  0
    1.0771    1.7697    1.5620 H   0  0  0  0  0  0  0  0  0  0  0  0
    0.7632    1.0069    3.8924 H   0  0  0  0  0  0  0  0  0  0  0  0
   -3.3500    0.3930    6.8681 H   0  0  0  0  0  0  0  0  0  0  0  0
   -3.5728    1.9437    6.0322 H   0  0  0  0  0  0  0  0  0  0  0  0
   -3.7522    0.4013    5.1345 H   0  0  0  0  0  0  0  0  0  0  0  0
   -3.3334    2.2334    3.7266 H   0  0  0  0  0  0  0  0  0  0  0  0
   -3.0067    3.0117    1.4369 H   0  0  0  0  0  0  0  0  0  0  0  0
   -0.5899    4.9635    1.5213 H   0  0  0  0  0  0  0  0  0  0  0  0
   -1.1312    7.2707    0.8657 H   0  0  0  0  0  0  0  0  0  0  0  0
   -3.7755    7.8796   -3.0357 H   0  0  0  0  0  0  0  0  0  0  0  0
   -2.1824    7.9825   -3.8616 H   0  0  0  0  0  0  0  0  0  0  0  0
   -3.0237    9.4583   -3.3529 H   0  0  0  0  0  0  0  0  0  0  0  0
   -2.5560    5.8594   -2.9121 H   0  0  0  0  0  0  0  0  0  0  0  0
   -2.0467    3.5718   -2.2519 H   0  0  0  0  0  0  0  0  0  0  0  0
    2.5760    4.2566   -7.9977 H   0  0  0  0  0  0  0  0  0  0  0  0
    2.4196    2.5099   -7.6372 H   0  0  0  0  0  0  0  0  0  0  0  0
    0.7948    3.2008   -9.3962 H   0  0  0  0  0  0  0  0  0  0  0  0
   -0.0407    2.6683   -7.9330 H   0  0  0  0  0  0  0  0  0  0  0  0
    0.0995    4.3959   -8.2955 H   0  0  0  0  0  0  0  0  0  0  0  0
    1.6040    7.5471   -4.2168 H   0  0  0  0  0  0  0  0  0  0  0  0
    2.2902    8.4095    1.9432 H   0  0  0  0  0  0  0  0  0  0  0  0
    1.6210   12.2412   -1.3056 H   0  0  0  0  0  0  0  0  0  0  0  0
    3.1112   13.3565    1.5827 H   0  0  0  0  0  0  0  0  0  0  0  0
    0.8818   14.3985    1.9589 H   0  0  0  0  0  0  0  0  0  0  0  0
   -0.8986   12.5421    1.4845 H   0  0  0  0  0  0  0  0  0  0  0  0
   -0.5169   10.5633    3.2126 H   0  0  0  0  0  0  0  0  0  0  0  0
    1.5054   11.1957    4.7497 H   0  0  0  0  0  0  0  0  0  0  0  0
    0.5356   13.6450    4.4739 H   0  0  0  0  0  0  0  0  0  0  0  0
    2.2860   13.7000    4.1477 H   0  0  0  0  0  0  0  0  0  0  0  0
    3.4831   11.4217    3.2524 H   0  0  0  0  0  0  0  0  0  0  0  0
  1  2  2  0  0  0  0
  2  3  1  0  0  0  0
  3  4  2  0  0  0  0
  3  5  1  0  0  0  0
  5  6  2  0  0  0  0
  6  7  1  0  0  0  0
  7  8  2  0  0  0  0
  8  9  1  0  0  0  0
  9 10  2  0  0  0  0
 10 11  1  0  0  0  0
 11 12  2  0  0  0  0
 12 13  1  0  0  0  0
 13 14  3  0  0  0  0
 12 15  1  0  0  0  0
 15 16  3  0  0  0  0
  8 17  1  0  0  0  0
 17 18  1  0  0  0  0
 18 19  1  0  0  0  0
 19 20  2  0  0  0  0
 20 21  1  0  0  0  0
 21 22  1  0  0  0  0
 21 23  1  0  0  0  0
  1 24  1  0  0  0  0
 24 25  2  0  0  0  0
 25 26  1  0  0  0  0
 26 27  1  0  0  0  0
 27 28  1  0  0  0  0
 28 29  1  0  0  0  0
 26 30  2  0  0  0  0
 30 31  1  0  0  0  0
 30 32  1  0  0  0  0
 32 33  2  0  0  0  0
 33 34  1  0  0  0  0
 34 35  1  0  0  0  0
 35 36  2  0  0  0  0
 36 37  1  0  0  0  0
 37 38  2  0  0  0  0
 38 39  1  0  0  0  0
 39 40  1  0  0  0  0
 38 41  1  0  0  0  0
 41 42  2  0  0  0  0
 34 43  1  0  0  0  0
 43 44  2  0  0  0  0
 44 45  1  0  0  0  0
 45 46  2  0  0  0  0
 46 47  1  0  0  0  0
 47 48  1  0  0  0  0
 46 49  1  0  0  0  0
 49 50  2  0  0  0  0
 33 51  1  0  0  0  0
 51 52  1  0  0  0  0
 52 53  1  0  0  0  0
 53 54  2  0  0  0  0
 54 55  1  0  0  0  0
 55 56  1  0  0  0  0
 56 57  2  0  0  0  0
 57 58  1  0  0  0  0
 58 59  2  0  0  0  0
 59 60  1  0  0  0  0
 60 61  1  0  0  0  0
 59 62  1  0  0  0  0
 62 63  2  0  0  0  0
 55 64  1  0  0  0  0
 64 65  2  0  0  0  0
 65 66  1  0  0  0  0
 66 67  2  0  0  0  0
 67 68  1  0  0  0  0
 68 69  1  0  0  0  0
 67 70  1  0  0  0  0
 70 71  2  0  0  0  0
 54 72  1  0  0  0  0
 72 73  1  0  0  0  0
 53 74  1  0  0  0  0
 74 75  1  0  0  0  0
 75 76  1  0  0  0  0
 76 77  2  0  0  0  0
 77 78  1  0  0  0  0
 78 79  2  0  0  0  0
 78 80  1  0  0  0  0
 80 81  1  0  0  0  0
 81 82  1  0  0  0  0
 80 83  1  0  0  0  0
 83 84  2  0  0  0  0
 83 85  1  0  0  0  0
 76 86  1  0  0  0  0
 86 87  2  0  0  0  0
 87 88  1  0  0  0  0
 88 89  2  0  0  0  0
 88 90  1  0  0  0  0
 90 91  2  0  0  0  0
 91 92  1  0  0  0  0
 92 93  2  0  0  0  0
 93 94  1  0  0  0  0
 94 95  2  0  0  0  0
 95 96  1  0  0  0  0
 96 97  2  0  0  0  0
 97 98  1  0  0  0  0
 98 99  3  0  0  0  0
 97100  1  0  0  0  0
100101  3  0  0  0  0
 93102  1  0  0  0  0
102103  1  0  0  0  0
103104  1  0  0  0  0
104105  2  0  0  0  0
105106  1  0  0  0  0
106107  1  0  0  0  0
106108  1  0  0  0  0
 11  2  1  0  0  0  0
 23 17  1  0  0  0  0
 31 24  1  0  0  0  0
 73 32  1  0  0  0  0
 85 74  2  0  0  0  0
 96 87  1  0  0  0  0
108102  1  0  0  0  0
 10  5  1  0  0  0  0
 22 18  1  0  0  0  0
 42 35  1  0  0  0  0
 50 43  1  0  0  0  0
 72 51  2  0  0  0  0
 85 77  1  0  0  0  0
 95 90  1  0  0  0  0
107103  1  0  0  0  0
 23  7  1  0  0  0  0
 63 56  1  0  0  0  0
 71 64  1  0  0  0  0
108 92  1  0  0  0  0
  1109  1  0  0  0  0
  6110  1  0  0  0  0
  9111  1  0  0  0  0
 17112  1  0  0  0  0
 18113  1  0  0  0  0
 19114  1  0  0  0  0
 20115  1  0  0  0  0
 21116  1  0  0  0  0
 22117  1  0  0  0  0
 22118  1  0  0  0  0
 23119  1  0  0  0  0
 25120  1  0  0  0  0
 28121  1  0  0  0  0
 28122  1  0  0  0  0
 29123  1  0  0  0  0
 29124  1  0  0  0  0
 29125  1  0  0  0  0
 36126  1  0  0  0  0
 37127  1  0  0  0  0
 40128  1  0  0  0  0
 40129  1  0  0  0  0
 40130  1  0  0  0  0
 41131  1  0  0  0  0
 42132  1  0  0  0  0
 44133  1  0  0  0  0
 45134  1  0  0  0  0
 48135  1  0  0  0  0
 48136  1  0  0  0  0
 48137  1  0  0  0  0
 49138  1  0  0  0  0
 50139  1  0  0  0  0
 57140  1  0  0  0  0
 58141  1  0  0  0  0
 61142  1  0  0  0  0
 61143  1  0  0  0  0
 61144  1  0  0  0  0
 62145  1  0  0  0  0
 63146  1  0  0  0  0
 65147  1  0  0  0  0
 66148  1  0  0  0  0
 69149  1  0  0  0  0
 69150  1  0  0  0  0
 69151  1  0  0  0  0
 70152  1  0  0  0  0
 71153  1  0  0  0  0
 81154  1  0  0  0  0
 81155  1  0  0  0  0
 82156  1  0  0  0  0
 82157  1  0  0  0  0
 82158  1  0  0  0  0
 86159  1  0  0  0  0
 91160  1  0  0  0  0
 94161  1  0  0  0  0
102162  1  0  0  0  0
103163  1  0  0  0  0
104164  1  0  0  0  0
105165  1  0  0  0  0
106166  1  0  0  0  0
107167  1  0  0  0  0
107168  1  0  0  0  0
108169  1  0  0  0  0
M  END
