
  xtb     02092214113D
 energy: -259.905170668495 gnorm: 0.000731992968 xtb: 6.4.1 (unknown)
153167  0     0  0            999 V2000
   -1.4477    0.9850   -5.5806 C   0  0  0  0  0  0  0  0  0  0  0  0
   -2.3944    0.5800   -6.4819 C   0  0  0  0  0  0  0  0  0  0  0  0
   -3.7138   -0.0388   -6.2340 C   0  0  0  0  0  0  0  0  0  0  0  0
   -4.3239   -0.1618   -5.1859 O   0  0  0  0  0  0  0  0  0  0  0  0
   -4.1949   -0.5092   -7.5448 C   0  0  0  0  0  0  0  0  0  0  0  0
   -5.3860   -1.1862   -7.8002 C   0  0  0  0  0  0  0  0  0  0  0  0
   -5.5703   -1.5184   -9.1200 C   0  0  0  0  0  0  0  0  0  0  0  0
   -4.6326   -1.2099  -10.1147 C   0  0  0  0  0  0  0  0  0  0  0  0
   -3.4597   -0.5341   -9.8781 C   0  0  0  0  0  0  0  0  0  0  0  0
   -3.2612   -0.1720   -8.5426 C   0  0  0  0  0  0  0  0  0  0  0  0
   -2.1718    0.5731   -7.9196 C   0  0  0  0  0  0  0  0  0  0  0  0
   -1.1678    1.2109   -8.6005 C   0  0  0  0  0  0  0  0  0  0  0  0
   -0.1638    2.0268   -8.0358 C   0  0  0  0  0  0  0  0  0  0  0  0
    0.6771    2.7236   -7.6783 N   0  0  0  0  0  0  0  0  0  0  0  0
   -1.0175    1.1897  -10.0035 C   0  0  0  0  0  0  0  0  0  0  0  0
   -0.8296    1.2251  -11.1358 N   0  0  0  0  0  0  0  0  0  0  0  0
   -5.4644   -1.8380  -11.2050 C   0  0  0  0  0  0  0  0  0  0  0  0
   -6.2482   -0.8908  -12.1465 C   0  0  0  0  0  0  0  0  0  0  0  0
   -6.5052    0.3731  -11.3637 C   0  0  0  0  0  0  0  0  0  0  0  0
   -7.3951    0.0915  -10.4215 C   0  0  0  0  0  0  0  0  0  0  0  0
   -7.7563   -1.3678  -10.5502 C   0  0  0  0  0  0  0  0  0  0  0  0
   -7.6385   -1.5421  -12.0727 C   0  0  0  0  0  0  0  0  0  0  0  0
   -6.5130   -2.1736  -10.0978 C   0  0  0  0  0  0  0  0  0  0  0  0
   -1.4582    0.9885   -4.1731 C   0  0  0  0  0  0  0  0  0  0  0  0
   -2.4682    0.8003   -3.2494 C   0  0  0  0  0  0  0  0  0  0  0  0
   -2.0164    0.7641   -1.9322 C   0  0  0  0  0  0  0  0  0  0  0  0
   -3.0027    0.6072   -0.4892 S   0  0  0  0  0  0  0  0  0  0  0  0
   -4.6869    0.3852   -1.1603 C   0  0  0  0  0  0  0  0  0  0  0  0
   -5.3351    1.6979   -1.5552 C   0  0  0  0  0  0  0  0  0  0  0  0
   -0.6349    0.9147   -1.8239 C   0  0  0  0  0  0  0  0  0  0  0  0
    0.0820    1.2141   -3.3698 S   0  0  0  0  0  0  0  0  0  0  0  0
    0.1445    0.7237   -0.6466 C   0  0  0  0  0  0  0  0  0  0  0  0
    0.0303   -0.3350    0.2496 C   0  0  0  0  0  0  0  0  0  0  0  0
   -0.7471   -1.4558    0.0603 N   0  0  0  0  0  0  0  0  0  0  0  0
   -1.2027   -2.1711    1.1803 C   0  0  0  0  0  0  0  0  0  0  0  0
   -1.6763   -1.4993    2.3032 C   0  0  0  0  0  0  0  0  0  0  0  0
   -2.0510   -2.1990    3.4339 C   0  0  0  0  0  0  0  0  0  0  0  0
   -1.9625   -3.5851    3.4545 C   0  0  0  0  0  0  0  0  0  0  0  0
   -2.3682   -4.5737    4.8549 S   0  0  0  0  0  0  0  0  0  0  0  0
   -2.3510   -3.3906    6.2292 C   0  0  0  0  0  0  0  0  0  0  0  0
   -1.5414   -4.2615    2.3092 C   0  0  0  0  0  0  0  0  0  0  0  0
   -1.1631   -3.5652    1.1846 C   0  0  0  0  0  0  0  0  0  0  0  0
   -1.0644   -1.9096   -1.2294 C   0  0  0  0  0  0  0  0  0  0  0  0
   -2.3456   -2.3755   -1.5099 C   0  0  0  0  0  0  0  0  0  0  0  0
   -2.7130   -2.7049   -2.8005 C   0  0  0  0  0  0  0  0  0  0  0  0
   -1.7978   -2.5817   -3.8369 C   0  0  0  0  0  0  0  0  0  0  0  0
   -2.1743   -2.8747   -5.5371 S   0  0  0  0  0  0  0  0  0  0  0  0
   -3.9106   -3.3964   -5.5071 C   0  0  0  0  0  0  0  0  0  0  0  0
   -0.4911   -2.1933   -3.5479 C   0  0  0  0  0  0  0  0  0  0  0  0
   -0.1257   -1.8665   -2.2610 C   0  0  0  0  0  0  0  0  0  0  0  0
    0.9052   -0.1471    1.3491 C   0  0  0  0  0  0  0  0  0  0  0  0
    1.2262   -1.0417    2.7921 S   0  0  0  0  0  0  0  0  0  0  0  0
    2.4002    0.1648    3.2953 C   0  0  0  0  0  0  0  0  0  0  0  0
    2.6020    1.1532    2.3335 C   0  0  0  0  0  0  0  0  0  0  0  0
    3.5870    2.1181    2.3801 N   0  0  0  0  0  0  0  0  0  0  0  0
    3.3632    3.3665    1.7794 C   0  0  0  0  0  0  0  0  0  0  0  0
    2.1224    3.9938    1.8963 C   0  0  0  0  0  0  0  0  0  0  0  0
    1.9032    5.2111    1.2923 C   0  0  0  0  0  0  0  0  0  0  0  0
    2.9173    5.8339    0.5666 C   0  0  0  0  0  0  0  0  0  0  0  0
    2.5192    7.3910   -0.1587 S   0  0  0  0  0  0  0  0  0  0  0  0
    3.9642    7.7784   -1.1864 C   0  0  0  0  0  0  0  0  0  0  0  0
    4.1598    5.2206    0.4658 C   0  0  0  0  0  0  0  0  0  0  0  0
    4.3776    3.9959    1.0649 C   0  0  0  0  0  0  0  0  0  0  0  0
    4.8124    1.8459    3.0085 C   0  0  0  0  0  0  0  0  0  0  0  0
    5.3932    0.5803    2.9202 C   0  0  0  0  0  0  0  0  0  0  0  0
    6.5080    0.2747    3.6654 C   0  0  0  0  0  0  0  0  0  0  0  0
    7.0798    1.2266    4.5090 C   0  0  0  0  0  0  0  0  0  0  0  0
    8.4464    0.7014    5.4892 S   0  0  0  0  0  0  0  0  0  0  0  0
    8.5348    1.9631    6.7919 C   0  0  0  0  0  0  0  0  0  0  0  0
    6.5597    2.5140    4.5301 C   0  0  0  0  0  0  0  0  0  0  0  0
    5.4353    2.8180    3.7870 C   0  0  0  0  0  0  0  0  0  0  0  0
    1.7109    0.9777    1.2477 C   0  0  0  0  0  0  0  0  0  0  0  0
    1.4208    1.8506   -0.2162 S   0  0  0  0  0  0  0  0  0  0  0  0
    2.9934    0.0794    4.5827 C   0  0  0  0  0  0  0  0  0  0  0  0
    3.3925    1.1334    5.3779 C   0  0  0  0  0  0  0  0  0  0  0  0
    4.0282    0.7301    6.5525 C   0  0  0  0  0  0  0  0  0  0  0  0
    4.7389    1.7788    7.7516 S   0  0  0  0  0  0  0  0  0  0  0  0
    4.0429    3.4191    7.3457 C   0  0  0  0  0  0  0  0  0  0  0  0
    2.5669    3.5032    7.6818 C   0  0  0  0  0  0  0  0  0  0  0  0
    4.0581   -0.6574    6.7167 C   0  0  0  0  0  0  0  0  0  0  0  0
    3.3365   -1.4457    5.3316 S   0  0  0  0  0  0  0  0  0  0  0  0
    4.6493   -1.3482    7.7848 C   0  0  0  0  0  0  0  0  0  0  0  0
    4.4651   -2.6409    8.1896 C   0  0  0  0  0  0  0  0  0  0  0  0
    5.4958   -3.3046    9.0249 C   0  0  0  0  0  0  0  0  0  0  0  0
    6.4351   -2.7798    9.5792 O   0  0  0  0  0  0  0  0  0  0  0  0
    5.1495   -4.7431    8.9937 C   0  0  0  0  0  0  0  0  0  0  0  0
    5.8444   -5.8164    9.5171 C   0  0  0  0  0  0  0  0  0  0  0  0
    5.3288   -7.0907    9.3359 C   0  0  0  0  0  0  0  0  0  0  0  0
    4.1413   -7.2469    8.6371 C   0  0  0  0  0  0  0  0  0  0  0  0
    3.6657   -8.4908    8.4582 F   0  0  0  0  0  0  0  0  0  0  0  0
    3.4185   -6.1843    8.1111 C   0  0  0  0  0  0  0  0  0  0  0  0
    3.9375   -4.9160    8.3006 C   0  0  0  0  0  0  0  0  0  0  0  0
    3.4230   -3.5986    7.9207 C   0  0  0  0  0  0  0  0  0  0  0  0
    2.1051   -3.3223    7.6550 C   0  0  0  0  0  0  0  0  0  0  0  0
    1.1025   -4.3052    7.5398 C   0  0  0  0  0  0  0  0  0  0  0  0
    0.2366   -5.0535    7.4468 N   0  0  0  0  0  0  0  0  0  0  0  0
    1.5620   -2.0230    7.6066 C   0  0  0  0  0  0  0  0  0  0  0  0
    1.0429   -0.9979    7.6186 N   0  0  0  0  0  0  0  0  0  0  0  0
   -0.4938    1.2887   -5.9946 H   0  0  0  0  0  0  0  0  0  0  0  0
   -6.0830   -1.4073   -7.0065 H   0  0  0  0  0  0  0  0  0  0  0  0
   -2.7500   -0.3044  -10.6547 H   0  0  0  0  0  0  0  0  0  0  0  0
   -5.0040   -2.6670  -11.7386 H   0  0  0  0  0  0  0  0  0  0  0  0
   -5.8051   -0.7642  -13.1305 H   0  0  0  0  0  0  0  0  0  0  0  0
   -5.9866    1.2982  -11.5341 H   0  0  0  0  0  0  0  0  0  0  0  0
   -7.7689    0.7351   -9.6466 H   0  0  0  0  0  0  0  0  0  0  0  0
   -8.6880   -1.6748  -10.0818 H   0  0  0  0  0  0  0  0  0  0  0  0
   -7.6475   -2.5833  -12.3923 H   0  0  0  0  0  0  0  0  0  0  0  0
   -8.3953   -0.9826  -12.6204 H   0  0  0  0  0  0  0  0  0  0  0  0
   -6.7435   -3.2214   -9.9136 H   0  0  0  0  0  0  0  0  0  0  0  0
   -3.4879    0.6759   -3.5572 H   0  0  0  0  0  0  0  0  0  0  0  0
   -4.6197   -0.3129   -1.9931 H   0  0  0  0  0  0  0  0  0  0  0  0
   -5.2341   -0.0870   -0.3439 H   0  0  0  0  0  0  0  0  0  0  0  0
   -6.3369    1.5104   -1.9360 H   0  0  0  0  0  0  0  0  0  0  0  0
   -4.7609    2.2017   -2.3291 H   0  0  0  0  0  0  0  0  0  0  0  0
   -5.4059    2.3587   -0.6943 H   0  0  0  0  0  0  0  0  0  0  0  0
   -1.7580   -0.4227    2.2816 H   0  0  0  0  0  0  0  0  0  0  0  0
   -2.4116   -1.6538    4.2910 H   0  0  0  0  0  0  0  0  0  0  0  0
   -3.2506   -2.7813    6.2188 H   0  0  0  0  0  0  0  0  0  0  0  0
   -1.4566   -2.7777    6.1714 H   0  0  0  0  0  0  0  0  0  0  0  0
   -2.3203   -3.9950    7.1303 H   0  0  0  0  0  0  0  0  0  0  0  0
   -1.4954   -5.3393    2.3266 H   0  0  0  0  0  0  0  0  0  0  0  0
   -0.8145   -4.0911    0.3081 H   0  0  0  0  0  0  0  0  0  0  0  0
   -3.0670   -2.4505   -0.7099 H   0  0  0  0  0  0  0  0  0  0  0  0
   -3.7226   -3.0336   -2.9844 H   0  0  0  0  0  0  0  0  0  0  0  0
   -4.0150   -4.3030   -4.9184 H   0  0  0  0  0  0  0  0  0  0  0  0
   -4.1748   -3.5928   -6.5419 H   0  0  0  0  0  0  0  0  0  0  0  0
   -4.5224   -2.5887   -5.1145 H   0  0  0  0  0  0  0  0  0  0  0  0
    0.2305   -2.1395   -4.3488 H   0  0  0  0  0  0  0  0  0  0  0  0
    0.8885   -1.5608   -2.0514 H   0  0  0  0  0  0  0  0  0  0  0  0
    1.3348    3.5208    2.4641 H   0  0  0  0  0  0  0  0  0  0  0  0
    0.9439    5.6974    1.3772 H   0  0  0  0  0  0  0  0  0  0  0  0
    4.8352    7.9525   -0.5610 H   0  0  0  0  0  0  0  0  0  0  0  0
    3.7071    8.6892   -1.7183 H   0  0  0  0  0  0  0  0  0  0  0  0
    4.1374    6.9737   -1.8946 H   0  0  0  0  0  0  0  0  0  0  0  0
    4.9654    5.6803   -0.0830 H   0  0  0  0  0  0  0  0  0  0  0  0
    5.3412    3.5165    0.9750 H   0  0  0  0  0  0  0  0  0  0  0  0
    4.9487   -0.1690    2.2828 H   0  0  0  0  0  0  0  0  0  0  0  0
    6.9435   -0.7112    3.6165 H   0  0  0  0  0  0  0  0  0  0  0  0
    9.2220    1.5681    7.5333 H   0  0  0  0  0  0  0  0  0  0  0  0
    7.5507    2.0949    7.2326 H   0  0  0  0  0  0  0  0  0  0  0  0
    8.9231    2.8957    6.3927 H   0  0  0  0  0  0  0  0  0  0  0  0
    7.0108    3.2828    5.1369 H   0  0  0  0  0  0  0  0  0  0  0  0
    5.0210    3.8163    3.8220 H   0  0  0  0  0  0  0  0  0  0  0  0
    3.2003    2.1519    5.1020 H   0  0  0  0  0  0  0  0  0  0  0  0
    4.2497    3.6264    6.2969 H   0  0  0  0  0  0  0  0  0  0  0  0
    4.6228    4.1070    7.9613 H   0  0  0  0  0  0  0  0  0  0  0  0
    2.1876    4.4915    7.4291 H   0  0  0  0  0  0  0  0  0  0  0  0
    1.9955    2.7586    7.1319 H   0  0  0  0  0  0  0  0  0  0  0  0
    2.4130    3.3319    8.7445 H   0  0  0  0  0  0  0  0  0  0  0  0
    5.4136   -0.7981    8.3276 H   0  0  0  0  0  0  0  0  0  0  0  0
    6.7664   -5.6556   10.0536 H   0  0  0  0  0  0  0  0  0  0  0  0
    5.8318   -7.9623    9.7238 H   0  0  0  0  0  0  0  0  0  0  0  0
    2.5030   -6.3719    7.5741 H   0  0  0  0  0  0  0  0  0  0  0  0
  1  2  2  0  0  0  0
  2  3  1  0  0  0  0
  3  4  2  0  0  0  0
  3  5  1  0  0  0  0
  5  6  2  0  0  0  0
  6  7  1  0  0  0  0
  7  8  2  0  0  0  0
  8  9  1  0  0  0  0
  9 10  2  0  0  0  0
 10 11  1  0  0  0  0
 11 12  2  0  0  0  0
 12 13  1  0  0  0  0
 13 14  3  0  0  0  0
 12 15  1  0  0  0  0
 15 16  3  0  0  0  0
  8 17  1  0  0  0  0
 17 18  1  0  0  0  0
 18 19  1  0  0  0  0
 19 20  2  0  0  0  0
 20 21  1  0  0  0  0
 21 22  1  0  0  0  0
 21 23  1  0  0  0  0
  1 24  1  0  0  0  0
 24 25  2  0  0  0  0
 25 26  1  0  0  0  0
 26 27  1  0  0  0  0
 27 28  1  0  0  0  0
 28 29  1  0  0  0  0
 26 30  2  0  0  0  0
 30 31  1  0  0  0  0
 30 32  1  0  0  0  0
 32 33  2  0  0  0  0
 33 34  1  0  0  0  0
 34 35  1  0  0  0  0
 35 36  2  0  0  0  0
 36 37  1  0  0  0  0
 37 38  2  0  0  0  0
 38 39  1  0  0  0  0
 39 40  1  0  0  0  0
 38 41  1  0  0  0  0
 41 42  2  0  0  0  0
 34 43  1  0  0  0  0
 43 44  2  0  0  0  0
 44 45  1  0  0  0  0
 45 46  2  0  0  0  0
 46 47  1  0  0  0  0
 47 48  1  0  0  0  0
 46 49  1  0  0  0  0
 49 50  2  0  0  0  0
 33 51  1  0  0  0  0
 51 52  1  0  0  0  0
 52 53  1  0  0  0  0
 53 54  2  0  0  0  0
 54 55  1  0  0  0  0
 55 56  1  0  0  0  0
 56 57  2  0  0  0  0
 57 58  1  0  0  0  0
 58 59  2  0  0  0  0
 59 60  1  0  0  0  0
 60 61  1  0  0  0  0
 59 62  1  0  0  0  0
 62 63  2  0  0  0  0
 55 64  1  0  0  0  0
 64 65  2  0  0  0  0
 65 66  1  0  0  0  0
 66 67  2  0  0  0  0
 67 68  1  0  0  0  0
 68 69  1  0  0  0  0
 67 70  1  0  0  0  0
 70 71  2  0  0  0  0
 54 72  1  0  0  0  0
 72 73  1  0  0  0  0
 53 74  1  0  0  0  0
 74 75  2  0  0  0  0
 75 76  1  0  0  0  0
 76 77  1  0  0  0  0
 77 78  1  0  0  0  0
 78 79  1  0  0  0  0
 76 80  2  0  0  0  0
 80 81  1  0  0  0  0
 80 82  1  0  0  0  0
 82 83  2  0  0  0  0
 83 84  1  0  0  0  0
 84 85  2  0  0  0  0
 84 86  1  0  0  0  0
 86 87  2  0  0  0  0
 87 88  1  0  0  0  0
 88 89  2  0  0  0  0
 89 90  1  0  0  0  0
 89 91  1  0  0  0  0
 91 92  2  0  0  0  0
 92 93  1  0  0  0  0
 93 94  2  0  0  0  0
 94 95  1  0  0  0  0
 95 96  3  0  0  0  0
 94 97  1  0  0  0  0
 97 98  3  0  0  0  0
 11  2  1  0  0  0  0
 23 17  1  0  0  0  0
 31 24  1  0  0  0  0
 73 32  1  0  0  0  0
 81 74  1  0  0  0  0
 93 83  1  0  0  0  0
 10  5  1  0  0  0  0
 22 18  1  0  0  0  0
 42 35  1  0  0  0  0
 50 43  1  0  0  0  0
 72 51  2  0  0  0  0
 92 86  1  0  0  0  0
 23  7  1  0  0  0  0
 63 56  1  0  0  0  0
 71 64  1  0  0  0  0
  1 99  1  0  0  0  0
  6100  1  0  0  0  0
  9101  1  0  0  0  0
 17102  1  0  0  0  0
 18103  1  0  0  0  0
 19104  1  0  0  0  0
 20105  1  0  0  0  0
 21106  1  0  0  0  0
 22107  1  0  0  0  0
 22108  1  0  0  0  0
 23109  1  0  0  0  0
 25110  1  0  0  0  0
 28111  1  0  0  0  0
 28112  1  0  0  0  0
 29113  1  0  0  0  0
 29114  1  0  0  0  0
 29115  1  0  0  0  0
 36116  1  0  0  0  0
 37117  1  0  0  0  0
 40118  1  0  0  0  0
 40119  1  0  0  0  0
 40120  1  0  0  0  0
 41121  1  0  0  0  0
 42122  1  0  0  0  0
 44123  1  0  0  0  0
 45124  1  0  0  0  0
 48125  1  0  0  0  0
 48126  1  0  0  0  0
 48127  1  0  0  0  0
 49128  1  0  0  0  0
 50129  1  0  0  0  0
 57130  1  0  0  0  0
 58131  1  0  0  0  0
 61132  1  0  0  0  0
 61133  1  0  0  0  0
 61134  1  0  0  0  0
 62135  1  0  0  0  0
 63136  1  0  0  0  0
 65137  1  0  0  0  0
 66138  1  0  0  0  0
 69139  1  0  0  0  0
 69140  1  0  0  0  0
 69141  1  0  0  0  0
 70142  1  0  0  0  0
 71143  1  0  0  0  0
 75144  1  0  0  0  0
 78145  1  0  0  0  0
 78146  1  0  0  0  0
 79147  1  0  0  0  0
 79148  1  0  0  0  0
 79149  1  0  0  0  0
 82150  1  0  0  0  0
 87151  1  0  0  0  0
 88152  1  0  0  0  0
 91153  1  0  0  0  0
M  END
