
  xtb     02062209333D
 energy: -274.623400733810 gnorm: 0.000652121731 xtb: 6.4.1 (unknown)
162179  0     0  0            999 V2000
    2.9193   -6.5576    5.1882 C   0  0  0  0  0  0  0  0  0  0  0  0
    1.9864   -7.3758    5.7276 C   0  0  0  0  0  0  0  0  0  0  0  0
    2.3439   -8.4330    6.7151 C   0  0  0  0  0  0  0  0  0  0  0  0
    3.3552   -8.5020    7.3732 O   0  0  0  0  0  0  0  0  0  0  0  0
    1.2337   -9.4038    6.6451 C   0  0  0  0  0  0  0  0  0  0  0  0
    1.1710  -10.6544    7.2590 C   0  0  0  0  0  0  0  0  0  0  0  0
    0.0267  -11.3608    6.9772 C   0  0  0  0  0  0  0  0  0  0  0  0
   -0.9897  -10.8648    6.1478 C   0  0  0  0  0  0  0  0  0  0  0  0
   -0.9512   -9.6298    5.5467 C   0  0  0  0  0  0  0  0  0  0  0  0
    0.2075   -8.8961    5.8176 C   0  0  0  0  0  0  0  0  0  0  0  0
    0.5864   -7.5585    5.3792 C   0  0  0  0  0  0  0  0  0  0  0  0
   -0.2590   -6.5663    4.9624 C   0  0  0  0  0  0  0  0  0  0  0  0
    0.1510   -5.2196    4.8569 C   0  0  0  0  0  0  0  0  0  0  0  0
    0.4475   -4.1109    4.8478 N   0  0  0  0  0  0  0  0  0  0  0  0
   -1.6275   -6.7637    4.6893 C   0  0  0  0  0  0  0  0  0  0  0  0
   -2.7385   -6.9089    4.4404 N   0  0  0  0  0  0  0  0  0  0  0  0
   -1.8228  -12.1141    6.2864 C   0  0  0  0  0  0  0  0  0  0  0  0
   -1.7961  -13.0942    5.0941 C   0  0  0  0  0  0  0  0  0  0  0  0
   -2.2834  -14.3972    5.6857 C   0  0  0  0  0  0  0  0  0  0  0  0
   -1.3242  -14.8662    6.4735 C   0  0  0  0  0  0  0  0  0  0  0  0
   -0.1722  -13.8883    6.4273 C   0  0  0  0  0  0  0  0  0  0  0  0
   -0.2976  -13.4023    4.9775 C   0  0  0  0  0  0  0  0  0  0  0  0
   -0.6925  -12.6658    7.2134 C   0  0  0  0  0  0  0  0  0  0  0  0
    2.7650   -5.8611    3.9515 C   0  0  0  0  0  0  0  0  0  0  0  0
    2.0751   -6.2870    2.8422 C   0  0  0  0  0  0  0  0  0  0  0  0
    2.1265   -5.3840    1.7714 C   0  0  0  0  0  0  0  0  0  0  0  0
    1.2450   -5.6585    0.2628 S   0  0  0  0  0  0  0  0  0  0  0  0
    2.3503   -6.8558   -0.5798 C   0  0  0  0  0  0  0  0  0  0  0  0
    2.3439   -8.2331    0.0509 C   0  0  0  0  0  0  0  0  0  0  0  0
    2.8196   -4.2308    2.0729 C   0  0  0  0  0  0  0  0  0  0  0  0
    3.4883   -4.3068    3.6668 S   0  0  0  0  0  0  0  0  0  0  0  0
    2.8559   -2.9904    1.3221 C   0  0  0  0  0  0  0  0  0  0  0  0
    2.5401   -1.7923    1.9675 C   0  0  0  0  0  0  0  0  0  0  0  0
    2.3502   -0.6323    1.2573 C   0  0  0  0  0  0  0  0  0  0  0  0
    2.4484   -0.6087   -0.1395 C   0  0  0  0  0  0  0  0  0  0  0  0
    2.9016   -1.7708   -0.7669 C   0  0  0  0  0  0  0  0  0  0  0  0
    3.0921   -1.7911   -2.0981 F   0  0  0  0  0  0  0  0  0  0  0  0
    3.1074   -2.9360   -0.0485 C   0  0  0  0  0  0  0  0  0  0  0  0
    3.5705   -4.0184   -0.6969 F   0  0  0  0  0  0  0  0  0  0  0  0
    2.0201    0.5522   -0.8865 C   0  0  0  0  0  0  0  0  0  0  0  0
    0.9104    1.3345   -0.5956 C   0  0  0  0  0  0  0  0  0  0  0  0
   -0.0286    1.0810    0.3854 N   0  0  0  0  0  0  0  0  0  0  0  0
   -0.3814   -0.2296    0.7474 C   0  0  0  0  0  0  0  0  0  0  0  0
   -0.4533   -1.2500   -0.1978 C   0  0  0  0  0  0  0  0  0  0  0  0
   -0.7591   -2.5409    0.1833 C   0  0  0  0  0  0  0  0  0  0  0  0
   -1.0125   -2.8309    1.5176 C   0  0  0  0  0  0  0  0  0  0  0  0
   -1.3988   -4.4558    2.0895 S   0  0  0  0  0  0  0  0  0  0  0  0
   -2.2430   -5.1984    0.6618 C   0  0  0  0  0  0  0  0  0  0  0  0
   -0.9549   -1.8136    2.4655 C   0  0  0  0  0  0  0  0  0  0  0  0
   -0.6464   -0.5262    2.0844 C   0  0  0  0  0  0  0  0  0  0  0  0
   -0.7544    2.1597    0.9221 C   0  0  0  0  0  0  0  0  0  0  0  0
   -2.1419    2.0837    1.0340 C   0  0  0  0  0  0  0  0  0  0  0  0
   -2.8558    3.1548    1.5217 C   0  0  0  0  0  0  0  0  0  0  0  0
   -2.2008    4.3191    1.9176 C   0  0  0  0  0  0  0  0  0  0  0  0
   -3.2093    5.6538    2.4838 S   0  0  0  0  0  0  0  0  0  0  0  0
   -2.0958    6.5837    3.5784 C   0  0  0  0  0  0  0  0  0  0  0  0
   -0.8171    4.3919    1.8278 C   0  0  0  0  0  0  0  0  0  0  0  0
   -0.1007    3.3194    1.3315 C   0  0  0  0  0  0  0  0  0  0  0  0
    0.8033    2.4029   -1.5184 C   0  0  0  0  0  0  0  0  0  0  0  0
   -0.2695    3.7434   -1.6555 S   0  0  0  0  0  0  0  0  0  0  0  0
    0.5795    4.3017   -3.1003 C   0  0  0  0  0  0  0  0  0  0  0  0
    1.6426    3.4592   -3.4470 C   0  0  0  0  0  0  0  0  0  0  0  0
    2.4805    3.6499   -4.5099 N   0  0  0  0  0  0  0  0  0  0  0  0
    3.1343    2.5504   -5.0924 C   0  0  0  0  0  0  0  0  0  0  0  0
    4.4714    2.6475   -5.4633 C   0  0  0  0  0  0  0  0  0  0  0  0
    5.1198    1.5747   -6.0421 C   0  0  0  0  0  0  0  0  0  0  0  0
    4.4391    0.3825   -6.2558 C   0  0  0  0  0  0  0  0  0  0  0  0
    5.1588   -1.0523   -6.9824 S   0  0  0  0  0  0  0  0  0  0  0  0
    6.9205   -0.6352   -7.1231 C   0  0  0  0  0  0  0  0  0  0  0  0
    3.0947    0.2878   -5.8996 C   0  0  0  0  0  0  0  0  0  0  0  0
    2.4465    1.3595   -5.3293 C   0  0  0  0  0  0  0  0  0  0  0  0
    2.7469    4.9347   -5.0279 C   0  0  0  0  0  0  0  0  0  0  0  0
    3.0466    5.9965   -4.1757 C   0  0  0  0  0  0  0  0  0  0  0  0
    3.2850    7.2471   -4.6978 C   0  0  0  0  0  0  0  0  0  0  0  0
    3.2451    7.4617   -6.0755 C   0  0  0  0  0  0  0  0  0  0  0  0
    3.5635    9.1068   -6.6240 S   0  0  0  0  0  0  0  0  0  0  0  0
    3.1435    9.0638   -8.3902 C   0  0  0  0  0  0  0  0  0  0  0  0
    2.9835    6.3957   -6.9256 C   0  0  0  0  0  0  0  0  0  0  0  0
    2.7356    5.1409   -6.4023 C   0  0  0  0  0  0  0  0  0  0  0  0
    1.7640    2.3960   -2.5178 C   0  0  0  0  0  0  0  0  0  0  0  0
    2.8575    1.0710   -2.3336 S   0  0  0  0  0  0  0  0  0  0  0  0
    0.0748    5.4126   -3.8030 C   0  0  0  0  0  0  0  0  0  0  0  0
   -0.7290    6.3889   -3.2883 C   0  0  0  0  0  0  0  0  0  0  0  0
   -1.6288    7.1822   -4.1626 C   0  0  0  0  0  0  0  0  0  0  0  0
   -1.5911    7.2474   -5.3722 O   0  0  0  0  0  0  0  0  0  0  0  0
   -2.5972    7.8211   -3.2461 C   0  0  0  0  0  0  0  0  0  0  0  0
   -3.7515    8.5252   -3.5798 C   0  0  0  0  0  0  0  0  0  0  0  0
   -4.4840    8.9481   -2.4951 C   0  0  0  0  0  0  0  0  0  0  0  0
   -4.1007    8.6942   -1.1715 C   0  0  0  0  0  0  0  0  0  0  0  0
   -2.9631    8.0051   -0.8251 C   0  0  0  0  0  0  0  0  0  0  0  0
   -2.2064    7.5712   -1.9140 C   0  0  0  0  0  0  0  0  0  0  0  0
   -0.9592    6.8143   -1.9301 C   0  0  0  0  0  0  0  0  0  0  0  0
   -0.0545    6.7814   -0.8968 C   0  0  0  0  0  0  0  0  0  0  0  0
   -0.2378    7.4391    0.3308 C   0  0  0  0  0  0  0  0  0  0  0  0
   -0.2950    7.9679    1.3503 N   0  0  0  0  0  0  0  0  0  0  0  0
    1.2259    6.2042   -0.9787 C   0  0  0  0  0  0  0  0  0  0  0  0
    2.2954    5.7831   -0.9945 N   0  0  0  0  0  0  0  0  0  0  0  0
   -5.3165    9.3787   -0.6014 C   0  0  0  0  0  0  0  0  0  0  0  0
   -6.4586    8.4819   -0.0647 C   0  0  0  0  0  0  0  0  0  0  0  0
   -6.3628    7.1770   -0.8152 C   0  0  0  0  0  0  0  0  0  0  0  0
   -6.7304    7.4049   -2.0691 C   0  0  0  0  0  0  0  0  0  0  0  0
   -7.0808    8.8678   -2.1891 C   0  0  0  0  0  0  0  0  0  0  0  0
   -7.6542    9.1239   -0.7861 C   0  0  0  0  0  0  0  0  0  0  0  0
   -5.7501    9.6537   -2.0759 C   0  0  0  0  0  0  0  0  0  0  0  0
    3.8744   -6.4857    5.6951 H   0  0  0  0  0  0  0  0  0  0  0  0
    1.9716  -11.0009    7.8934 H   0  0  0  0  0  0  0  0  0  0  0  0
   -1.7344   -9.2534    4.9091 H   0  0  0  0  0  0  0  0  0  0  0  0
   -2.8189  -11.9766    6.7022 H   0  0  0  0  0  0  0  0  0  0  0  0
   -2.3066  -12.7402    4.2026 H   0  0  0  0  0  0  0  0  0  0  0  0
   -3.2643  -14.8018    5.5190 H   0  0  0  0  0  0  0  0  0  0  0  0
   -1.3437  -15.7410    7.0964 H   0  0  0  0  0  0  0  0  0  0  0  0
    0.7971  -14.2585    6.7498 H   0  0  0  0  0  0  0  0  0  0  0  0
   -0.0954  -14.1951    4.2591 H   0  0  0  0  0  0  0  0  0  0  0  0
    0.3180  -12.5351    4.7450 H   0  0  0  0  0  0  0  0  0  0  0  0
   -0.9341  -12.8962    8.2491 H   0  0  0  0  0  0  0  0  0  0  0  0
    1.5494   -7.2237    2.7926 H   0  0  0  0  0  0  0  0  0  0  0  0
    3.3484   -6.4235   -0.5994 H   0  0  0  0  0  0  0  0  0  0  0  0
    1.9568   -6.8883   -1.5952 H   0  0  0  0  0  0  0  0  0  0  0  0
    1.3258   -8.6041    0.1512 H   0  0  0  0  0  0  0  0  0  0  0  0
    2.9038   -8.9223   -0.5786 H   0  0  0  0  0  0  0  0  0  0  0  0
    2.8116   -8.2142    1.0332 H   0  0  0  0  0  0  0  0  0  0  0  0
    2.3939   -1.8033    3.0362 H   0  0  0  0  0  0  0  0  0  0  0  0
    2.1003    0.2784    1.7764 H   0  0  0  0  0  0  0  0  0  0  0  0
   -0.2648   -1.0318   -1.2386 H   0  0  0  0  0  0  0  0  0  0  0  0
   -0.7914   -3.3199   -0.5613 H   0  0  0  0  0  0  0  0  0  0  0  0
   -2.7761   -6.0579    1.0560 H   0  0  0  0  0  0  0  0  0  0  0  0
   -2.9436   -4.4801    0.2489 H   0  0  0  0  0  0  0  0  0  0  0  0
   -1.5163   -5.5174   -0.0793 H   0  0  0  0  0  0  0  0  0  0  0  0
   -1.1424   -2.0504    3.5008 H   0  0  0  0  0  0  0  0  0  0  0  0
   -0.6050    0.2623    2.8210 H   0  0  0  0  0  0  0  0  0  0  0  0
   -2.6509    1.1819    0.7282 H   0  0  0  0  0  0  0  0  0  0  0  0
   -3.9311    3.1058    1.5966 H   0  0  0  0  0  0  0  0  0  0  0  0
   -1.3867    7.1652    2.9938 H   0  0  0  0  0  0  0  0  0  0  0  0
   -2.7346    7.2490    4.1508 H   0  0  0  0  0  0  0  0  0  0  0  0
   -1.5898    5.8892    4.2418 H   0  0  0  0  0  0  0  0  0  0  0  0
   -0.2890    5.2804    2.1348 H   0  0  0  0  0  0  0  0  0  0  0  0
    0.9750    3.3858    1.2526 H   0  0  0  0  0  0  0  0  0  0  0  0
    5.0055    3.5698   -5.2900 H   0  0  0  0  0  0  0  0  0  0  0  0
    6.1568    1.6814   -6.3155 H   0  0  0  0  0  0  0  0  0  0  0  0
    7.4051   -1.5364   -7.4855 H   0  0  0  0  0  0  0  0  0  0  0  0
    7.0609    0.1698   -7.8387 H   0  0  0  0  0  0  0  0  0  0  0  0
    7.3145   -0.3714   -6.1462 H   0  0  0  0  0  0  0  0  0  0  0  0
    2.5680   -0.6363   -6.0793 H   0  0  0  0  0  0  0  0  0  0  0  0
    1.4007    1.2842   -5.0710 H   0  0  0  0  0  0  0  0  0  0  0  0
    3.0826    5.8364   -3.1088 H   0  0  0  0  0  0  0  0  0  0  0  0
    3.5129    8.0744   -4.0436 H   0  0  0  0  0  0  0  0  0  0  0  0
    2.1271    8.7027   -8.5147 H   0  0  0  0  0  0  0  0  0  0  0  0
    3.8545    8.4468   -8.9323 H   0  0  0  0  0  0  0  0  0  0  0  0
    3.2157   10.0916   -8.7321 H   0  0  0  0  0  0  0  0  0  0  0  0
    2.9624    6.5265   -7.9952 H   0  0  0  0  0  0  0  0  0  0  0  0
    2.5220    4.3143   -7.0645 H   0  0  0  0  0  0  0  0  0  0  0  0
    0.2408    5.4450   -4.8740 H   0  0  0  0  0  0  0  0  0  0  0  0
   -4.0192    8.6987   -4.6105 H   0  0  0  0  0  0  0  0  0  0  0  0
   -2.6911    7.7874    0.1947 H   0  0  0  0  0  0  0  0  0  0  0  0
   -5.1229   10.2358    0.0405 H   0  0  0  0  0  0  0  0  0  0  0  0
   -6.5040    8.4083    1.0184 H   0  0  0  0  0  0  0  0  0  0  0  0
   -5.9902    6.2669   -0.3831 H   0  0  0  0  0  0  0  0  0  0  0  0
   -6.7291    6.7202   -2.8972 H   0  0  0  0  0  0  0  0  0  0  0  0
   -7.6977    9.1455   -3.0400 H   0  0  0  0  0  0  0  0  0  0  0  0
   -8.5881    8.5924   -0.6093 H   0  0  0  0  0  0  0  0  0  0  0  0
   -7.7832   10.1809   -0.5565 H   0  0  0  0  0  0  0  0  0  0  0  0
   -5.8523   10.6896   -2.3940 H   0  0  0  0  0  0  0  0  0  0  0  0
  1  2  2  0  0  0  0
  2  3  1  0  0  0  0
  3  4  2  0  0  0  0
  3  5  1  0  0  0  0
  5  6  2  0  0  0  0
  6  7  1  0  0  0  0
  7  8  2  0  0  0  0
  8  9  1  0  0  0  0
  9 10  2  0  0  0  0
 10 11  1  0  0  0  0
 11 12  2  0  0  0  0
 12 13  1  0  0  0  0
 13 14  3  0  0  0  0
 12 15  1  0  0  0  0
 15 16  3  0  0  0  0
  8 17  1  0  0  0  0
 17 18  1  0  0  0  0
 18 19  1  0  0  0  0
 19 20  2  0  0  0  0
 20 21  1  0  0  0  0
 21 22  1  0  0  0  0
 21 23  1  0  0  0  0
  1 24  1  0  0  0  0
 24 25  2  0  0  0  0
 25 26  1  0  0  0  0
 26 27  1  0  0  0  0
 27 28  1  0  0  0  0
 28 29  1  0  0  0  0
 26 30  2  0  0  0  0
 30 31  1  0  0  0  0
 30 32  1  0  0  0  0
 32 33  2  0  0  0  0
 33 34  1  0  0  0  0
 34 35  2  0  0  0  0
 35 36  1  0  0  0  0
 36 37  1  0  0  0  0
 36 38  2  0  0  0  0
 38 39  1  0  0  0  0
 35 40  1  0  0  0  0
 40 41  2  0  0  0  0
 41 42  1  0  0  0  0
 42 43  1  0  0  0  0
 43 44  2  0  0  0  0
 44 45  1  0  0  0  0
 45 46  2  0  0  0  0
 46 47  1  0  0  0  0
 47 48  1  0  0  0  0
 46 49  1  0  0  0  0
 49 50  2  0  0  0  0
 42 51  1  0  0  0  0
 51 52  2  0  0  0  0
 52 53  1  0  0  0  0
 53 54  2  0  0  0  0
 54 55  1  0  0  0  0
 55 56  1  0  0  0  0
 54 57  1  0  0  0  0
 57 58  2  0  0  0  0
 41 59  1  0  0  0  0
 59 60  1  0  0  0  0
 60 61  1  0  0  0  0
 61 62  2  0  0  0  0
 62 63  1  0  0  0  0
 63 64  1  0  0  0  0
 64 65  2  0  0  0  0
 65 66  1  0  0  0  0
 66 67  2  0  0  0  0
 67 68  1  0  0  0  0
 68 69  1  0  0  0  0
 67 70  1  0  0  0  0
 70 71  2  0  0  0  0
 63 72  1  0  0  0  0
 72 73  2  0  0  0  0
 73 74  1  0  0  0  0
 74 75  2  0  0  0  0
 75 76  1  0  0  0  0
 76 77  1  0  0  0  0
 75 78  1  0  0  0  0
 78 79  2  0  0  0  0
 62 80  1  0  0  0  0
 80 81  1  0  0  0  0
 61 82  1  0  0  0  0
 82 83  2  0  0  0  0
 83 84  1  0  0  0  0
 84 85  2  0  0  0  0
 84 86  1  0  0  0  0
 86 87  2  0  0  0  0
 87 88  1  0  0  0  0
 88 89  2  0  0  0  0
 89 90  1  0  0  0  0
 90 91  2  0  0  0  0
 91 92  1  0  0  0  0
 92 93  2  0  0  0  0
 93 94  1  0  0  0  0
 94 95  3  0  0  0  0
 93 96  1  0  0  0  0
 96 97  3  0  0  0  0
 89 98  1  0  0  0  0
 98 99  1  0  0  0  0
 99100  1  0  0  0  0
100101  2  0  0  0  0
101102  1  0  0  0  0
102103  1  0  0  0  0
102104  1  0  0  0  0
 11  2  1  0  0  0  0
 23 17  1  0  0  0  0
 31 24  1  0  0  0  0
 38 32  1  0  0  0  0
 81 40  1  0  0  0  0
 92 83  1  0  0  0  0
104 98  1  0  0  0  0
 10  5  1  0  0  0  0
 22 18  1  0  0  0  0
 50 43  1  0  0  0  0
 58 51  1  0  0  0  0
 80 59  2  0  0  0  0
 91 86  1  0  0  0  0
103 99  1  0  0  0  0
 23  7  1  0  0  0  0
 71 64  1  0  0  0  0
 79 72  1  0  0  0  0
104 88  1  0  0  0  0
  1105  1  0  0  0  0
  6106  1  0  0  0  0
  9107  1  0  0  0  0
 17108  1  0  0  0  0
 18109  1  0  0  0  0
 19110  1  0  0  0  0
 20111  1  0  0  0  0
 21112  1  0  0  0  0
 22113  1  0  0  0  0
 22114  1  0  0  0  0
 23115  1  0  0  0  0
 25116  1  0  0  0  0
 28117  1  0  0  0  0
 28118  1  0  0  0  0
 29119  1  0  0  0  0
 29120  1  0  0  0  0
 29121  1  0  0  0  0
 33122  1  0  0  0  0
 34123  1  0  0  0  0
 44124  1  0  0  0  0
 45125  1  0  0  0  0
 48126  1  0  0  0  0
 48127  1  0  0  0  0
 48128  1  0  0  0  0
 49129  1  0  0  0  0
 50130  1  0  0  0  0
 52131  1  0  0  0  0
 53132  1  0  0  0  0
 56133  1  0  0  0  0
 56134  1  0  0  0  0
 56135  1  0  0  0  0
 57136  1  0  0  0  0
 58137  1  0  0  0  0
 65138  1  0  0  0  0
 66139  1  0  0  0  0
 69140  1  0  0  0  0
 69141  1  0  0  0  0
 69142  1  0  0  0  0
 70143  1  0  0  0  0
 71144  1  0  0  0  0
 73145  1  0  0  0  0
 74146  1  0  0  0  0
 77147  1  0  0  0  0
 77148  1  0  0  0  0
 77149  1  0  0  0  0
 78150  1  0  0  0  0
 79151  1  0  0  0  0
 82152  1  0  0  0  0
 87153  1  0  0  0  0
 90154  1  0  0  0  0
 98155  1  0  0  0  0
 99156  1  0  0  0  0
100157  1  0  0  0  0
101158  1  0  0  0  0
102159  1  0  0  0  0
103160  1  0  0  0  0
103161  1  0  0  0  0
104162  1  0  0  0  0
M  END
