163

C         -3.05610       -6.52590        2.54280
C         -3.82840       -5.46140        2.91840
C         -4.11030       -4.27330        2.10490
O         -3.85450       -4.09740        0.92510
C         -4.77830       -3.31050        2.99250
C         -5.17750       -2.01420        2.67000
C         -5.74850       -1.33040        3.71660
C         -5.91220       -1.89550        4.98920
C         -5.52740       -3.17440        5.31750
C         -4.94380       -3.89010        4.26670
C         -4.40370       -5.24840        4.23460
C         -4.45400       -6.14560        5.26820
C         -5.02470       -5.87790        6.53050
N         -5.46730       -5.73100        7.57970
C         -3.97260       -7.47160        5.23060
N         -3.62200       -8.56420        5.28710
C         -6.55290       -0.64910        5.54760
C         -8.08690       -0.67890        5.71330
C         -8.46820        0.78100        5.80670
C         -8.31300        1.31630        4.60260
C         -7.82430        0.22740        3.67470
C         -8.54900       -0.98080        4.28190
C         -6.37030       -0.01940        4.12900
C         -2.33110       -6.72170        1.35300
C         -1.39630       -7.74390        1.20930
C         -0.64020       -7.65750        0.04240
S          0.65350       -8.74120       -0.43440
C          0.37300      -10.18230        0.66540
C          1.22900      -11.34070        0.19210
C         -1.03170       -6.58140       -0.74900
S         -2.33690       -5.68850       -0.04440
C         -0.37990       -5.91130       -1.83770
C          0.99530       -5.75860       -1.90940
C          1.55290       -4.62970       -2.51380
F          2.87640       -4.43950       -2.33890
C          0.79870       -3.60750       -3.07140
C         -0.55310       -3.93970       -3.32730
C         -1.14850       -5.08340       -2.69900
N         -2.43140       -5.21440       -3.02210
S         -2.83580       -4.04150       -4.04060
N         -1.41620       -3.28760       -4.10310
C          1.21880       -2.22050       -3.03830
C          0.55230       -1.27370       -2.28200
N         -0.66980       -1.47480       -1.60620
C         -0.68930       -1.87240       -0.26270
C         -1.59440       -1.27930        0.61900
C         -1.73540       -1.74000        1.90980
C         -0.96040       -2.80240        2.35390
S         -1.16750       -3.53990        3.95290
C         -1.80770       -2.16440        4.95580
C         -0.00010       -3.34600        1.51000
C          0.14570       -2.87790        0.21970
C         -1.86560       -1.22800       -2.27840
C         -1.88840       -0.43210       -3.42170
C         -3.05580       -0.24170       -4.13580
C         -4.23160       -0.84760       -3.72210
S         -5.78230       -0.69380       -4.55790
C         -5.35620        0.16530       -6.09920
C         -4.21890       -1.64170       -2.57650
C         -3.05710       -1.83240       -1.86260
C          1.26480       -0.05530       -2.24800
S          1.02480        1.42760       -1.40170
C          2.49690        2.07820       -2.12680
C          3.18080        1.11660       -2.91170
N          4.41620        1.28800       -3.48010
C          5.39880        2.12100       -2.91250
C          6.21840        2.89330       -3.73470
C          7.11490        3.78000       -3.17970
C          7.20190        3.92440       -1.79760
S          8.30560        5.15710       -1.18590
C          7.67340        5.48300        0.48590
C          6.43850        3.10200       -0.97550
C          5.55490        2.19920       -1.52940
C          4.74230        0.56520       -4.64210
C          5.99750       -0.02870       -4.77340
C          6.31270       -0.72960       -5.91400
C          5.38480       -0.85670       -6.94830
S          5.90610       -1.78090       -8.35410
C          4.45060       -1.79130       -9.43910
C          4.13780       -0.25860       -6.82340
C          3.82290        0.44900       -5.67980
C          2.44840       -0.08310       -2.97830
S          2.71260       -1.63600       -3.70870
C          2.92880        3.39930       -1.99140
C          2.58630        4.35820       -1.06950
C          1.65740        4.18980        0.05090
O          0.85100        3.29170        0.22200
C          1.89480        5.33230        0.95290
C          1.28610        5.57280        2.18230
C          1.73220        6.70890        2.81450
C          2.70570        7.54930        2.26030
C          3.30580        7.33000        1.04250
C          2.87300        6.17430        0.38620
C          3.27230        5.61860       -0.90690
C          4.14960        6.20000       -1.79080
C          4.40700        5.73790       -3.09590
N          4.63920        5.44490       -4.18310
C          4.89750        7.36260       -1.52010
N          5.56420        8.28000       -1.33670
C          2.68300        8.48860        3.44050
C          3.85160        8.36360        4.44100
C          3.32930        9.03170        5.69240
C          2.40590        8.23720        6.21830
C          2.28870        7.01870        5.33130
C          3.74430        6.89250        4.86330
C          1.59610        7.55180        4.05890
H         -2.89160       -7.30250        3.27940
H         -5.02770       -1.61970        1.67690
H         -5.65520       -3.58870        6.30320
H         -6.04260       -0.19000        6.39250
H         -8.44600       -1.33080        6.50480
H         -8.74990        1.27000        6.72070
H         -8.43890        2.34210        4.30950
H         -7.94500        0.40160        2.60900
H         -9.62990       -0.90800        4.17520
H         -8.21000       -1.94130        3.89830
H         -5.73750        0.86050        4.02630
H         -1.25440       -8.48510        1.97500
H          0.64160       -9.88860        1.68010
H         -0.68720      -10.42840        0.61300
H          2.28250      -11.07190        0.21770
H          0.96810      -11.61600       -0.82700
H          1.07210      -12.20130        0.83880
H          1.64940       -6.40250       -1.34350
H         -2.20330       -0.45660        0.27590
H         -2.45700       -1.27170        2.56070
H         -1.72030       -2.48540        5.98890
H         -2.85040       -1.97050        4.72060
H         -1.19700       -1.28360        4.78490
H          0.62290       -4.15210        1.86700
H          0.90060       -3.30880       -0.41720
H         -0.98140        0.03930       -3.76630
H         -3.02800        0.38370       -5.01330
H         -4.58750       -0.39030       -6.62810
H         -5.03440        1.18070       -5.88620
H         -6.26930        0.18570       -6.68590
H         -5.13120       -2.12270       -2.25790
H         -3.06940       -2.48670       -1.00380
H          6.12130        2.82360       -4.80650
H          7.72810        4.40040       -3.81350
H          7.94440        4.67710        1.16210
H          6.59670        5.62010        0.44740
H          8.14950        6.40520        0.80320
H          6.53050        3.15350        0.09780
H          4.96190        1.56650       -0.88570
H          6.71670        0.06050       -3.97350
H          7.28040       -1.19520       -6.01840
H          4.73640       -2.38250      -10.30340
H          4.20980       -0.77890       -9.75020
H          3.61360       -2.26120       -8.93110
H          3.40420       -0.32630       -7.60980
H          2.85830        0.92750       -5.59540
H          3.70520        3.67980       -2.69070
H          0.53590        4.90110        2.56940
H          4.04770        7.99150        0.62750
H          2.41830        9.52120        3.22200
H          4.81110        8.70890        4.06540
H          3.63510       10.00640        6.02420
H          1.78620        8.41580        7.07740
H          1.82490        6.13830        5.76810
H          3.88840        6.18490        4.04880
H          4.42020        6.64870        5.68150
H          0.60580        7.96020        4.25200
