
  xtb     02092217273D
 energy: -279.838860475434 gnorm: 0.000688569301 xtb: 6.4.1 (unknown)
161179  0     0  0            999 V2000
    1.5545   -6.1486    3.3673 C   0  0  0  0  0  0  0  0  0  0  0  0
    1.1920   -7.1193    2.4905 C   0  0  0  0  0  0  0  0  0  0  0  0
    0.9253   -7.0168    1.0295 C   0  0  0  0  0  0  0  0  0  0  0  0
    0.8949   -6.0290    0.3256 O   0  0  0  0  0  0  0  0  0  0  0  0
    0.6958   -8.3977    0.5670 C   0  0  0  0  0  0  0  0  0  0  0  0
    0.4585   -8.8007   -0.7447 C   0  0  0  0  0  0  0  0  0  0  0  0
    0.2876  -10.1550   -0.8930 C   0  0  0  0  0  0  0  0  0  0  0  0
    0.3576  -11.0488    0.1851 C   0  0  0  0  0  0  0  0  0  0  0  0
    0.5870  -10.6649    1.4834 C   0  0  0  0  0  0  0  0  0  0  0  0
    0.7488   -9.2857    1.6579 C   0  0  0  0  0  0  0  0  0  0  0  0
    0.9660   -8.5123    2.8733 C   0  0  0  0  0  0  0  0  0  0  0  0
    0.8758   -9.0104    4.1452 C   0  0  0  0  0  0  0  0  0  0  0  0
    0.9597   -8.2765    5.3488 C   0  0  0  0  0  0  0  0  0  0  0  0
    0.9805   -7.7811    6.3853 N   0  0  0  0  0  0  0  0  0  0  0  0
    0.6182  -10.3641    4.4552 C   0  0  0  0  0  0  0  0  0  0  0  0
    0.4046  -11.4398    4.7947 N   0  0  0  0  0  0  0  0  0  0  0  0
    0.0860  -12.2480   -0.6885 C   0  0  0  0  0  0  0  0  0  0  0  0
   -1.3374  -12.8570   -0.6475 C   0  0  0  0  0  0  0  0  0  0  0  0
   -2.2685  -11.7389   -0.2488 C   0  0  0  0  0  0  0  0  0  0  0  0
   -2.3402  -10.8899   -1.2651 C   0  0  0  0  0  0  0  0  0  0  0  0
   -1.4597  -11.4196   -2.3702 C   0  0  0  0  0  0  0  0  0  0  0  0
   -1.6326  -12.9313   -2.1540 C   0  0  0  0  0  0  0  0  0  0  0  0
    0.0027  -11.2517   -1.8877 C   0  0  0  0  0  0  0  0  0  0  0  0
    1.7373   -4.7427    3.1451 C   0  0  0  0  0  0  0  0  0  0  0  0
    2.2007   -4.1624    1.9441 C   0  0  0  0  0  0  0  0  0  0  0  0
    2.7937   -4.6989    0.8715 N   0  0  0  0  0  0  0  0  0  0  0  0
    2.9347   -3.7041    0.0487 N   0  0  0  0  0  0  0  0  0  0  0  0
    3.5289   -3.8820   -1.2443 C   0  0  0  0  0  0  0  0  0  0  0  0
    5.0489   -3.7916   -1.1548 C   0  0  0  0  0  0  0  0  0  0  0  0
    2.5240   -2.5349    0.4572 N   0  0  0  0  0  0  0  0  0  0  0  0
    2.0548   -2.7704    1.6906 C   0  0  0  0  0  0  0  0  0  0  0  0
    1.5606   -1.8780    2.6666 C   0  0  0  0  0  0  0  0  0  0  0  0
    1.3439   -2.4358    3.9201 C   0  0  0  0  0  0  0  0  0  0  0  0
    1.4030   -3.8229    4.1446 C   0  0  0  0  0  0  0  0  0  0  0  0
    0.8809   -4.3952    5.6903 Cl  0  0  0  0  0  0  0  0  0  0  0  0
    0.8416   -1.4120    5.2134 Cl  0  0  0  0  0  0  0  0  0  0  0  0
    1.2503   -0.5272    2.2857 C   0  0  0  0  0  0  0  0  0  0  0  0
    0.6071   -0.1775    1.1062 C   0  0  0  0  0  0  0  0  0  0  0  0
   -0.0234   -1.0295    0.2231 N   0  0  0  0  0  0  0  0  0  0  0  0
   -0.0590   -0.6111   -1.1233 C   0  0  0  0  0  0  0  0  0  0  0  0
    1.1249   -0.2331   -1.7528 C   0  0  0  0  0  0  0  0  0  0  0  0
    1.0927    0.2871   -3.0291 C   0  0  0  0  0  0  0  0  0  0  0  0
   -0.1215    0.4411   -3.6899 C   0  0  0  0  0  0  0  0  0  0  0  0
   -0.0928    1.1408   -5.3157 S   0  0  0  0  0  0  0  0  0  0  0  0
   -1.5597    2.2152   -5.3098 C   0  0  0  0  0  0  0  0  0  0  0  0
   -1.2961    0.0130   -3.0840 C   0  0  0  0  0  0  0  0  0  0  0  0
   -1.2663   -0.5105   -1.8075 C   0  0  0  0  0  0  0  0  0  0  0  0
   -0.6070   -2.2364    0.6086 C   0  0  0  0  0  0  0  0  0  0  0  0
   -0.7009   -3.2932   -0.2973 C   0  0  0  0  0  0  0  0  0  0  0  0
   -1.1872   -4.5182    0.1045 C   0  0  0  0  0  0  0  0  0  0  0  0
   -1.5533   -4.7296    1.4316 C   0  0  0  0  0  0  0  0  0  0  0  0
   -1.9696   -6.3818    1.8967 S   0  0  0  0  0  0  0  0  0  0  0  0
   -2.0279   -6.3182    3.7101 C   0  0  0  0  0  0  0  0  0  0  0  0
   -1.5546   -3.6574    2.3136 C   0  0  0  0  0  0  0  0  0  0  0  0
   -1.1113   -2.4197    1.8970 C   0  0  0  0  0  0  0  0  0  0  0  0
    0.5839    1.2300    0.9529 C   0  0  0  0  0  0  0  0  0  0  0  0
   -0.0374    2.2773   -0.2677 S   0  0  0  0  0  0  0  0  0  0  0  0
    0.4882    3.6839    0.6470 C   0  0  0  0  0  0  0  0  0  0  0  0
    1.0546    3.3466    1.8851 C   0  0  0  0  0  0  0  0  0  0  0  0
    1.4410    4.2077    2.8738 N   0  0  0  0  0  0  0  0  0  0  0  0
    2.4625    3.8161    3.7581 C   0  0  0  0  0  0  0  0  0  0  0  0
    3.6182    3.2086    3.2772 C   0  0  0  0  0  0  0  0  0  0  0  0
    4.6170    2.8093    4.1436 C   0  0  0  0  0  0  0  0  0  0  0  0
    4.4747    3.0171    5.5091 C   0  0  0  0  0  0  0  0  0  0  0  0
    5.6728    2.5486    6.7125 S   0  0  0  0  0  0  0  0  0  0  0  0
    6.9202    1.6382    5.7579 C   0  0  0  0  0  0  0  0  0  0  0  0
    3.3256    3.6448    5.9914 C   0  0  0  0  0  0  0  0  0  0  0  0
    2.3302    4.0405    5.1284 C   0  0  0  0  0  0  0  0  0  0  0  0
    0.8396    5.4631    3.0535 C   0  0  0  0  0  0  0  0  0  0  0  0
   -0.5266    5.6354    2.8469 C   0  0  0  0  0  0  0  0  0  0  0  0
   -1.0891    6.8922    2.9207 C   0  0  0  0  0  0  0  0  0  0  0  0
   -0.2941    7.9930    3.2142 C   0  0  0  0  0  0  0  0  0  0  0  0
   -0.9324    9.6392    3.1982 S   0  0  0  0  0  0  0  0  0  0  0  0
   -2.0709    9.5570    1.7824 C   0  0  0  0  0  0  0  0  0  0  0  0
    1.0506    7.8088    3.5176 C   0  0  0  0  0  0  0  0  0  0  0  0
    1.6151    6.5561    3.4355 C   0  0  0  0  0  0  0  0  0  0  0  0
    1.1356    1.9333    2.0108 C   0  0  0  0  0  0  0  0  0  0  0  0
    1.6977    0.8639    3.2522 S   0  0  0  0  0  0  0  0  0  0  0  0
    0.3142    4.9325    0.0212 C   0  0  0  0  0  0  0  0  0  0  0  0
    0.7768    6.0860    0.4605 N   0  0  0  0  0  0  0  0  0  0  0  0
    0.4529    7.0954   -0.2755 N   0  0  0  0  0  0  0  0  0  0  0  0
   -0.2436    6.8062   -1.3515 C   0  0  0  0  0  0  0  0  0  0  0  0
   -0.5635    5.0809   -1.4913 S   0  0  0  0  0  0  0  0  0  0  0  0
   -0.6862    7.8414   -2.2012 C   0  0  0  0  0  0  0  0  0  0  0  0
   -1.2753    7.7543   -3.4264 C   0  0  0  0  0  0  0  0  0  0  0  0
   -1.4245    6.5371   -4.2510 C   0  0  0  0  0  0  0  0  0  0  0  0
   -1.3269    5.3772   -3.8989 O   0  0  0  0  0  0  0  0  0  0  0  0
   -1.7077    7.0122   -5.6161 C   0  0  0  0  0  0  0  0  0  0  0  0
   -1.8175    6.2353   -6.7681 C   0  0  0  0  0  0  0  0  0  0  0  0
   -2.0651    6.9584   -7.9096 C   0  0  0  0  0  0  0  0  0  0  0  0
   -2.1975    8.3542   -7.9095 C   0  0  0  0  0  0  0  0  0  0  0  0
   -2.1017    9.1327   -6.7806 C   0  0  0  0  0  0  0  0  0  0  0  0
   -1.8476    8.4158   -5.6075 C   0  0  0  0  0  0  0  0  0  0  0  0
   -1.6883    8.8873   -4.2367 C   0  0  0  0  0  0  0  0  0  0  0  0
   -1.9798   10.1420   -3.7725 C   0  0  0  0  0  0  0  0  0  0  0  0
   -1.9853   10.5041   -2.4081 C   0  0  0  0  0  0  0  0  0  0  0  0
   -2.0633   10.8504   -1.3161 N   0  0  0  0  0  0  0  0  0  0  0  0
   -2.3943   11.2146   -4.5893 C   0  0  0  0  0  0  0  0  0  0  0  0
   -2.7293   12.1258   -5.2017 N   0  0  0  0  0  0  0  0  0  0  0  0
   -2.4164    8.4136   -9.4004 C   0  0  0  0  0  0  0  0  0  0  0  0
   -1.2148    8.8693  -10.2554 C   0  0  0  0  0  0  0  0  0  0  0  0
   -1.5524    8.3767  -11.6443 C   0  0  0  0  0  0  0  0  0  0  0  0
   -1.4291    7.0556  -11.6449 C   0  0  0  0  0  0  0  0  0  0  0  0
   -1.0059    6.6328  -10.2566 C   0  0  0  0  0  0  0  0  0  0  0  0
   -0.1456    7.8410   -9.8641 C   0  0  0  0  0  0  0  0  0  0  0  0
   -2.2707    6.8578   -9.4004 C   0  0  0  0  0  0  0  0  0  0  0  0
    1.6502   -6.4388    4.4064 H   0  0  0  0  0  0  0  0  0  0  0  0
    0.4196   -8.0794   -1.5460 H   0  0  0  0  0  0  0  0  0  0  0  0
    0.6422  -11.3657    2.2993 H   0  0  0  0  0  0  0  0  0  0  0  0
    0.8635  -13.0090   -0.7110 H   0  0  0  0  0  0  0  0  0  0  0  0
   -1.4183  -13.7769   -0.0748 H   0  0  0  0  0  0  0  0  0  0  0  0
   -2.7185  -11.6519    0.7226 H   0  0  0  0  0  0  0  0  0  0  0  0
   -2.8607   -9.9513   -1.3103 H   0  0  0  0  0  0  0  0  0  0  0  0
   -1.6533  -11.0311   -3.3668 H   0  0  0  0  0  0  0  0  0  0  0  0
   -0.9142  -13.5340   -2.7080 H   0  0  0  0  0  0  0  0  0  0  0  0
   -2.6435  -13.2744   -2.3684 H   0  0  0  0  0  0  0  0  0  0  0  0
    0.7221  -11.3648   -2.6966 H   0  0  0  0  0  0  0  0  0  0  0  0
    3.2232   -4.8651   -1.6063 H   0  0  0  0  0  0  0  0  0  0  0  0
    3.1321   -3.1004   -1.8948 H   0  0  0  0  0  0  0  0  0  0  0  0
    5.4854   -3.9350   -2.1389 H   0  0  0  0  0  0  0  0  0  0  0  0
    5.3475   -2.8164   -0.7780 H   0  0  0  0  0  0  0  0  0  0  0  0
    5.4299   -4.5595   -0.4864 H   0  0  0  0  0  0  0  0  0  0  0  0
    2.0574   -0.3425   -1.2191 H   0  0  0  0  0  0  0  0  0  0  0  0
    2.0026    0.5940   -3.5212 H   0  0  0  0  0  0  0  0  0  0  0  0
   -1.4576    2.9660   -4.5316 H   0  0  0  0  0  0  0  0  0  0  0  0
   -1.5726    2.6866   -6.2876 H   0  0  0  0  0  0  0  0  0  0  0  0
   -2.4645    1.6308   -5.1789 H   0  0  0  0  0  0  0  0  0  0  0  0
   -2.2402    0.0961   -3.5989 H   0  0  0  0  0  0  0  0  0  0  0  0
   -2.1794   -0.8285   -1.3266 H   0  0  0  0  0  0  0  0  0  0  0  0
   -0.3644   -3.1569   -1.3138 H   0  0  0  0  0  0  0  0  0  0  0  0
   -1.2592   -5.3301   -0.6004 H   0  0  0  0  0  0  0  0  0  0  0  0
   -2.1449   -7.3467    4.0385 H   0  0  0  0  0  0  0  0  0  0  0  0
   -1.0977   -5.9088    4.0956 H   0  0  0  0  0  0  0  0  0  0  0  0
   -2.8819   -5.7337    4.0389 H   0  0  0  0  0  0  0  0  0  0  0  0
   -1.9016   -3.7691    3.3281 H   0  0  0  0  0  0  0  0  0  0  0  0
   -1.1450   -1.5897    2.5859 H   0  0  0  0  0  0  0  0  0  0  0  0
    3.7383    3.0576    2.2144 H   0  0  0  0  0  0  0  0  0  0  0  0
    5.5014    2.3454    3.7384 H   0  0  0  0  0  0  0  0  0  0  0  0
    7.4173    2.3044    5.0588 H   0  0  0  0  0  0  0  0  0  0  0  0
    6.4540    0.8013    5.2466 H   0  0  0  0  0  0  0  0  0  0  0  0
    7.6358    1.2727    6.4877 H   0  0  0  0  0  0  0  0  0  0  0  0
    3.2245    3.8074    7.0532 H   0  0  0  0  0  0  0  0  0  0  0  0
    1.4393    4.5186    5.5061 H   0  0  0  0  0  0  0  0  0  0  0  0
   -1.1455    4.7828    2.6071 H   0  0  0  0  0  0  0  0  0  0  0  0
   -2.1459    7.0130    2.7386 H   0  0  0  0  0  0  0  0  0  0  0  0
   -2.1778   10.5701    1.4098 H   0  0  0  0  0  0  0  0  0  0  0  0
   -3.0386    9.1722    2.0913 H   0  0  0  0  0  0  0  0  0  0  0  0
   -1.6243    8.9310    1.0167 H   0  0  0  0  0  0  0  0  0  0  0  0
    1.6534    8.6649    3.7765 H   0  0  0  0  0  0  0  0  0  0  0  0
    2.6700    6.4236    3.6210 H   0  0  0  0  0  0  0  0  0  0  0  0
   -0.4740    8.8235   -1.7953 H   0  0  0  0  0  0  0  0  0  0  0  0
   -1.7086    5.1631   -6.7253 H   0  0  0  0  0  0  0  0  0  0  0  0
   -2.2044   10.2051   -6.7927 H   0  0  0  0  0  0  0  0  0  0  0  0
   -3.3590    8.8500   -9.7242 H   0  0  0  0  0  0  0  0  0  0  0  0
   -0.9596    9.9208  -10.1575 H   0  0  0  0  0  0  0  0  0  0  0  0
   -1.8879    9.0137  -12.4414 H   0  0  0  0  0  0  0  0  0  0  0  0
   -1.6410    6.3683  -12.4427 H   0  0  0  0  0  0  0  0  0  0  0  0
   -0.5595    5.6468  -10.1599 H   0  0  0  0  0  0  0  0  0  0  0  0
    0.1315    7.8661   -8.8118 H   0  0  0  0  0  0  0  0  0  0  0  0
    0.7495    7.9247  -10.4779 H   0  0  0  0  0  0  0  0  0  0  0  0
   -3.1173    6.2555   -9.7244 H   0  0  0  0  0  0  0  0  0  0  0  0
  1  2  2  0  0  0  0
  2  3  1  0  0  0  0
  3  4  2  0  0  0  0
  3  5  1  0  0  0  0
  5  6  2  0  0  0  0
  6  7  1  0  0  0  0
  7  8  2  0  0  0  0
  8  9  1  0  0  0  0
  9 10  2  0  0  0  0
 10 11  1  0  0  0  0
 11 12  2  0  0  0  0
 12 13  1  0  0  0  0
 13 14  3  0  0  0  0
 12 15  1  0  0  0  0
 15 16  3  0  0  0  0
  8 17  1  0  0  0  0
 17 18  1  0  0  0  0
 18 19  1  0  0  0  0
 19 20  2  0  0  0  0
 20 21  1  0  0  0  0
 21 22  1  0  0  0  0
 21 23  1  0  0  0  0
  1 24  1  0  0  0  0
 24 25  1  0  0  0  0
 25 26  2  0  0  0  0
 26 27  1  0  0  0  0
 27 28  1  0  0  0  0
 28 29  1  0  0  0  0
 27 30  1  0  0  0  0
 30 31  2  0  0  0  0
 31 32  1  0  0  0  0
 32 33  2  0  0  0  0
 33 34  1  0  0  0  0
 34 35  1  0  0  0  0
 33 36  1  0  0  0  0
 32 37  1  0  0  0  0
 37 38  2  0  0  0  0
 38 39  1  0  0  0  0
 39 40  1  0  0  0  0
 40 41  2  0  0  0  0
 41 42  1  0  0  0  0
 42 43  2  0  0  0  0
 43 44  1  0  0  0  0
 44 45  1  0  0  0  0
 43 46  1  0  0  0  0
 46 47  2  0  0  0  0
 39 48  1  0  0  0  0
 48 49  2  0  0  0  0
 49 50  1  0  0  0  0
 50 51  2  0  0  0  0
 51 52  1  0  0  0  0
 52 53  1  0  0  0  0
 51 54  1  0  0  0  0
 54 55  2  0  0  0  0
 38 56  1  0  0  0  0
 56 57  1  0  0  0  0
 57 58  1  0  0  0  0
 58 59  2  0  0  0  0
 59 60  1  0  0  0  0
 60 61  1  0  0  0  0
 61 62  2  0  0  0  0
 62 63  1  0  0  0  0
 63 64  2  0  0  0  0
 64 65  1  0  0  0  0
 65 66  1  0  0  0  0
 64 67  1  0  0  0  0
 67 68  2  0  0  0  0
 60 69  1  0  0  0  0
 69 70  2  0  0  0  0
 70 71  1  0  0  0  0
 71 72  2  0  0  0  0
 72 73  1  0  0  0  0
 73 74  1  0  0  0  0
 72 75  1  0  0  0  0
 75 76  2  0  0  0  0
 59 77  1  0  0  0  0
 77 78  1  0  0  0  0
 58 79  1  0  0  0  0
 79 80  2  0  0  0  0
 80 81  1  0  0  0  0
 81 82  2  0  0  0  0
 82 83  1  0  0  0  0
 82 84  1  0  0  0  0
 84 85  2  0  0  0  0
 85 86  1  0  0  0  0
 86 87  2  0  0  0  0
 86 88  1  0  0  0  0
 88 89  2  0  0  0  0
 89 90  1  0  0  0  0
 90 91  2  0  0  0  0
 91 92  1  0  0  0  0
 92 93  2  0  0  0  0
 93 94  1  0  0  0  0
 94 95  2  0  0  0  0
 95 96  1  0  0  0  0
 96 97  3  0  0  0  0
 95 98  1  0  0  0  0
 98 99  3  0  0  0  0
 91100  1  0  0  0  0
100101  1  0  0  0  0
101102  1  0  0  0  0
102103  2  0  0  0  0
103104  1  0  0  0  0
104105  1  0  0  0  0
104106  1  0  0  0  0
 11  2  1  0  0  0  0
 23 17  1  0  0  0  0
 34 24  2  0  0  0  0
 78 37  1  0  0  0  0
 83 79  1  0  0  0  0
 94 85  1  0  0  0  0
106100  1  0  0  0  0
 10  5  1  0  0  0  0
 22 18  1  0  0  0  0
 31 25  1  0  0  0  0
 47 40  1  0  0  0  0
 55 48  1  0  0  0  0
 77 56  2  0  0  0  0
 93 88  1  0  0  0  0
105101  1  0  0  0  0
 23  7  1  0  0  0  0
 68 61  1  0  0  0  0
 76 69  1  0  0  0  0
106 90  1  0  0  0  0
  1107  1  0  0  0  0
  6108  1  0  0  0  0
  9109  1  0  0  0  0
 17110  1  0  0  0  0
 18111  1  0  0  0  0
 19112  1  0  0  0  0
 20113  1  0  0  0  0
 21114  1  0  0  0  0
 22115  1  0  0  0  0
 22116  1  0  0  0  0
 23117  1  0  0  0  0
 28118  1  0  0  0  0
 28119  1  0  0  0  0
 29120  1  0  0  0  0
 29121  1  0  0  0  0
 29122  1  0  0  0  0
 41123  1  0  0  0  0
 42124  1  0  0  0  0
 45125  1  0  0  0  0
 45126  1  0  0  0  0
 45127  1  0  0  0  0
 46128  1  0  0  0  0
 47129  1  0  0  0  0
 49130  1  0  0  0  0
 50131  1  0  0  0  0
 53132  1  0  0  0  0
 53133  1  0  0  0  0
 53134  1  0  0  0  0
 54135  1  0  0  0  0
 55136  1  0  0  0  0
 62137  1  0  0  0  0
 63138  1  0  0  0  0
 66139  1  0  0  0  0
 66140  1  0  0  0  0
 66141  1  0  0  0  0
 67142  1  0  0  0  0
 68143  1  0  0  0  0
 70144  1  0  0  0  0
 71145  1  0  0  0  0
 74146  1  0  0  0  0
 74147  1  0  0  0  0
 74148  1  0  0  0  0
 75149  1  0  0  0  0
 76150  1  0  0  0  0
 84151  1  0  0  0  0
 89152  1  0  0  0  0
 92153  1  0  0  0  0
100154  1  0  0  0  0
101155  1  0  0  0  0
102156  1  0  0  0  0
103157  1  0  0  0  0
104158  1  0  0  0  0
105159  1  0  0  0  0
105160  1  0  0  0  0
106161  1  0  0  0  0
M  END
