
  xtb     02082201183D
 energy: -362.312545876805 gnorm: 0.000478170466 xtb: 6.4.1 (unknown)
218241  0     0  0            999 V2000
    3.6992   -8.1304   -6.9453 C   0  0  0  0  0  0  0  0  0  0  0  0
    3.2954   -9.4109   -6.7691 C   0  0  0  0  0  0  0  0  0  0  0  0
    4.1949  -10.5468   -7.1195 C   0  0  0  0  0  0  0  0  0  0  0  0
    5.2062  -10.4890   -7.7800 O   0  0  0  0  0  0  0  0  0  0  0  0
    3.6105  -11.7229   -6.4486 C   0  0  0  0  0  0  0  0  0  0  0  0
    4.1482  -13.0073   -6.3798 C   0  0  0  0  0  0  0  0  0  0  0  0
    3.3747  -13.9020   -5.6804 C   0  0  0  0  0  0  0  0  0  0  0  0
    2.1603  -13.5474   -5.0752 C   0  0  0  0  0  0  0  0  0  0  0  0
    1.6173  -12.2864   -5.1319 C   0  0  0  0  0  0  0  0  0  0  0  0
    2.3803  -11.3650   -5.8552 C   0  0  0  0  0  0  0  0  0  0  0  0
    2.0930   -9.9734   -6.1849 C   0  0  0  0  0  0  0  0  0  0  0  0
    0.8478   -9.4033   -6.2132 C   0  0  0  0  0  0  0  0  0  0  0  0
   -0.3205  -10.0304   -5.7343 C   0  0  0  0  0  0  0  0  0  0  0  0
   -1.3014  -10.4901   -5.3545 N   0  0  0  0  0  0  0  0  0  0  0  0
    0.5726   -8.1667   -6.8325 C   0  0  0  0  0  0  0  0  0  0  0  0
    0.2916   -7.1975   -7.3808 N   0  0  0  0  0  0  0  0  0  0  0  0
    1.9235  -14.9409   -4.5498 C   0  0  0  0  0  0  0  0  0  0  0  0
    0.8910  -15.7951   -5.3163 C   0  0  0  0  0  0  0  0  0  0  0  0
    1.2150  -17.2122   -4.9018 C   0  0  0  0  0  0  0  0  0  0  0  0
    2.3617  -17.5491   -5.4783 C   0  0  0  0  0  0  0  0  0  0  0  0
    2.8322  -16.3651   -6.2921 C   0  0  0  0  0  0  0  0  0  0  0  0
    1.4783  -15.7945   -6.7337 C   0  0  0  0  0  0  0  0  0  0  0  0
    3.2740  -15.3373   -5.2282 C   0  0  0  0  0  0  0  0  0  0  0  0
    3.1487   -6.9528   -6.3666 C   0  0  0  0  0  0  0  0  0  0  0  0
    3.1185   -5.6989   -6.9284 C   0  0  0  0  0  0  0  0  0  0  0  0
    2.4586   -4.7505   -6.1379 C   0  0  0  0  0  0  0  0  0  0  0  0
    2.2592   -3.0650   -6.6397 S   0  0  0  0  0  0  0  0  0  0  0  0
    0.7208   -3.2166   -7.6309 C   0  0  0  0  0  0  0  0  0  0  0  0
    0.9044   -4.0369   -8.8898 C   0  0  0  0  0  0  0  0  0  0  0  0
    2.0482   -5.2476   -4.9148 C   0  0  0  0  0  0  0  0  0  0  0  0
    2.4297   -6.9309   -4.7739 S   0  0  0  0  0  0  0  0  0  0  0  0
    1.4435   -4.5305   -3.8369 C   0  0  0  0  0  0  0  0  0  0  0  0
    0.5791   -3.4820   -3.9209 C   0  0  0  0  0  0  0  0  0  0  0  0
    0.2495   -2.9205   -2.6657 C   0  0  0  0  0  0  0  0  0  0  0  0
   -0.6006   -1.8275   -2.4198 C   0  0  0  0  0  0  0  0  0  0  0  0
   -1.3004   -1.1025   -3.4584 C   0  0  0  0  0  0  0  0  0  0  0  0
   -2.5706   -0.5961   -3.3912 C   0  0  0  0  0  0  0  0  0  0  0  0
   -2.9248    0.1668   -4.5134 C   0  0  0  0  0  0  0  0  0  0  0  0
   -1.9256    0.2696   -5.4418 C   0  0  0  0  0  0  0  0  0  0  0  0
   -1.9575    1.0048   -6.6877 C   0  0  0  0  0  0  0  0  0  0  0  0
   -2.2299    2.3166   -6.7810 C   0  0  0  0  0  0  0  0  0  0  0  0
   -2.3493    3.2659   -5.7153 C   0  0  0  0  0  0  0  0  0  0  0  0
   -2.7081    4.5851   -5.8471 C   0  0  0  0  0  0  0  0  0  0  0  0
   -2.5866    5.3345   -4.6683 C   0  0  0  0  0  0  0  0  0  0  0  0
   -2.1132    4.5950   -3.6189 C   0  0  0  0  0  0  0  0  0  0  0  0
   -1.8608    5.1997   -2.0017 S   0  0  0  0  0  0  0  0  0  0  0  0
   -0.7510    3.9390   -1.2820 C   0  0  0  0  0  0  0  0  0  0  0  0
    0.6363    4.0034   -1.8889 C   0  0  0  0  0  0  0  0  0  0  0  0
   -1.8626    2.9348   -4.0707 S   0  0  0  0  0  0  0  0  0  0  0  0
   -0.5284   -0.6387   -4.9496 S   0  0  0  0  0  0  0  0  0  0  0  0
   -0.6926   -1.4100   -1.0983 C   0  0  0  0  0  0  0  0  0  0  0  0
   -0.0067   -2.0245   -0.0237 C   0  0  0  0  0  0  0  0  0  0  0  0
    0.7911   -3.1669   -0.2623 C   0  0  0  0  0  0  0  0  0  0  0  0
    1.5190   -3.8213    0.7985 C   0  0  0  0  0  0  0  0  0  0  0  0
    1.1874   -3.9633    2.1236 C   0  0  0  0  0  0  0  0  0  0  0  0
    2.1715   -4.6062    2.8867 C   0  0  0  0  0  0  0  0  0  0  0  0
    3.2741   -4.9719    2.1574 C   0  0  0  0  0  0  0  0  0  0  0  0
    4.4665   -5.6916    2.5144 C   0  0  0  0  0  0  0  0  0  0  0  0
    5.2670   -5.5439    3.5867 C   0  0  0  0  0  0  0  0  0  0  0  0
    5.2623   -4.5718    4.6325 C   0  0  0  0  0  0  0  0  0  0  0  0
    6.2469   -4.4692    5.5892 C   0  0  0  0  0  0  0  0  0  0  0  0
    6.0695   -3.4060    6.4832 C   0  0  0  0  0  0  0  0  0  0  0  0
    4.9416   -2.6819    6.2217 C   0  0  0  0  0  0  0  0  0  0  0  0
    4.3997   -1.2779    7.1041 S   0  0  0  0  0  0  0  0  0  0  0  0
    2.6380   -1.7042    7.3475 C   0  0  0  0  0  0  0  0  0  0  0  0
    2.4747   -2.9616    8.1756 C   0  0  0  0  0  0  0  0  0  0  0  0
    4.0949   -3.2935    4.8269 S   0  0  0  0  0  0  0  0  0  0  0  0
    3.0700   -4.5414    0.4843 S   0  0  0  0  0  0  0  0  0  0  0  0
    0.9029   -3.5727   -1.5934 C   0  0  0  0  0  0  0  0  0  0  0  0
    1.8635   -4.9041   -2.1778 S   0  0  0  0  0  0  0  0  0  0  0  0
   -0.1361   -1.2684    1.1709 C   0  0  0  0  0  0  0  0  0  0  0  0
   -0.8548   -0.1203    1.0220 C   0  0  0  0  0  0  0  0  0  0  0  0
   -1.5165    0.0361   -0.5941 S   0  0  0  0  0  0  0  0  0  0  0  0
   -1.0412    0.9824    1.9130 C   0  0  0  0  0  0  0  0  0  0  0  0
   -0.1279    1.5759    2.7750 C   0  0  0  0  0  0  0  0  0  0  0  0
    1.1689    1.1448    3.0075 N   0  0  0  0  0  0  0  0  0  0  0  0
    1.7104    1.3149    4.2892 C   0  0  0  0  0  0  0  0  0  0  0  0
    0.8939    1.1900    5.4145 C   0  0  0  0  0  0  0  0  0  0  0  0
    1.4047    1.4147    6.6724 C   0  0  0  0  0  0  0  0  0  0  0  0
    2.7492    1.7385    6.8430 C   0  0  0  0  0  0  0  0  0  0  0  0
    3.2880    1.9849    8.5042 S   0  0  0  0  0  0  0  0  0  0  0  0
    5.0814    2.2013    8.3574 C   0  0  0  0  0  0  0  0  0  0  0  0
    3.5716    1.8352    5.7285 C   0  0  0  0  0  0  0  0  0  0  0  0
    3.0536    1.6337    4.4646 C   0  0  0  0  0  0  0  0  0  0  0  0
    1.9235    0.6003    1.9596 C   0  0  0  0  0  0  0  0  0  0  0  0
    1.7616    1.0781    0.6614 C   0  0  0  0  0  0  0  0  0  0  0  0
    2.3676    0.4527   -0.4091 C   0  0  0  0  0  0  0  0  0  0  0  0
    3.1731   -0.6582   -0.1975 C   0  0  0  0  0  0  0  0  0  0  0  0
    3.9083   -1.5993   -1.4967 S   0  0  0  0  0  0  0  0  0  0  0  0
    3.1619   -0.9237   -3.0068 C   0  0  0  0  0  0  0  0  0  0  0  0
    3.4164   -1.0808    1.1088 C   0  0  0  0  0  0  0  0  0  0  0  0
    2.7945   -0.4690    2.1746 C   0  0  0  0  0  0  0  0  0  0  0  0
   -0.6766    2.7551    3.3427 C   0  0  0  0  0  0  0  0  0  0  0  0
   -0.0829    3.9296    4.4588 S   0  0  0  0  0  0  0  0  0  0  0  0
   -1.5540    4.8981    4.2632 C   0  0  0  0  0  0  0  0  0  0  0  0
   -2.5046    4.2513    3.4475 C   0  0  0  0  0  0  0  0  0  0  0  0
   -3.8116    4.6004    3.2705 N   0  0  0  0  0  0  0  0  0  0  0  0
   -4.4944    4.1375    2.1228 C   0  0  0  0  0  0  0  0  0  0  0  0
   -5.7238    3.4952    2.2523 C   0  0  0  0  0  0  0  0  0  0  0  0
   -6.3600    2.9979    1.1358 C   0  0  0  0  0  0  0  0  0  0  0  0
   -5.7824    3.1390   -0.1253 C   0  0  0  0  0  0  0  0  0  0  0  0
   -6.6447    2.4319   -1.4899 S   0  0  0  0  0  0  0  0  0  0  0  0
   -5.4454    2.5422   -2.8491 C   0  0  0  0  0  0  0  0  0  0  0  0
   -4.5840    3.8260   -0.2581 C   0  0  0  0  0  0  0  0  0  0  0  0
   -3.9442    4.3207    0.8597 C   0  0  0  0  0  0  0  0  0  0  0  0
   -4.5197    5.4023    4.1727 C   0  0  0  0  0  0  0  0  0  0  0  0
   -4.3674    5.2542    5.5497 C   0  0  0  0  0  0  0  0  0  0  0  0
   -5.0245    6.0917    6.4268 C   0  0  0  0  0  0  0  0  0  0  0  0
   -5.8461    7.1041    5.9409 C   0  0  0  0  0  0  0  0  0  0  0  0
   -6.6547    8.2936    6.9538 S   0  0  0  0  0  0  0  0  0  0  0  0
   -6.1267    7.8814    8.6396 C   0  0  0  0  0  0  0  0  0  0  0  0
   -6.0503    7.2146    4.5660 C   0  0  0  0  0  0  0  0  0  0  0  0
   -5.4020    6.3718    3.6913 C   0  0  0  0  0  0  0  0  0  0  0  0
   -1.9544    3.0662    2.9016 C   0  0  0  0  0  0  0  0  0  0  0  0
   -2.5337    1.8950    1.7700 S   0  0  0  0  0  0  0  0  0  0  0  0
   -1.5979    6.1322    4.9203 C   0  0  0  0  0  0  0  0  0  0  0  0
   -2.3708    7.2058    4.5341 C   0  0  0  0  0  0  0  0  0  0  0  0
   -2.8121    7.4341    3.1484 C   0  0  0  0  0  0  0  0  0  0  0  0
   -2.6043    6.7237    2.1814 O   0  0  0  0  0  0  0  0  0  0  0  0
   -3.4456    8.7672    3.1418 C   0  0  0  0  0  0  0  0  0  0  0  0
   -4.0346    9.4088    2.0575 C   0  0  0  0  0  0  0  0  0  0  0  0
   -4.5813   10.6329    2.3629 C   0  0  0  0  0  0  0  0  0  0  0  0
   -4.5367   11.1831    3.6494 C   0  0  0  0  0  0  0  0  0  0  0  0
   -3.9513   10.5613    4.7278 C   0  0  0  0  0  0  0  0  0  0  0  0
   -3.3943    9.3147    4.4384 C   0  0  0  0  0  0  0  0  0  0  0  0
   -2.7400    8.3497    5.3191 C   0  0  0  0  0  0  0  0  0  0  0  0
   -2.6448    8.4412    6.6867 C   0  0  0  0  0  0  0  0  0  0  0  0
   -3.0626    9.5468    7.4498 C   0  0  0  0  0  0  0  0  0  0  0  0
   -3.3844   10.4039    8.1444 N   0  0  0  0  0  0  0  0  0  0  0  0
   -2.1919    7.3932    7.5111 C   0  0  0  0  0  0  0  0  0  0  0  0
   -1.8940    6.5676    8.2531 N   0  0  0  0  0  0  0  0  0  0  0  0
   -5.2726   12.4309    3.2280 C   0  0  0  0  0  0  0  0  0  0  0  0
   -4.4458   13.7230    3.0155 C   0  0  0  0  0  0  0  0  0  0  0  0
   -3.0495   13.2838    2.6513 C   0  0  0  0  0  0  0  0  0  0  0  0
   -3.0941   12.7605    1.4335 C   0  0  0  0  0  0  0  0  0  0  0  0
   -4.5218   12.8368    0.9520 C   0  0  0  0  0  0  0  0  0  0  0  0
   -4.9675   14.1413    1.6314 C   0  0  0  0  0  0  0  0  0  0  0  0
   -5.3254   11.8153    1.7941 C   0  0  0  0  0  0  0  0  0  0  0  0
    4.5776   -7.9896   -7.5680 H   0  0  0  0  0  0  0  0  0  0  0  0
    5.0896  -13.2400   -6.8521 H   0  0  0  0  0  0  0  0  0  0  0  0
    0.6895  -12.0180   -4.6539 H   0  0  0  0  0  0  0  0  0  0  0  0
    1.8352  -15.0336   -3.4691 H   0  0  0  0  0  0  0  0  0  0  0  0
   -0.1403  -15.4736   -5.2008 H   0  0  0  0  0  0  0  0  0  0  0  0
    0.6244  -17.7854   -4.2116 H   0  0  0  0  0  0  0  0  0  0  0  0
    2.9205  -18.4596   -5.3658 H   0  0  0  0  0  0  0  0  0  0  0  0
    3.5688  -16.5647   -7.0657 H   0  0  0  0  0  0  0  0  0  0  0  0
    0.9450  -16.4706   -7.3997 H   0  0  0  0  0  0  0  0  0  0  0  0
    1.5383  -14.8079   -7.1894 H   0  0  0  0  0  0  0  0  0  0  0  0
    4.0876  -15.6970   -4.6012 H   0  0  0  0  0  0  0  0  0  0  0  0
    3.5263   -5.4767   -7.8978 H   0  0  0  0  0  0  0  0  0  0  0  0
    0.4639   -2.1820   -7.8569 H   0  0  0  0  0  0  0  0  0  0  0  0
   -0.0463   -3.6518   -6.9908 H   0  0  0  0  0  0  0  0  0  0  0  0
    1.0664   -5.0837   -8.6434 H   0  0  0  0  0  0  0  0  0  0  0  0
    0.0063   -3.9677   -9.5002 H   0  0  0  0  0  0  0  0  0  0  0  0
    1.7482   -3.6674   -9.4686 H   0  0  0  0  0  0  0  0  0  0  0  0
    0.1767   -3.1211   -4.8464 H   0  0  0  0  0  0  0  0  0  0  0  0
   -3.2396   -0.7943   -2.5730 H   0  0  0  0  0  0  0  0  0  0  0  0
   -3.8880    0.6250   -4.6488 H   0  0  0  0  0  0  0  0  0  0  0  0
   -1.7501    0.4430   -7.5888 H   0  0  0  0  0  0  0  0  0  0  0  0
   -2.3171    2.7569   -7.7664 H   0  0  0  0  0  0  0  0  0  0  0  0
   -3.0400    5.0037   -6.7808 H   0  0  0  0  0  0  0  0  0  0  0  0
   -2.8153    6.3811   -4.5871 H   0  0  0  0  0  0  0  0  0  0  0  0
   -1.2173    2.9621   -1.4177 H   0  0  0  0  0  0  0  0  0  0  0  0
   -0.7301    4.1832   -0.2197 H   0  0  0  0  0  0  0  0  0  0  0  0
    1.0619    4.9958   -1.7562 H   0  0  0  0  0  0  0  0  0  0  0  0
    0.6034    3.7779   -2.9528 H   0  0  0  0  0  0  0  0  0  0  0  0
    1.2883    3.2792   -1.4057 H   0  0  0  0  0  0  0  0  0  0  0  0
    0.2375   -3.6637    2.5286 H   0  0  0  0  0  0  0  0  0  0  0  0
    2.0501   -4.8410    3.9287 H   0  0  0  0  0  0  0  0  0  0  0  0
    4.7758   -6.4174    1.7720 H   0  0  0  0  0  0  0  0  0  0  0  0
    6.1137   -6.2168    3.6583 H   0  0  0  0  0  0  0  0  0  0  0  0
    7.0710   -5.1580    5.6455 H   0  0  0  0  0  0  0  0  0  0  0  0
    6.7283   -3.1811    7.3017 H   0  0  0  0  0  0  0  0  0  0  0  0
    2.2186   -0.8380    7.8552 H   0  0  0  0  0  0  0  0  0  0  0  0
    2.1860   -1.7982    6.3598 H   0  0  0  0  0  0  0  0  0  0  0  0
    1.4170   -3.1597    8.3365 H   0  0  0  0  0  0  0  0  0  0  0  0
    2.9589   -2.8427    9.1423 H   0  0  0  0  0  0  0  0  0  0  0  0
    2.9152   -3.8198    7.6708 H   0  0  0  0  0  0  0  0  0  0  0  0
    0.3306   -1.5384    2.0980 H   0  0  0  0  0  0  0  0  0  0  0  0
   -0.1439    0.9149    5.2966 H   0  0  0  0  0  0  0  0  0  0  0  0
    0.7672    1.3390    7.5403 H   0  0  0  0  0  0  0  0  0  0  0  0
    5.3028    3.1103    7.8057 H   0  0  0  0  0  0  0  0  0  0  0  0
    5.5141    1.3261    7.8816 H   0  0  0  0  0  0  0  0  0  0  0  0
    5.4479    2.2905    9.3753 H   0  0  0  0  0  0  0  0  0  0  0  0
    4.6168    2.0765    5.8287 H   0  0  0  0  0  0  0  0  0  0  0  0
    3.6953    1.7325    3.6017 H   0  0  0  0  0  0  0  0  0  0  0  0
    1.1277    1.9358    0.4897 H   0  0  0  0  0  0  0  0  0  0  0  0
    2.1972    0.8342   -1.4033 H   0  0  0  0  0  0  0  0  0  0  0  0
    2.0800   -0.9210   -2.9159 H   0  0  0  0  0  0  0  0  0  0  0  0
    3.5447    0.0739   -3.2014 H   0  0  0  0  0  0  0  0  0  0  0  0
    3.4570   -1.5927   -3.8099 H   0  0  0  0  0  0  0  0  0  0  0  0
    4.0783   -1.9162    1.2761 H   0  0  0  0  0  0  0  0  0  0  0  0
    2.9584   -0.8381    3.1764 H   0  0  0  0  0  0  0  0  0  0  0  0
   -6.1656    3.3765    3.2307 H   0  0  0  0  0  0  0  0  0  0  0  0
   -7.3044    2.4841    1.2283 H   0  0  0  0  0  0  0  0  0  0  0  0
   -5.2917    3.5783   -3.1379 H   0  0  0  0  0  0  0  0  0  0  0  0
   -4.5121    2.0724   -2.5517 H   0  0  0  0  0  0  0  0  0  0  0  0
   -5.8937    1.9974   -3.6745 H   0  0  0  0  0  0  0  0  0  0  0  0
   -4.1416    3.9947   -1.2246 H   0  0  0  0  0  0  0  0  0  0  0  0
   -3.0286    4.8817    0.7609 H   0  0  0  0  0  0  0  0  0  0  0  0
   -3.7212    4.4829    5.9411 H   0  0  0  0  0  0  0  0  0  0  0  0
   -4.8763    5.9519    7.4851 H   0  0  0  0  0  0  0  0  0  0  0  0
   -5.0461    7.9490    8.7229 H   0  0  0  0  0  0  0  0  0  0  0  0
   -6.4858    6.8932    8.9116 H   0  0  0  0  0  0  0  0  0  0  0  0
   -6.5866    8.6308    9.2761 H   0  0  0  0  0  0  0  0  0  0  0  0
   -6.7071    7.9858    4.1943 H   0  0  0  0  0  0  0  0  0  0  0  0
   -5.5532    6.4711    2.6273 H   0  0  0  0  0  0  0  0  0  0  0  0
   -0.9312    6.2422    5.7674 H   0  0  0  0  0  0  0  0  0  0  0  0
   -4.0517    8.9483    1.0817 H   0  0  0  0  0  0  0  0  0  0  0  0
   -3.9231   10.9955    5.7135 H   0  0  0  0  0  0  0  0  0  0  0  0
   -6.2159   12.6209    3.7363 H   0  0  0  0  0  0  0  0  0  0  0  0
   -4.5264   14.4479    3.8211 H   0  0  0  0  0  0  0  0  0  0  0  0
   -2.2100   13.3430    3.3191 H   0  0  0  0  0  0  0  0  0  0  0  0
   -2.2996   12.2942    0.8807 H   0  0  0  0  0  0  0  0  0  0  0  0
   -4.6714   12.7547   -0.1216 H   0  0  0  0  0  0  0  0  0  0  0  0
   -6.0449   14.2986    1.6033 H   0  0  0  0  0  0  0  0  0  0  0  0
   -4.4572   15.0184    1.2357 H   0  0  0  0  0  0  0  0  0  0  0  0
   -6.3040   11.6040    1.3668 H   0  0  0  0  0  0  0  0  0  0  0  0
  1  2  2  0  0  0  0
  2  3  1  0  0  0  0
  3  4  2  0  0  0  0
  3  5  1  0  0  0  0
  5  6  2  0  0  0  0
  6  7  1  0  0  0  0
  7  8  2  0  0  0  0
  8  9  1  0  0  0  0
  9 10  2  0  0  0  0
 10 11  1  0  0  0  0
 11 12  2  0  0  0  0
 12 13  1  0  0  0  0
 13 14  3  0  0  0  0
 12 15  1  0  0  0  0
 15 16  3  0  0  0  0
  8 17  1  0  0  0  0
 17 18  1  0  0  0  0
 18 19  1  0  0  0  0
 19 20  2  0  0  0  0
 20 21  1  0  0  0  0
 21 22  1  0  0  0  0
 21 23  1  0  0  0  0
  1 24  1  0  0  0  0
 24 25  2  0  0  0  0
 25 26  1  0  0  0  0
 26 27  1  0  0  0  0
 27 28  1  0  0  0  0
 28 29  1  0  0  0  0
 26 30  2  0  0  0  0
 30 31  1  0  0  0  0
 30 32  1  0  0  0  0
 32 33  2  0  0  0  0
 33 34  1  0  0  0  0
 34 35  2  0  0  0  0
 35 36  1  0  0  0  0
 36 37  2  0  0  0  0
 37 38  1  0  0  0  0
 38 39  2  0  0  0  0
 39 40  1  0  0  0  0
 40 41  2  0  0  0  0
 41 42  1  0  0  0  0
 42 43  2  0  0  0  0
 43 44  1  0  0  0  0
 44 45  2  0  0  0  0
 45 46  1  0  0  0  0
 46 47  1  0  0  0  0
 47 48  1  0  0  0  0
 45 49  1  0  0  0  0
 39 50  1  0  0  0  0
 35 51  1  0  0  0  0
 51 52  2  0  0  0  0
 52 53  1  0  0  0  0
 53 54  1  0  0  0  0
 54 55  2  0  0  0  0
 55 56  1  0  0  0  0
 56 57  2  0  0  0  0
 57 58  1  0  0  0  0
 58 59  2  0  0  0  0
 59 60  1  0  0  0  0
 60 61  2  0  0  0  0
 61 62  1  0  0  0  0
 62 63  2  0  0  0  0
 63 64  1  0  0  0  0
 64 65  1  0  0  0  0
 65 66  1  0  0  0  0
 63 67  1  0  0  0  0
 57 68  1  0  0  0  0
 53 69  2  0  0  0  0
 69 70  1  0  0  0  0
 52 71  1  0  0  0  0
 71 72  2  0  0  0  0
 72 73  1  0  0  0  0
 72 74  1  0  0  0  0
 74 75  2  0  0  0  0
 75 76  1  0  0  0  0
 76 77  1  0  0  0  0
 77 78  2  0  0  0  0
 78 79  1  0  0  0  0
 79 80  2  0  0  0  0
 80 81  1  0  0  0  0
 81 82  1  0  0  0  0
 80 83  1  0  0  0  0
 83 84  2  0  0  0  0
 76 85  1  0  0  0  0
 85 86  2  0  0  0  0
 86 87  1  0  0  0  0
 87 88  2  0  0  0  0
 88 89  1  0  0  0  0
 89 90  1  0  0  0  0
 88 91  1  0  0  0  0
 91 92  2  0  0  0  0
 75 93  1  0  0  0  0
 93 94  1  0  0  0  0
 94 95  1  0  0  0  0
 95 96  2  0  0  0  0
 96 97  1  0  0  0  0
 97 98  1  0  0  0  0
 98 99  2  0  0  0  0
 99100  1  0  0  0  0
100101  2  0  0  0  0
101102  1  0  0  0  0
102103  1  0  0  0  0
101104  1  0  0  0  0
104105  2  0  0  0  0
 97106  1  0  0  0  0
106107  2  0  0  0  0
107108  1  0  0  0  0
108109  2  0  0  0  0
109110  1  0  0  0  0
110111  1  0  0  0  0
109112  1  0  0  0  0
112113  2  0  0  0  0
 96114  1  0  0  0  0
114115  1  0  0  0  0
 95116  1  0  0  0  0
116117  2  0  0  0  0
117118  1  0  0  0  0
118119  2  0  0  0  0
118120  1  0  0  0  0
120121  2  0  0  0  0
121122  1  0  0  0  0
122123  2  0  0  0  0
123124  1  0  0  0  0
124125  2  0  0  0  0
125126  1  0  0  0  0
126127  2  0  0  0  0
127128  1  0  0  0  0
128129  3  0  0  0  0
127130  1  0  0  0  0
130131  3  0  0  0  0
123132  1  0  0  0  0
132133  1  0  0  0  0
133134  1  0  0  0  0
134135  2  0  0  0  0
135136  1  0  0  0  0
136137  1  0  0  0  0
136138  1  0  0  0  0
 11  2  1  0  0  0  0
 23 17  1  0  0  0  0
 31 24  1  0  0  0  0
 70 32  1  0  0  0  0
115 74  1  0  0  0  0
126117  1  0  0  0  0
138132  1  0  0  0  0
 10  5  1  0  0  0  0
 22 18  1  0  0  0  0
 69 34  1  0  0  0  0
 84 77  1  0  0  0  0
 92 85  1  0  0  0  0
114 93  2  0  0  0  0
125120  1  0  0  0  0
137133  1  0  0  0  0
 23  7  1  0  0  0  0
 50 36  1  0  0  0  0
 73 51  1  0  0  0  0
105 98  1  0  0  0  0
113106  1  0  0  0  0
138122  1  0  0  0  0
 49 42  1  0  0  0  0
 68 54  1  0  0  0  0
 67 60  1  0  0  0  0
  1139  1  0  0  0  0
  6140  1  0  0  0  0
  9141  1  0  0  0  0
 17142  1  0  0  0  0
 18143  1  0  0  0  0
 19144  1  0  0  0  0
 20145  1  0  0  0  0
 21146  1  0  0  0  0
 22147  1  0  0  0  0
 22148  1  0  0  0  0
 23149  1  0  0  0  0
 25150  1  0  0  0  0
 28151  1  0  0  0  0
 28152  1  0  0  0  0
 29153  1  0  0  0  0
 29154  1  0  0  0  0
 29155  1  0  0  0  0
 33156  1  0  0  0  0
 37157  1  0  0  0  0
 38158  1  0  0  0  0
 40159  1  0  0  0  0
 41160  1  0  0  0  0
 43161  1  0  0  0  0
 44162  1  0  0  0  0
 47163  1  0  0  0  0
 47164  1  0  0  0  0
 48165  1  0  0  0  0
 48166  1  0  0  0  0
 48167  1  0  0  0  0
 55168  1  0  0  0  0
 56169  1  0  0  0  0
 58170  1  0  0  0  0
 59171  1  0  0  0  0
 61172  1  0  0  0  0
 62173  1  0  0  0  0
 65174  1  0  0  0  0
 65175  1  0  0  0  0
 66176  1  0  0  0  0
 66177  1  0  0  0  0
 66178  1  0  0  0  0
 71179  1  0  0  0  0
 78180  1  0  0  0  0
 79181  1  0  0  0  0
 82182  1  0  0  0  0
 82183  1  0  0  0  0
 82184  1  0  0  0  0
 83185  1  0  0  0  0
 84186  1  0  0  0  0
 86187  1  0  0  0  0
 87188  1  0  0  0  0
 90189  1  0  0  0  0
 90190  1  0  0  0  0
 90191  1  0  0  0  0
 91192  1  0  0  0  0
 92193  1  0  0  0  0
 99194  1  0  0  0  0
100195  1  0  0  0  0
103196  1  0  0  0  0
103197  1  0  0  0  0
103198  1  0  0  0  0
104199  1  0  0  0  0
105200  1  0  0  0  0
107201  1  0  0  0  0
108202  1  0  0  0  0
111203  1  0  0  0  0
111204  1  0  0  0  0
111205  1  0  0  0  0
112206  1  0  0  0  0
113207  1  0  0  0  0
116208  1  0  0  0  0
121209  1  0  0  0  0
124210  1  0  0  0  0
132211  1  0  0  0  0
133212  1  0  0  0  0
134213  1  0  0  0  0
135214  1  0  0  0  0
136215  1  0  0  0  0
137216  1  0  0  0  0
137217  1  0  0  0  0
138218  1  0  0  0  0
M  END
