
  xtb     02092203233D
 energy: -363.556993760605 gnorm: 0.000302852308 xtb: 6.4.1 (unknown)
208229  0     0  0            999 V2000
    8.8925   -0.3665   -5.4076 C   0  0  0  0  0  0  0  0  0  0  0  0
    9.0600   -1.7156   -5.5919 C   0  0  0  0  0  0  0  0  0  0  0  0
    8.7265   -2.7438   -4.6019 C   0  0  0  0  0  0  0  0  0  0  0  0
    8.3422   -2.5652   -3.4567 O   0  0  0  0  0  0  0  0  0  0  0  0
    8.9807   -4.0391   -5.2467 C   0  0  0  0  0  0  0  0  0  0  0  0
    8.7354   -5.3034   -4.7155 C   0  0  0  0  0  0  0  0  0  0  0  0
    9.0022   -6.3341   -5.5839 C   0  0  0  0  0  0  0  0  0  0  0  0
    9.4929   -6.1237   -6.8792 C   0  0  0  0  0  0  0  0  0  0  0  0
    9.7522   -4.8822   -7.4100 C   0  0  0  0  0  0  0  0  0  0  0  0
    9.4728   -3.8180   -6.5488 C   0  0  0  0  0  0  0  0  0  0  0  0
    9.5548   -2.3764   -6.7795 C   0  0  0  0  0  0  0  0  0  0  0  0
    9.9664   -1.7820   -7.9467 C   0  0  0  0  0  0  0  0  0  0  0  0
    9.9736   -0.3960   -8.1994 C   0  0  0  0  0  0  0  0  0  0  0  0
    9.9848    0.7153   -8.4941 N   0  0  0  0  0  0  0  0  0  0  0  0
   10.4202   -2.4781   -9.0853 C   0  0  0  0  0  0  0  0  0  0  0  0
   10.8002   -2.9656  -10.0534 N   0  0  0  0  0  0  0  0  0  0  0  0
    9.4943   -7.5966   -7.2042 C   0  0  0  0  0  0  0  0  0  0  0  0
    8.3390   -8.0969   -8.0974 C   0  0  0  0  0  0  0  0  0  0  0  0
    8.3096   -9.5880   -7.8514 C   0  0  0  0  0  0  0  0  0  0  0  0
    7.8400   -9.7855   -6.6262 C   0  0  0  0  0  0  0  0  0  0  0  0
    7.5450   -8.4309   -6.0236 C   0  0  0  0  0  0  0  0  0  0  0  0
    7.1101   -7.6707   -7.2835 C   0  0  0  0  0  0  0  0  0  0  0  0
    8.9431   -7.8307   -5.7611 C   0  0  0  0  0  0  0  0  0  0  0  0
    8.1654    0.2994   -4.4113 C   0  0  0  0  0  0  0  0  0  0  0  0
    7.9009    1.6669   -4.4586 C   0  0  0  0  0  0  0  0  0  0  0  0
    6.9376    2.0823   -3.5578 C   0  0  0  0  0  0  0  0  0  0  0  0
    6.4348    3.7750   -3.4219 S   0  0  0  0  0  0  0  0  0  0  0  0
    7.7186    4.2998   -2.2132 C   0  0  0  0  0  0  0  0  0  0  0  0
    7.3892    5.6652   -1.6516 C   0  0  0  0  0  0  0  0  0  0  0  0
    6.3944    1.0333   -2.8104 C   0  0  0  0  0  0  0  0  0  0  0  0
    7.2540   -0.4458   -3.1210 S   0  0  0  0  0  0  0  0  0  0  0  0
    5.2736    1.0869   -1.9485 C   0  0  0  0  0  0  0  0  0  0  0  0
    4.3909    0.0661   -1.5780 C   0  0  0  0  0  0  0  0  0  0  0  0
    4.3516   -1.2371   -2.0359 N   0  0  0  0  0  0  0  0  0  0  0  0
    4.6573   -1.6029   -3.3457 C   0  0  0  0  0  0  0  0  0  0  0  0
    5.1815   -2.8720   -3.6093 C   0  0  0  0  0  0  0  0  0  0  0  0
    5.6021   -3.2007   -4.8759 C   0  0  0  0  0  0  0  0  0  0  0  0
    5.5325   -2.2680   -5.9086 C   0  0  0  0  0  0  0  0  0  0  0  0
    6.2539   -2.7389   -7.4505 S   0  0  0  0  0  0  0  0  0  0  0  0
    6.4071   -1.1669   -8.3445 C   0  0  0  0  0  0  0  0  0  0  0  0
    4.9335   -1.0374   -5.6751 C   0  0  0  0  0  0  0  0  0  0  0  0
    4.4871   -0.7161   -4.4087 C   0  0  0  0  0  0  0  0  0  0  0  0
    3.8935   -2.2177   -1.1334 C   0  0  0  0  0  0  0  0  0  0  0  0
    4.3680   -2.2346    0.1746 C   0  0  0  0  0  0  0  0  0  0  0  0
    3.8916   -3.1581    1.0837 C   0  0  0  0  0  0  0  0  0  0  0  0
    2.9326   -4.0852    0.6948 C   0  0  0  0  0  0  0  0  0  0  0  0
    2.2500   -5.3005    1.7690 S   0  0  0  0  0  0  0  0  0  0  0  0
    2.6780   -4.6875    3.4228 C   0  0  0  0  0  0  0  0  0  0  0  0
    2.4776   -4.0875   -0.6240 C   0  0  0  0  0  0  0  0  0  0  0  0
    2.9483   -3.1639   -1.5286 C   0  0  0  0  0  0  0  0  0  0  0  0
    3.4195    0.5525   -0.6684 C   0  0  0  0  0  0  0  0  0  0  0  0
    2.0797   -0.1797    0.1438 S   0  0  0  0  0  0  0  0  0  0  0  0
    1.6147    1.3773    0.8145 C   0  0  0  0  0  0  0  0  0  0  0  0
    2.4980    2.3925    0.4762 C   0  0  0  0  0  0  0  0  0  0  0  0
    2.4484    3.6890    0.9520 N   0  0  0  0  0  0  0  0  0  0  0  0
    2.0723    3.9534    2.2753 C   0  0  0  0  0  0  0  0  0  0  0  0
    1.4503    5.1547    2.6023 C   0  0  0  0  0  0  0  0  0  0  0  0
    1.0800    5.4255    3.9056 C   0  0  0  0  0  0  0  0  0  0  0  0
    1.2904    4.4835    4.9026 C   0  0  0  0  0  0  0  0  0  0  0  0
    0.8032    4.7009    6.5843 S   0  0  0  0  0  0  0  0  0  0  0  0
    0.2359    6.4235    6.6571 C   0  0  0  0  0  0  0  0  0  0  0  0
    1.9150    3.2800    4.5804 C   0  0  0  0  0  0  0  0  0  0  0  0
    2.3147    3.0246    3.2891 C   0  0  0  0  0  0  0  0  0  0  0  0
    2.9072    4.7164    0.1122 C   0  0  0  0  0  0  0  0  0  0  0  0
    3.6940    5.7576    0.6039 C   0  0  0  0  0  0  0  0  0  0  0  0
    4.1781    6.7211   -0.2524 C   0  0  0  0  0  0  0  0  0  0  0  0
    3.9038    6.6595   -1.6178 C   0  0  0  0  0  0  0  0  0  0  0  0
    4.6182    7.9063   -2.6414 S   0  0  0  0  0  0  0  0  0  0  0  0
    4.6046    7.1363   -4.2867 C   0  0  0  0  0  0  0  0  0  0  0  0
    3.0958    5.6430   -2.1065 C   0  0  0  0  0  0  0  0  0  0  0  0
    2.5980    4.6856   -1.2456 C   0  0  0  0  0  0  0  0  0  0  0  0
    3.5167    1.9031   -0.3805 C   0  0  0  0  0  0  0  0  0  0  0  0
    4.8255    2.6381   -1.2307 S   0  0  0  0  0  0  0  0  0  0  0  0
    0.4032    1.4439    1.5660 C   0  0  0  0  0  0  0  0  0  0  0  0
   -0.5286    2.4416    1.6095 C   0  0  0  0  0  0  0  0  0  0  0  0
   -1.6912    2.0949    2.3397 C   0  0  0  0  0  0  0  0  0  0  0  0
   -2.8704    2.8404    2.4810 C   0  0  0  0  0  0  0  0  0  0  0  0
   -3.0420    4.1811    1.8929 C   0  0  0  0  0  0  0  0  0  0  0  0
   -3.9625    4.3708    0.8673 C   0  0  0  0  0  0  0  0  0  0  0  0
   -4.1660    5.6145    0.3060 C   0  0  0  0  0  0  0  0  0  0  0  0
   -3.4675    6.7261    0.7752 C   0  0  0  0  0  0  0  0  0  0  0  0
   -3.5459    7.9739    0.2776 O   0  0  0  0  0  0  0  0  0  0  0  0
   -4.5642    8.3171   -0.6471 C   0  0  0  0  0  0  0  0  0  0  0  0
   -5.9306    8.4348    0.0174 C   0  0  0  0  0  0  0  0  0  0  0  0
   -2.5740    6.5384    1.8442 C   0  0  0  0  0  0  0  0  0  0  0  0
   -1.8647    7.7352    2.4073 C   0  0  0  0  0  0  0  0  0  0  0  0
   -0.8083    8.1137    1.6617 F   0  0  0  0  0  0  0  0  0  0  0  0
   -2.6452    8.8133    2.5415 F   0  0  0  0  0  0  0  0  0  0  0  0
   -1.3719    7.5003    3.6397 F   0  0  0  0  0  0  0  0  0  0  0  0
   -2.3440    5.2794    2.3751 C   0  0  0  0  0  0  0  0  0  0  0  0
   -3.9202    2.2350    3.1498 C   0  0  0  0  0  0  0  0  0  0  0  0
   -3.8260    0.9426    3.7309 C   0  0  0  0  0  0  0  0  0  0  0  0
   -2.6304    0.2040    3.6192 C   0  0  0  0  0  0  0  0  0  0  0  0
   -2.5184   -1.1173    4.2482 C   0  0  0  0  0  0  0  0  0  0  0  0
   -2.8824   -1.2873    5.5824 C   0  0  0  0  0  0  0  0  0  0  0  0
   -2.8181   -2.5215    6.1950 C   0  0  0  0  0  0  0  0  0  0  0  0
   -2.3864   -3.6399    5.4843 C   0  0  0  0  0  0  0  0  0  0  0  0
   -2.2973   -4.8892    5.9710 O   0  0  0  0  0  0  0  0  0  0  0  0
   -2.7157   -5.1572    7.2989 C   0  0  0  0  0  0  0  0  0  0  0  0
   -2.5416   -6.6487    7.5327 C   0  0  0  0  0  0  0  0  0  0  0  0
   -2.0024   -3.4643    4.1436 C   0  0  0  0  0  0  0  0  0  0  0  0
   -2.0665   -2.2237    3.5369 C   0  0  0  0  0  0  0  0  0  0  0  0
   -1.5380   -4.6717    3.3807 C   0  0  0  0  0  0  0  0  0  0  0  0
   -0.4828   -5.2723    3.9599 F   0  0  0  0  0  0  0  0  0  0  0  0
   -1.1579   -4.3788    2.1284 F   0  0  0  0  0  0  0  0  0  0  0  0
   -2.4911   -5.6136    3.2695 F   0  0  0  0  0  0  0  0  0  0  0  0
   -1.6098    0.7860    2.8893 C   0  0  0  0  0  0  0  0  0  0  0  0
   -0.0868    0.0383    2.4922 S   0  0  0  0  0  0  0  0  0  0  0  0
   -5.0451    0.5237    4.2992 C   0  0  0  0  0  0  0  0  0  0  0  0
   -6.0566    1.4437    4.1840 C   0  0  0  0  0  0  0  0  0  0  0  0
   -5.5023    2.9168    3.3783 S   0  0  0  0  0  0  0  0  0  0  0  0
   -7.4220    1.4041    4.5520 C   0  0  0  0  0  0  0  0  0  0  0  0
   -8.1927    0.3860    5.0337 C   0  0  0  0  0  0  0  0  0  0  0  0
   -7.8308   -1.0316    5.2827 C   0  0  0  0  0  0  0  0  0  0  0  0
   -6.7287   -1.5321    5.3876 O   0  0  0  0  0  0  0  0  0  0  0  0
   -9.1084   -1.7540    5.4118 C   0  0  0  0  0  0  0  0  0  0  0  0
   -9.2732   -3.1328    5.5339 C   0  0  0  0  0  0  0  0  0  0  0  0
  -10.5847   -3.5341    5.6072 C   0  0  0  0  0  0  0  0  0  0  0  0
  -11.6561   -2.6305    5.5679 C   0  0  0  0  0  0  0  0  0  0  0  0
  -11.5072   -1.2684    5.4612 C   0  0  0  0  0  0  0  0  0  0  0  0
  -10.1782   -0.8386    5.3823 C   0  0  0  0  0  0  0  0  0  0  0  0
   -9.6292    0.5071    5.2530 C   0  0  0  0  0  0  0  0  0  0  0  0
  -10.3440    1.6678    5.3832 C   0  0  0  0  0  0  0  0  0  0  0  0
  -11.7345    1.7224    5.6192 C   0  0  0  0  0  0  0  0  0  0  0  0
  -12.8604    1.8439    5.8074 N   0  0  0  0  0  0  0  0  0  0  0  0
   -9.8116    2.9754    5.3562 C   0  0  0  0  0  0  0  0  0  0  0  0
   -9.4708    4.0721    5.3663 N   0  0  0  0  0  0  0  0  0  0  0  0
  -12.6879   -3.7265    5.6636 C   0  0  0  0  0  0  0  0  0  0  0  0
  -13.4081   -4.1098    4.3531 C   0  0  0  0  0  0  0  0  0  0  0  0
  -13.9747   -5.4817    4.6396 C   0  0  0  0  0  0  0  0  0  0  0  0
  -12.9610   -6.3370    4.6786 C   0  0  0  0  0  0  0  0  0  0  0  0
  -11.6920   -5.5576    4.4189 C   0  0  0  0  0  0  0  0  0  0  0  0
  -12.2287   -4.4954    3.4507 C   0  0  0  0  0  0  0  0  0  0  0  0
  -11.4938   -4.7333    5.7091 C   0  0  0  0  0  0  0  0  0  0  0  0
    9.2902    0.2981   -6.1652 H   0  0  0  0  0  0  0  0  0  0  0  0
    8.3558   -5.4188   -3.7120 H   0  0  0  0  0  0  0  0  0  0  0  0
   10.1278   -4.7396   -8.4091 H   0  0  0  0  0  0  0  0  0  0  0  0
   10.4575   -8.0269   -7.4712 H   0  0  0  0  0  0  0  0  0  0  0  0
    8.3915   -7.7715   -9.1326 H   0  0  0  0  0  0  0  0  0  0  0  0
    8.6731  -10.3188   -8.5498 H   0  0  0  0  0  0  0  0  0  0  0  0
    7.7330  -10.7140   -6.0966 H   0  0  0  0  0  0  0  0  0  0  0  0
    6.8735   -8.4116   -5.1693 H   0  0  0  0  0  0  0  0  0  0  0  0
    7.0187   -6.5943   -7.1488 H   0  0  0  0  0  0  0  0  0  0  0  0
    6.1845   -8.0635   -7.7009 H   0  0  0  0  0  0  0  0  0  0  0  0
    9.5366   -8.4201   -5.0647 H   0  0  0  0  0  0  0  0  0  0  0  0
    8.3656    2.3263   -5.1703 H   0  0  0  0  0  0  0  0  0  0  0  0
    7.7350    3.5438   -1.4281 H   0  0  0  0  0  0  0  0  0  0  0  0
    8.6710    4.3004   -2.7438 H   0  0  0  0  0  0  0  0  0  0  0  0
    7.3296    6.4052   -2.4457 H   0  0  0  0  0  0  0  0  0  0  0  0
    8.1638    5.9692   -0.9508 H   0  0  0  0  0  0  0  0  0  0  0  0
    6.4357    5.6375   -1.1294 H   0  0  0  0  0  0  0  0  0  0  0  0
    5.3005   -3.5786   -2.8035 H   0  0  0  0  0  0  0  0  0  0  0  0
    6.0294   -4.1719   -5.0732 H   0  0  0  0  0  0  0  0  0  0  0  0
    7.0165   -1.3798   -9.2178 H   0  0  0  0  0  0  0  0  0  0  0  0
    5.4294   -0.8154   -8.6608 H   0  0  0  0  0  0  0  0  0  0  0  0
    6.9040   -0.4347   -7.7135 H   0  0  0  0  0  0  0  0  0  0  0  0
    4.8158   -0.3157   -6.4674 H   0  0  0  0  0  0  0  0  0  0  0  0
    4.0328    0.2486   -4.2376 H   0  0  0  0  0  0  0  0  0  0  0  0
    5.1181   -1.5183    0.4770 H   0  0  0  0  0  0  0  0  0  0  0  0
    4.2810   -3.1502    2.0888 H   0  0  0  0  0  0  0  0  0  0  0  0
    2.3911   -3.6433    3.5043 H   0  0  0  0  0  0  0  0  0  0  0  0
    3.7378   -4.8258    3.6175 H   0  0  0  0  0  0  0  0  0  0  0  0
    2.0928   -5.2852    4.1142 H   0  0  0  0  0  0  0  0  0  0  0  0
    1.7358   -4.8131   -0.9189 H   0  0  0  0  0  0  0  0  0  0  0  0
    2.5780   -3.1561   -2.5428 H   0  0  0  0  0  0  0  0  0  0  0  0
    1.2571    5.8881    1.8331 H   0  0  0  0  0  0  0  0  0  0  0  0
    0.6246    6.3740    4.1292 H   0  0  0  0  0  0  0  0  0  0  0  0
   -0.6416    6.5615    6.0329 H   0  0  0  0  0  0  0  0  0  0  0  0
   -0.0193    6.6009    7.6973 H   0  0  0  0  0  0  0  0  0  0  0  0
    1.0406    7.0874    6.3557 H   0  0  0  0  0  0  0  0  0  0  0  0
    2.0945    2.5554    5.3597 H   0  0  0  0  0  0  0  0  0  0  0  0
    2.8258    2.1011    3.0631 H   0  0  0  0  0  0  0  0  0  0  0  0
    3.9383    5.7940    1.6548 H   0  0  0  0  0  0  0  0  0  0  0  0
    4.7954    7.5230    0.1226 H   0  0  0  0  0  0  0  0  0  0  0  0
    5.0010    6.1273   -4.2147 H   0  0  0  0  0  0  0  0  0  0  0  0
    3.5994    7.1392   -4.6982 H   0  0  0  0  0  0  0  0  0  0  0  0
    5.2523    7.7500   -4.9048 H   0  0  0  0  0  0  0  0  0  0  0  0
    2.8466    5.5863   -3.1533 H   0  0  0  0  0  0  0  0  0  0  0  0
    1.9627    3.9003   -1.6293 H   0  0  0  0  0  0  0  0  0  0  0  0
   -0.4223    3.3753    1.0877 H   0  0  0  0  0  0  0  0  0  0  0  0
   -4.5189    3.5243    0.4931 H   0  0  0  0  0  0  0  0  0  0  0  0
   -4.8728    5.7127   -0.5015 H   0  0  0  0  0  0  0  0  0  0  0  0
   -4.5855    7.6051   -1.4808 H   0  0  0  0  0  0  0  0  0  0  0  0
   -4.2495    9.2903   -1.0316 H   0  0  0  0  0  0  0  0  0  0  0  0
   -6.2529    7.4794    0.4250 H   0  0  0  0  0  0  0  0  0  0  0  0
   -5.8795    9.1547    0.8302 H   0  0  0  0  0  0  0  0  0  0  0  0
   -6.6628    8.7735   -0.7100 H   0  0  0  0  0  0  0  0  0  0  0  0
   -1.6362    5.1536    3.1806 H   0  0  0  0  0  0  0  0  0  0  0  0
   -3.2058   -0.4324    6.1565 H   0  0  0  0  0  0  0  0  0  0  0  0
   -3.1111   -2.6107    7.2281 H   0  0  0  0  0  0  0  0  0  0  0  0
   -3.7674   -4.8681    7.4230 H   0  0  0  0  0  0  0  0  0  0  0  0
   -2.1024   -4.5839    8.0070 H   0  0  0  0  0  0  0  0  0  0  0  0
   -1.4994   -6.9243    7.3993 H   0  0  0  0  0  0  0  0  0  0  0  0
   -3.1392   -7.2062    6.8170 H   0  0  0  0  0  0  0  0  0  0  0  0
   -2.8551   -6.9048    8.5405 H   0  0  0  0  0  0  0  0  0  0  0  0
   -1.7873   -2.1279    2.4991 H   0  0  0  0  0  0  0  0  0  0  0  0
   -5.1900   -0.4388    4.7531 H   0  0  0  0  0  0  0  0  0  0  0  0
   -7.9356    2.3379    4.3535 H   0  0  0  0  0  0  0  0  0  0  0  0
   -8.4196   -3.7920    5.5585 H   0  0  0  0  0  0  0  0  0  0  0  0
  -12.3413   -0.5878    5.4318 H   0  0  0  0  0  0  0  0  0  0  0  0
  -13.3593   -3.6735    6.5182 H   0  0  0  0  0  0  0  0  0  0  0  0
  -14.1019   -3.3616    3.9799 H   0  0  0  0  0  0  0  0  0  0  0  0
  -15.0139   -5.6730    4.8325 H   0  0  0  0  0  0  0  0  0  0  0  0
  -12.9841   -7.3856    4.9103 H   0  0  0  0  0  0  0  0  0  0  0  0
  -10.8224   -6.1285    4.1048 H   0  0  0  0  0  0  0  0  0  0  0  0
  -11.5336   -3.6810    3.2548 H   0  0  0  0  0  0  0  0  0  0  0  0
  -12.5573   -4.9280    2.5072 H   0  0  0  0  0  0  0  0  0  0  0  0
  -11.3679   -5.3527    6.5950 H   0  0  0  0  0  0  0  0  0  0  0  0
  1  2  2  0  0  0  0
  2  3  1  0  0  0  0
  3  4  2  0  0  0  0
  3  5  1  0  0  0  0
  5  6  2  0  0  0  0
  6  7  1  0  0  0  0
  7  8  2  0  0  0  0
  8  9  1  0  0  0  0
  9 10  2  0  0  0  0
 10 11  1  0  0  0  0
 11 12  2  0  0  0  0
 12 13  1  0  0  0  0
 13 14  3  0  0  0  0
 12 15  1  0  0  0  0
 15 16  3  0  0  0  0
  8 17  1  0  0  0  0
 17 18  1  0  0  0  0
 18 19  1  0  0  0  0
 19 20  2  0  0  0  0
 20 21  1  0  0  0  0
 21 22  1  0  0  0  0
 21 23  1  0  0  0  0
  1 24  1  0  0  0  0
 24 25  2  0  0  0  0
 25 26  1  0  0  0  0
 26 27  1  0  0  0  0
 27 28  1  0  0  0  0
 28 29  1  0  0  0  0
 26 30  2  0  0  0  0
 30 31  1  0  0  0  0
 30 32  1  0  0  0  0
 32 33  2  0  0  0  0
 33 34  1  0  0  0  0
 34 35  1  0  0  0  0
 35 36  2  0  0  0  0
 36 37  1  0  0  0  0
 37 38  2  0  0  0  0
 38 39  1  0  0  0  0
 39 40  1  0  0  0  0
 38 41  1  0  0  0  0
 41 42  2  0  0  0  0
 34 43  1  0  0  0  0
 43 44  2  0  0  0  0
 44 45  1  0  0  0  0
 45 46  2  0  0  0  0
 46 47  1  0  0  0  0
 47 48  1  0  0  0  0
 46 49  1  0  0  0  0
 49 50  2  0  0  0  0
 33 51  1  0  0  0  0
 51 52  1  0  0  0  0
 52 53  1  0  0  0  0
 53 54  2  0  0  0  0
 54 55  1  0  0  0  0
 55 56  1  0  0  0  0
 56 57  2  0  0  0  0
 57 58  1  0  0  0  0
 58 59  2  0  0  0  0
 59 60  1  0  0  0  0
 60 61  1  0  0  0  0
 59 62  1  0  0  0  0
 62 63  2  0  0  0  0
 55 64  1  0  0  0  0
 64 65  2  0  0  0  0
 65 66  1  0  0  0  0
 66 67  2  0  0  0  0
 67 68  1  0  0  0  0
 68 69  1  0  0  0  0
 67 70  1  0  0  0  0
 70 71  2  0  0  0  0
 54 72  1  0  0  0  0
 72 73  1  0  0  0  0
 53 74  1  0  0  0  0
 74 75  2  0  0  0  0
 75 76  1  0  0  0  0
 76 77  2  0  0  0  0
 77 78  1  0  0  0  0
 78 79  2  0  0  0  0
 79 80  1  0  0  0  0
 80 81  2  0  0  0  0
 81 82  1  0  0  0  0
 82 83  1  0  0  0  0
 83 84  1  0  0  0  0
 81 85  1  0  0  0  0
 85 86  1  0  0  0  0
 86 87  1  0  0  0  0
 86 88  1  0  0  0  0
 86 89  1  0  0  0  0
 85 90  2  0  0  0  0
 77 91  1  0  0  0  0
 91 92  2  0  0  0  0
 92 93  1  0  0  0  0
 93 94  1  0  0  0  0
 94 95  2  0  0  0  0
 95 96  1  0  0  0  0
 96 97  2  0  0  0  0
 97 98  1  0  0  0  0
 98 99  1  0  0  0  0
 99100  1  0  0  0  0
 97101  1  0  0  0  0
101102  2  0  0  0  0
101103  1  0  0  0  0
103104  1  0  0  0  0
103105  1  0  0  0  0
103106  1  0  0  0  0
 93107  2  0  0  0  0
107108  1  0  0  0  0
 92109  1  0  0  0  0
109110  2  0  0  0  0
110111  1  0  0  0  0
110112  1  0  0  0  0
112113  2  0  0  0  0
113114  1  0  0  0  0
114115  2  0  0  0  0
114116  1  0  0  0  0
116117  2  0  0  0  0
117118  1  0  0  0  0
118119  2  0  0  0  0
119120  1  0  0  0  0
120121  2  0  0  0  0
121122  1  0  0  0  0
122123  2  0  0  0  0
123124  1  0  0  0  0
124125  3  0  0  0  0
123126  1  0  0  0  0
126127  3  0  0  0  0
119128  1  0  0  0  0
128129  1  0  0  0  0
129130  1  0  0  0  0
130131  2  0  0  0  0
131132  1  0  0  0  0
132133  1  0  0  0  0
132134  1  0  0  0  0
 11  2  1  0  0  0  0
 23 17  1  0  0  0  0
 31 24  1  0  0  0  0
 73 32  1  0  0  0  0
108 74  1  0  0  0  0
122113  1  0  0  0  0
134128  1  0  0  0  0
 10  5  1  0  0  0  0
 22 18  1  0  0  0  0
 42 35  1  0  0  0  0
 50 43  1  0  0  0  0
 72 51  2  0  0  0  0
107 76  1  0  0  0  0
121116  1  0  0  0  0
133129  1  0  0  0  0
 23  7  1  0  0  0  0
 63 56  1  0  0  0  0
 71 64  1  0  0  0  0
 90 78  1  0  0  0  0
111 91  1  0  0  0  0
134118  1  0  0  0  0
102 94  1  0  0  0  0
  1135  1  0  0  0  0
  6136  1  0  0  0  0
  9137  1  0  0  0  0
 17138  1  0  0  0  0
 18139  1  0  0  0  0
 19140  1  0  0  0  0
 20141  1  0  0  0  0
 21142  1  0  0  0  0
 22143  1  0  0  0  0
 22144  1  0  0  0  0
 23145  1  0  0  0  0
 25146  1  0  0  0  0
 28147  1  0  0  0  0
 28148  1  0  0  0  0
 29149  1  0  0  0  0
 29150  1  0  0  0  0
 29151  1  0  0  0  0
 36152  1  0  0  0  0
 37153  1  0  0  0  0
 40154  1  0  0  0  0
 40155  1  0  0  0  0
 40156  1  0  0  0  0
 41157  1  0  0  0  0
 42158  1  0  0  0  0
 44159  1  0  0  0  0
 45160  1  0  0  0  0
 48161  1  0  0  0  0
 48162  1  0  0  0  0
 48163  1  0  0  0  0
 49164  1  0  0  0  0
 50165  1  0  0  0  0
 57166  1  0  0  0  0
 58167  1  0  0  0  0
 61168  1  0  0  0  0
 61169  1  0  0  0  0
 61170  1  0  0  0  0
 62171  1  0  0  0  0
 63172  1  0  0  0  0
 65173  1  0  0  0  0
 66174  1  0  0  0  0
 69175  1  0  0  0  0
 69176  1  0  0  0  0
 69177  1  0  0  0  0
 70178  1  0  0  0  0
 71179  1  0  0  0  0
 75180  1  0  0  0  0
 79181  1  0  0  0  0
 80182  1  0  0  0  0
 83183  1  0  0  0  0
 83184  1  0  0  0  0
 84185  1  0  0  0  0
 84186  1  0  0  0  0
 84187  1  0  0  0  0
 90188  1  0  0  0  0
 95189  1  0  0  0  0
 96190  1  0  0  0  0
 99191  1  0  0  0  0
 99192  1  0  0  0  0
100193  1  0  0  0  0
100194  1  0  0  0  0
100195  1  0  0  0  0
102196  1  0  0  0  0
109197  1  0  0  0  0
112198  1  0  0  0  0
117199  1  0  0  0  0
120200  1  0  0  0  0
128201  1  0  0  0  0
129202  1  0  0  0  0
130203  1  0  0  0  0
131204  1  0  0  0  0
132205  1  0  0  0  0
133206  1  0  0  0  0
133207  1  0  0  0  0
134208  1  0  0  0  0
M  END
