
  xtb     02082222483D
 energy: -295.061087890602 gnorm: 0.000626639363 xtb: 6.4.1 (unknown)
177195  0     0  0            999 V2000
   -8.5655    0.7227    3.4289 C   0  0  0  0  0  0  0  0  0  0  0  0
   -8.7453   -0.6078    3.2403 C   0  0  0  0  0  0  0  0  0  0  0  0
  -10.1127   -1.1949    3.2163 C   0  0  0  0  0  0  0  0  0  0  0  0
  -11.1308   -0.6806    3.6204 O   0  0  0  0  0  0  0  0  0  0  0  0
   -9.9593   -2.4958    2.5367 C   0  0  0  0  0  0  0  0  0  0  0  0
  -10.9742   -3.3752    2.1645 C   0  0  0  0  0  0  0  0  0  0  0  0
  -10.5287   -4.5109    1.5327 C   0  0  0  0  0  0  0  0  0  0  0  0
   -9.1723   -4.7539    1.2722 C   0  0  0  0  0  0  0  0  0  0  0  0
   -8.1595   -3.8989    1.6341 C   0  0  0  0  0  0  0  0  0  0  0  0
   -8.5908   -2.7440    2.2919 C   0  0  0  0  0  0  0  0  0  0  0  0
   -7.8111   -1.6597    2.8771 C   0  0  0  0  0  0  0  0  0  0  0  0
   -6.4983   -1.7343    3.2591 C   0  0  0  0  0  0  0  0  0  0  0  0
   -5.6151   -2.7648    2.8854 C   0  0  0  0  0  0  0  0  0  0  0  0
   -4.8406   -3.5545    2.5770 N   0  0  0  0  0  0  0  0  0  0  0  0
   -5.8987   -0.7970    4.1284 C   0  0  0  0  0  0  0  0  0  0  0  0
   -5.4096   -0.1006    4.8988 N   0  0  0  0  0  0  0  0  0  0  0  0
   -9.4552   -6.0806    0.6134 C   0  0  0  0  0  0  0  0  0  0  0  0
   -9.1640   -7.3632    1.4309 C   0  0  0  0  0  0  0  0  0  0  0  0
   -9.2820   -6.9797    2.8854 C   0  0  0  0  0  0  0  0  0  0  0  0
  -10.5634   -6.7525    3.1411 C   0  0  0  0  0  0  0  0  0  0  0  0
  -11.3350   -6.9783    1.8642 C   0  0  0  0  0  0  0  0  0  0  0  0
  -10.4968   -8.1037    1.2370 C   0  0  0  0  0  0  0  0  0  0  0  0
  -10.9644   -5.8141    0.9116 C   0  0  0  0  0  0  0  0  0  0  0  0
   -7.4026    1.4800    3.1155 C   0  0  0  0  0  0  0  0  0  0  0  0
   -6.9751    2.6387    3.7191 C   0  0  0  0  0  0  0  0  0  0  0  0
   -5.7366    3.1020    3.2405 C   0  0  0  0  0  0  0  0  0  0  0  0
   -4.8762    4.4674    3.9091 S   0  0  0  0  0  0  0  0  0  0  0  0
   -5.3801    4.3888    5.6709 C   0  0  0  0  0  0  0  0  0  0  0  0
   -4.9319    3.1073    6.3431 C   0  0  0  0  0  0  0  0  0  0  0  0
   -5.2356    2.3162    2.2150 C   0  0  0  0  0  0  0  0  0  0  0  0
   -6.3018    0.9985    1.8575 S   0  0  0  0  0  0  0  0  0  0  0  0
   -3.9965    2.3678    1.4848 C   0  0  0  0  0  0  0  0  0  0  0  0
   -3.3374    3.5223    1.1117 C   0  0  0  0  0  0  0  0  0  0  0  0
   -3.8476    4.7420    1.4714 O   0  0  0  0  0  0  0  0  0  0  0  0
   -4.5727    5.4321    0.4584 C   0  0  0  0  0  0  0  0  0  0  0  0
   -4.9222    6.8063    0.9992 C   0  0  0  0  0  0  0  0  0  0  0  0
   -2.1002    3.5217    0.3738 C   0  0  0  0  0  0  0  0  0  0  0  0
   -1.6778    4.7862    0.1659 O   0  0  0  0  0  0  0  0  0  0  0  0
   -0.4972    5.1142   -0.5370 C   0  0  0  0  0  0  0  0  0  0  0  0
   -0.2541    6.6004   -0.3275 C   0  0  0  0  0  0  0  0  0  0  0  0
   -1.4849    2.3333    0.0124 C   0  0  0  0  0  0  0  0  0  0  0  0
   -2.1500    1.1367    0.3953 C   0  0  0  0  0  0  0  0  0  0  0  0
   -3.3893    1.1425    1.1050 C   0  0  0  0  0  0  0  0  0  0  0  0
   -3.8328   -0.0849    1.3565 N   0  0  0  0  0  0  0  0  0  0  0  0
   -2.7870   -1.1524    0.7574 S   0  0  0  0  0  0  0  0  0  0  0  0
   -1.7336   -0.1032    0.1379 N   0  0  0  0  0  0  0  0  0  0  0  0
   -0.2054    2.0962   -0.6511 C   0  0  0  0  0  0  0  0  0  0  0  0
    0.7793    1.2831   -0.1168 C   0  0  0  0  0  0  0  0  0  0  0  0
    0.7847    0.8427    1.1952 N   0  0  0  0  0  0  0  0  0  0  0  0
    0.2543    1.6815    2.1862 C   0  0  0  0  0  0  0  0  0  0  0  0
   -0.6262    1.2029    3.1537 C   0  0  0  0  0  0  0  0  0  0  0  0
   -1.2093    2.0751    4.0501 C   0  0  0  0  0  0  0  0  0  0  0  0
   -0.9168    3.4344    4.0009 C   0  0  0  0  0  0  0  0  0  0  0  0
   -1.6927    4.5186    5.1579 S   0  0  0  0  0  0  0  0  0  0  0  0
   -1.8704    6.0387    4.1778 C   0  0  0  0  0  0  0  0  0  0  0  0
    0.0081    3.9053    3.0781 C   0  0  0  0  0  0  0  0  0  0  0  0
    0.5897    3.0336    2.1846 C   0  0  0  0  0  0  0  0  0  0  0  0
    1.3595   -0.3923    1.5053 C   0  0  0  0  0  0  0  0  0  0  0  0
    1.2653   -1.4514    0.6049 C   0  0  0  0  0  0  0  0  0  0  0  0
    1.9538   -2.6242    0.8335 C   0  0  0  0  0  0  0  0  0  0  0  0
    2.7399   -2.7552    1.9692 C   0  0  0  0  0  0  0  0  0  0  0  0
    3.7360   -4.1899    2.2496 S   0  0  0  0  0  0  0  0  0  0  0  0
    4.2719   -4.5696    0.5514 C   0  0  0  0  0  0  0  0  0  0  0  0
    2.7591   -1.7383    2.9170 C   0  0  0  0  0  0  0  0  0  0  0  0
    2.0757   -0.5633    2.6890 C   0  0  0  0  0  0  0  0  0  0  0  0
    1.8148    1.0336   -1.0506 C   0  0  0  0  0  0  0  0  0  0  0  0
    3.2451    0.0694   -1.0268 S   0  0  0  0  0  0  0  0  0  0  0  0
    3.6445    0.5983   -2.6641 C   0  0  0  0  0  0  0  0  0  0  0  0
    2.6369    1.4305   -3.2104 C   0  0  0  0  0  0  0  0  0  0  0  0
    2.6393    1.9892   -4.4657 N   0  0  0  0  0  0  0  0  0  0  0  0
    3.0782    1.2988   -5.6051 C   0  0  0  0  0  0  0  0  0  0  0  0
    3.6770    1.9924   -6.6574 C   0  0  0  0  0  0  0  0  0  0  0  0
    4.1115    1.3131   -7.7731 C   0  0  0  0  0  0  0  0  0  0  0  0
    3.9696   -0.0701   -7.8615 C   0  0  0  0  0  0  0  0  0  0  0  0
    4.5822   -0.8306   -9.3304 S   0  0  0  0  0  0  0  0  0  0  0  0
    4.4625   -2.6095   -8.9853 C   0  0  0  0  0  0  0  0  0  0  0  0
    3.3574   -0.7611   -6.8228 C   0  0  0  0  0  0  0  0  0  0  0  0
    2.9098   -0.0799   -5.7088 C   0  0  0  0  0  0  0  0  0  0  0  0
    2.0756    3.2704   -4.5996 C   0  0  0  0  0  0  0  0  0  0  0  0
    1.2085    3.5731   -5.6434 C   0  0  0  0  0  0  0  0  0  0  0  0
    0.6242    4.8220   -5.7316 C   0  0  0  0  0  0  0  0  0  0  0  0
    0.8987    5.7888   -4.7732 C   0  0  0  0  0  0  0  0  0  0  0  0
    0.1807    7.3992   -4.7472 S   0  0  0  0  0  0  0  0  0  0  0  0
   -0.7735    7.4820   -6.2885 C   0  0  0  0  0  0  0  0  0  0  0  0
    1.7881    5.4960   -3.7404 C   0  0  0  0  0  0  0  0  0  0  0  0
    2.3729    4.2545   -3.6553 C   0  0  0  0  0  0  0  0  0  0  0  0
    1.6146    1.6574   -2.2750 C   0  0  0  0  0  0  0  0  0  0  0  0
    0.1209    2.5397   -2.3141 S   0  0  0  0  0  0  0  0  0  0  0  0
    4.8598    0.3496   -3.3005 C   0  0  0  0  0  0  0  0  0  0  0  0
    5.9202   -0.4398   -2.9171 C   0  0  0  0  0  0  0  0  0  0  0  0
    5.9415   -1.3834   -1.7989 C   0  0  0  0  0  0  0  0  0  0  0  0
    5.0573   -1.5997   -0.9840 O   0  0  0  0  0  0  0  0  0  0  0  0
    7.2365   -2.0819   -1.8692 C   0  0  0  0  0  0  0  0  0  0  0  0
    7.7130   -3.0570   -0.9971 C   0  0  0  0  0  0  0  0  0  0  0  0
    8.9672   -3.5232   -1.3116 C   0  0  0  0  0  0  0  0  0  0  0  0
    9.6906   -3.0587   -2.4170 C   0  0  0  0  0  0  0  0  0  0  0  0
    9.2311   -2.0957   -3.2848 C   0  0  0  0  0  0  0  0  0  0  0  0
    7.9608   -1.6018   -2.9788 C   0  0  0  0  0  0  0  0  0  0  0  0
    7.1679   -0.5611   -3.6348 C   0  0  0  0  0  0  0  0  0  0  0  0
    7.5756    0.1836   -4.7158 C   0  0  0  0  0  0  0  0  0  0  0  0
    8.7832   -0.0186   -5.4137 C   0  0  0  0  0  0  0  0  0  0  0  0
    9.7392   -0.1339   -6.0402 N   0  0  0  0  0  0  0  0  0  0  0  0
    6.8792    1.2750   -5.2700 C   0  0  0  0  0  0  0  0  0  0  0  0
    6.3986    2.1974   -5.7610 N   0  0  0  0  0  0  0  0  0  0  0  0
   10.8701   -3.9512   -2.1210 C   0  0  0  0  0  0  0  0  0  0  0  0
   12.1182   -3.3039   -1.4720 C   0  0  0  0  0  0  0  0  0  0  0  0
   11.6282   -2.0982   -0.7091 C   0  0  0  0  0  0  0  0  0  0  0  0
   10.9434   -2.5338    0.3400 C   0  0  0  0  0  0  0  0  0  0  0  0
   10.9586   -4.0420    0.3057 C   0  0  0  0  0  0  0  0  0  0  0  0
   12.3456   -4.2848   -0.3106 C   0  0  0  0  0  0  0  0  0  0  0  0
   10.0649   -4.4658   -0.8862 C   0  0  0  0  0  0  0  0  0  0  0  0
   -9.4178    1.2726    3.8146 H   0  0  0  0  0  0  0  0  0  0  0  0
  -12.0076   -3.1509    2.3778 H   0  0  0  0  0  0  0  0  0  0  0  0
   -7.1191   -4.0878    1.4254 H   0  0  0  0  0  0  0  0  0  0  0  0
   -9.1496   -6.1718   -0.4270 H   0  0  0  0  0  0  0  0  0  0  0  0
   -8.2544   -7.8841    1.1445 H   0  0  0  0  0  0  0  0  0  0  0  0
   -8.4409   -6.8608    3.5429 H   0  0  0  0  0  0  0  0  0  0  0  0
  -11.0075   -6.4059    4.0558 H   0  0  0  0  0  0  0  0  0  0  0  0
  -12.4027   -7.1500    1.9724 H   0  0  0  0  0  0  0  0  0  0  0  0
  -10.5486   -9.0325    1.8030 H   0  0  0  0  0  0  0  0  0  0  0  0
  -10.7393   -8.2952    0.1925 H   0  0  0  0  0  0  0  0  0  0  0  0
  -11.6464   -5.7373    0.0670 H   0  0  0  0  0  0  0  0  0  0  0  0
   -7.5230    3.1022    4.5187 H   0  0  0  0  0  0  0  0  0  0  0  0
   -6.4559    4.5435    5.7404 H   0  0  0  0  0  0  0  0  0  0  0  0
   -4.8769    5.2499    6.1104 H   0  0  0  0  0  0  0  0  0  0  0  0
   -3.8485    3.0296    6.3006 H   0  0  0  0  0  0  0  0  0  0  0  0
   -5.3613    2.2313    5.8618 H   0  0  0  0  0  0  0  0  0  0  0  0
   -5.2383    3.1144    7.3873 H   0  0  0  0  0  0  0  0  0  0  0  0
   -5.4849    4.8664    0.2167 H   0  0  0  0  0  0  0  0  0  0  0  0
   -3.9623    5.5154   -0.4490 H   0  0  0  0  0  0  0  0  0  0  0  0
   -5.5307    7.3449    0.2784 H   0  0  0  0  0  0  0  0  0  0  0  0
   -5.4701    6.7005    1.9309 H   0  0  0  0  0  0  0  0  0  0  0  0
   -4.0132    7.3680    1.1946 H   0  0  0  0  0  0  0  0  0  0  0  0
   -0.6244    4.9008   -1.6064 H   0  0  0  0  0  0  0  0  0  0  0  0
    0.3482    4.5301   -0.1610 H   0  0  0  0  0  0  0  0  0  0  0  0
    0.6439    6.9034   -0.8561 H   0  0  0  0  0  0  0  0  0  0  0  0
   -1.0957    7.1723   -0.7072 H   0  0  0  0  0  0  0  0  0  0  0  0
   -0.1387    6.8147    0.7313 H   0  0  0  0  0  0  0  0  0  0  0  0
   -0.8621    0.1492    3.1854 H   0  0  0  0  0  0  0  0  0  0  0  0
   -1.9112    1.7089    4.7834 H   0  0  0  0  0  0  0  0  0  0  0  0
   -2.2510    5.7776    3.1950 H   0  0  0  0  0  0  0  0  0  0  0  0
   -0.9239    6.5688    4.1203 H   0  0  0  0  0  0  0  0  0  0  0  0
   -2.5983    6.6488    4.7027 H   0  0  0  0  0  0  0  0  0  0  0  0
    0.2865    4.9470    3.0608 H   0  0  0  0  0  0  0  0  0  0  0  0
    1.3255    3.3915    1.4783 H   0  0  0  0  0  0  0  0  0  0  0  0
    0.6443   -1.3459   -0.2716 H   0  0  0  0  0  0  0  0  0  0  0  0
    1.8809   -3.4288    0.1194 H   0  0  0  0  0  0  0  0  0  0  0  0
    3.5097   -5.1442    0.0324 H   0  0  0  0  0  0  0  0  0  0  0  0
    4.4776   -3.6355    0.0357 H   0  0  0  0  0  0  0  0  0  0  0  0
    5.1746   -5.1662    0.6435 H   0  0  0  0  0  0  0  0  0  0  0  0
    3.3420   -1.8650    3.8163 H   0  0  0  0  0  0  0  0  0  0  0  0
    2.1215    0.2415    3.4078 H   0  0  0  0  0  0  0  0  0  0  0  0
    3.8164    3.0591   -6.5857 H   0  0  0  0  0  0  0  0  0  0  0  0
    4.5880    1.8452   -8.5810 H   0  0  0  0  0  0  0  0  0  0  0  0
    4.9360   -3.1020   -9.8289 H   0  0  0  0  0  0  0  0  0  0  0  0
    3.4212   -2.9124   -8.9210 H   0  0  0  0  0  0  0  0  0  0  0  0
    5.0007   -2.8441   -8.0715 H   0  0  0  0  0  0  0  0  0  0  0  0
    3.2123   -1.8282   -6.8716 H   0  0  0  0  0  0  0  0  0  0  0  0
    2.4296   -0.6227   -4.9078 H   0  0  0  0  0  0  0  0  0  0  0  0
    0.9800    2.8205   -6.3832 H   0  0  0  0  0  0  0  0  0  0  0  0
   -0.0532    5.0210   -6.5460 H   0  0  0  0  0  0  0  0  0  0  0  0
   -0.1174    7.3156   -7.1377 H   0  0  0  0  0  0  0  0  0  0  0  0
   -1.5843    6.7597   -6.2660 H   0  0  0  0  0  0  0  0  0  0  0  0
   -1.1787    8.4884   -6.3273 H   0  0  0  0  0  0  0  0  0  0  0  0
    2.0166    6.2593   -3.0127 H   0  0  0  0  0  0  0  0  0  0  0  0
    3.0671    4.0350   -2.8580 H   0  0  0  0  0  0  0  0  0  0  0  0
    4.9798    0.8796   -4.2367 H   0  0  0  0  0  0  0  0  0  0  0  0
    7.1261   -3.3836   -0.1530 H   0  0  0  0  0  0  0  0  0  0  0  0
    9.8027   -1.7482   -4.1290 H   0  0  0  0  0  0  0  0  0  0  0  0
   11.1308   -4.6701   -2.8953 H   0  0  0  0  0  0  0  0  0  0  0  0
   12.9461   -3.1354   -2.1554 H   0  0  0  0  0  0  0  0  0  0  0  0
   11.7760   -1.0845   -1.0326 H   0  0  0  0  0  0  0  0  0  0  0  0
   10.4043   -1.9568    1.0683 H   0  0  0  0  0  0  0  0  0  0  0  0
   10.7314   -4.5455    1.2418 H   0  0  0  0  0  0  0  0  0  0  0  0
   12.5025   -5.3127   -0.6350 H   0  0  0  0  0  0  0  0  0  0  0  0
   13.1581   -3.9784    0.3466 H   0  0  0  0  0  0  0  0  0  0  0  0
    9.8028   -5.5217   -0.8525 H   0  0  0  0  0  0  0  0  0  0  0  0
  1  2  2  0  0  0  0
  2  3  1  0  0  0  0
  3  4  2  0  0  0  0
  3  5  1  0  0  0  0
  5  6  2  0  0  0  0
  6  7  1  0  0  0  0
  7  8  2  0  0  0  0
  8  9  1  0  0  0  0
  9 10  2  0  0  0  0
 10 11  1  0  0  0  0
 11 12  2  0  0  0  0
 12 13  1  0  0  0  0
 13 14  3  0  0  0  0
 12 15  1  0  0  0  0
 15 16  3  0  0  0  0
  8 17  1  0  0  0  0
 17 18  1  0  0  0  0
 18 19  1  0  0  0  0
 19 20  2  0  0  0  0
 20 21  1  0  0  0  0
 21 22  1  0  0  0  0
 21 23  1  0  0  0  0
  1 24  1  0  0  0  0
 24 25  2  0  0  0  0
 25 26  1  0  0  0  0
 26 27  1  0  0  0  0
 27 28  1  0  0  0  0
 28 29  1  0  0  0  0
 26 30  2  0  0  0  0
 30 31  1  0  0  0  0
 30 32  1  0  0  0  0
 32 33  2  0  0  0  0
 33 34  1  0  0  0  0
 34 35  1  0  0  0  0
 35 36  1  0  0  0  0
 33 37  1  0  0  0  0
 37 38  1  0  0  0  0
 38 39  1  0  0  0  0
 39 40  1  0  0  0  0
 37 41  2  0  0  0  0
 41 42  1  0  0  0  0
 42 43  1  0  0  0  0
 43 44  2  0  0  0  0
 44 45  1  0  0  0  0
 45 46  1  0  0  0  0
 41 47  1  0  0  0  0
 47 48  2  0  0  0  0
 48 49  1  0  0  0  0
 49 50  1  0  0  0  0
 50 51  2  0  0  0  0
 51 52  1  0  0  0  0
 52 53  2  0  0  0  0
 53 54  1  0  0  0  0
 54 55  1  0  0  0  0
 53 56  1  0  0  0  0
 56 57  2  0  0  0  0
 49 58  1  0  0  0  0
 58 59  2  0  0  0  0
 59 60  1  0  0  0  0
 60 61  2  0  0  0  0
 61 62  1  0  0  0  0
 62 63  1  0  0  0  0
 61 64  1  0  0  0  0
 64 65  2  0  0  0  0
 48 66  1  0  0  0  0
 66 67  1  0  0  0  0
 67 68  1  0  0  0  0
 68 69  2  0  0  0  0
 69 70  1  0  0  0  0
 70 71  1  0  0  0  0
 71 72  2  0  0  0  0
 72 73  1  0  0  0  0
 73 74  2  0  0  0  0
 74 75  1  0  0  0  0
 75 76  1  0  0  0  0
 74 77  1  0  0  0  0
 77 78  2  0  0  0  0
 70 79  1  0  0  0  0
 79 80  2  0  0  0  0
 80 81  1  0  0  0  0
 81 82  2  0  0  0  0
 82 83  1  0  0  0  0
 83 84  1  0  0  0  0
 82 85  1  0  0  0  0
 85 86  2  0  0  0  0
 69 87  1  0  0  0  0
 87 88  1  0  0  0  0
 68 89  1  0  0  0  0
 89 90  2  0  0  0  0
 90 91  1  0  0  0  0
 91 92  2  0  0  0  0
 91 93  1  0  0  0  0
 93 94  2  0  0  0  0
 94 95  1  0  0  0  0
 95 96  2  0  0  0  0
 96 97  1  0  0  0  0
 97 98  2  0  0  0  0
 98 99  1  0  0  0  0
 99100  2  0  0  0  0
100101  1  0  0  0  0
101102  3  0  0  0  0
100103  1  0  0  0  0
103104  3  0  0  0  0
 96105  1  0  0  0  0
105106  1  0  0  0  0
106107  1  0  0  0  0
107108  2  0  0  0  0
108109  1  0  0  0  0
109110  1  0  0  0  0
109111  1  0  0  0  0
 11  2  1  0  0  0  0
 23 17  1  0  0  0  0
 31 24  1  0  0  0  0
 43 32  1  0  0  0  0
 88 47  1  0  0  0  0
 99 90  1  0  0  0  0
111105  1  0  0  0  0
 10  5  1  0  0  0  0
 22 18  1  0  0  0  0
 46 42  2  0  0  0  0
 57 50  1  0  0  0  0
 65 58  1  0  0  0  0
 87 66  2  0  0  0  0
 98 93  1  0  0  0  0
110106  1  0  0  0  0
 23  7  1  0  0  0  0
 78 71  1  0  0  0  0
 86 79  1  0  0  0  0
111 95  1  0  0  0  0
  1112  1  0  0  0  0
  6113  1  0  0  0  0
  9114  1  0  0  0  0
 17115  1  0  0  0  0
 18116  1  0  0  0  0
 19117  1  0  0  0  0
 20118  1  0  0  0  0
 21119  1  0  0  0  0
 22120  1  0  0  0  0
 22121  1  0  0  0  0
 23122  1  0  0  0  0
 25123  1  0  0  0  0
 28124  1  0  0  0  0
 28125  1  0  0  0  0
 29126  1  0  0  0  0
 29127  1  0  0  0  0
 29128  1  0  0  0  0
 35129  1  0  0  0  0
 35130  1  0  0  0  0
 36131  1  0  0  0  0
 36132  1  0  0  0  0
 36133  1  0  0  0  0
 39134  1  0  0  0  0
 39135  1  0  0  0  0
 40136  1  0  0  0  0
 40137  1  0  0  0  0
 40138  1  0  0  0  0
 51139  1  0  0  0  0
 52140  1  0  0  0  0
 55141  1  0  0  0  0
 55142  1  0  0  0  0
 55143  1  0  0  0  0
 56144  1  0  0  0  0
 57145  1  0  0  0  0
 59146  1  0  0  0  0
 60147  1  0  0  0  0
 63148  1  0  0  0  0
 63149  1  0  0  0  0
 63150  1  0  0  0  0
 64151  1  0  0  0  0
 65152  1  0  0  0  0
 72153  1  0  0  0  0
 73154  1  0  0  0  0
 76155  1  0  0  0  0
 76156  1  0  0  0  0
 76157  1  0  0  0  0
 77158  1  0  0  0  0
 78159  1  0  0  0  0
 80160  1  0  0  0  0
 81161  1  0  0  0  0
 84162  1  0  0  0  0
 84163  1  0  0  0  0
 84164  1  0  0  0  0
 85165  1  0  0  0  0
 86166  1  0  0  0  0
 89167  1  0  0  0  0
 94168  1  0  0  0  0
 97169  1  0  0  0  0
105170  1  0  0  0  0
106171  1  0  0  0  0
107172  1  0  0  0  0
108173  1  0  0  0  0
109174  1  0  0  0  0
110175  1  0  0  0  0
110176  1  0  0  0  0
111177  1  0  0  0  0
M  END
