208

C          6.19260        6.52970        6.65640
C          5.24540        7.30440        7.26850
C          3.79200        7.12590        7.15680
O          3.19970        6.18640        6.65430
C          3.18150        8.31530        7.77070
C          1.82520        8.62700        7.82680
C          1.55330        9.83050        8.43190
C          2.55760       10.66540        8.94020
C          3.89920       10.36730        8.89490
C          4.19820        9.14390        8.28890
C          5.49030        8.50480        8.04640
C          6.69960        8.95380        8.50970
C          7.94020        8.31290        8.31000
N          8.98560        7.84950        8.19800
C          6.87420       10.11820        9.28710
N          7.09300       11.04830        9.92360
C          1.56960       11.70990        9.39500
C          1.23420       11.77760       10.90520
C          1.46940       10.39380       11.45810
C          0.51950        9.60050       10.98110
C         -0.37530       10.43350       10.09690
C         -0.30110       11.78230       10.83010
C          0.45060       10.77760        8.83250
C          6.03490        5.41610        5.81180
C          7.11150        4.84070        5.14270
C          6.76050        3.79600        4.29560
S          7.87600        2.85120        3.31830
C          9.42890        2.96010        4.28050
C          9.30290        2.32330        5.64980
C          5.38830        3.54800        4.31520
S          4.54690        4.61210        5.39030
C          4.65190        2.62060        3.52690
C          4.94770        2.15340        2.27770
C          3.92870        1.34310        1.72060
C          3.88370        0.78290        0.42930
C          5.06400        0.83880       -0.44040
C          6.31600        0.51040        0.07800
C          7.45620        0.55920       -0.69660
C          7.38620        0.94180       -2.03490
O          8.42570        1.06720       -2.88150
C          9.73320        0.70710       -2.47300
C          9.94840       -0.80250       -2.48600
C          6.12020        1.24770       -2.56420
C          6.04240        1.64590       -4.01080
F          6.66210        2.81290       -4.26130
F          4.78000        1.79580       -4.44020
F          6.60620        0.73680       -4.82380
C          4.98140        1.20130       -1.78080
C          2.68910        0.18300        0.06120
C          1.61330       -0.01370        0.96540
C          1.69010        0.47700        2.27720
C          0.63760        0.24670        3.27650
C          0.08360        1.30700        3.98800
C         -0.80440        1.09200        5.02070
C         -1.15890       -0.20390        5.38990
O         -1.96300       -0.52390        6.42090
C         -2.43840        0.50480        7.27590
C         -3.22670       -0.16060        8.39200
C         -0.63950       -1.27190        4.63980
C          0.24240       -1.04670        3.59650
C         -0.97090       -2.67550        5.05390
F         -0.61890       -3.58440        4.12920
F         -0.33510       -3.03340        6.18630
F         -2.27770       -2.88310        5.28730
C          2.82670        1.20170        2.60050
S          3.10010        2.04290        4.10210
C          0.49320       -0.62690        0.35320
C          0.65200       -0.84440       -0.98490
S          2.27290       -0.41310       -1.52300
C         -0.27610       -1.26400       -1.98310
C         -1.50150       -1.91270       -1.90150
N         -2.13280       -2.43510       -0.77480
C         -2.54520       -1.65030        0.29770
C         -2.65480       -0.26110        0.19280
C         -3.08060        0.48760        1.26950
C         -3.43210       -0.13280        2.46400
S         -4.01140        0.88840        3.78500
C         -4.93980       -0.28510        4.81950
C         -3.31390       -1.51120        2.57860
C         -2.86140       -2.25900        1.51230
C         -2.69860       -3.71400       -0.97940
C         -1.91220       -4.70330       -1.56250
C         -2.45150       -5.92830       -1.89470
C         -3.79270       -6.18330       -1.64580
S         -4.57410       -7.70220       -2.07940
C         -3.50480       -8.32260       -3.41280
C         -4.57150       -5.21480       -1.01930
C         -4.03410       -3.98900       -0.69270
C         -2.05370       -2.10990       -3.19310
S         -3.51330       -2.82970       -3.74310
C         -3.12720       -2.41680       -5.41080
C         -1.89620       -1.72900       -5.50820
N         -1.30180       -1.29100       -6.66120
C          0.10030       -1.25860       -6.74410
C          0.85750       -2.30950       -6.23200
C          2.23630       -2.26540       -6.27010
C          2.88240       -1.17070       -6.83140
S          4.63330       -1.01210       -6.91700
C          5.20660       -2.10700       -5.58650
C          2.12540       -0.13850       -7.38380
C          0.75090       -0.17740       -7.33870
C         -2.04400       -0.67670       -7.68690
C         -3.01370        0.27380       -7.38190
C         -3.70920        0.91140       -8.38830
C         -3.45640        0.59070       -9.71790
S         -4.30460        1.32560      -11.07120
C         -5.77630        2.04950      -10.29350
C         -2.47350       -0.35040      -10.02430
C         -1.76750       -0.97450       -9.02070
C         -1.29320       -1.60780       -4.23710
S          0.15910       -0.87470       -3.64660
C         -4.02470       -2.74650       -6.43640
C         -4.96370       -3.75620       -6.40770
C         -4.92720       -4.95200       -5.54440
O         -4.10520       -5.24170       -4.69240
C         -6.00850       -5.83420       -6.02140
C         -6.39950       -7.05380       -5.47380
C         -7.42230       -7.66890       -6.15540
C         -8.01080       -7.11660       -7.29980
C         -7.64800       -5.90440       -7.83850
C         -6.61380       -5.25910       -7.15570
C         -6.01710       -3.94330       -7.37270
C         -6.49270       -2.99560       -8.24820
C         -6.14130       -1.63660       -8.22300
N         -5.99580       -0.49560       -8.21700
C         -7.48380       -3.22790       -9.22140
N         -8.26900       -3.35100      -10.05110
C         -8.96020       -8.27660       -7.47020
C         -8.60300       -9.30730       -8.56200
C         -9.40570      -10.53000       -8.18070
C         -8.85430      -11.05140       -7.09230
C         -7.66920      -10.19020       -6.72000
C         -7.20590       -9.75990       -8.11790
C         -8.30830       -8.88970       -6.18920
H          7.22710        6.82760        6.77810
H          1.08580        7.95910        7.41340
H          4.65850       11.02490        9.28370
H          1.68220       12.69650        8.95000
H          1.71280       12.59500       11.43740
H          2.30930       10.13030       12.07380
H          0.40710        8.54090       11.11850
H         -1.36290       10.02750        9.89400
H         -0.70480       12.61290       10.25270
H         -0.77080       11.75430       11.81210
H         -0.16980       11.15640        8.02250
H          8.11310        5.20990        5.27350
H          9.72870        4.00550        4.33660
H         10.14940        2.42360        3.66340
H         10.26000        2.36810        6.16530
H          9.00420        1.28160        5.55660
H          8.56130        2.84200        6.25400
H          5.83140        2.44680        1.74200
H          6.39700        0.19480        1.10710
H          8.40060        0.30240       -0.24560
H          9.96040        1.13310       -1.48880
H         10.38130        1.18160       -3.21400
H          9.73500       -1.19280       -3.47770
H         10.98090       -1.02620       -2.23300
H          9.29410       -1.29860       -1.77300
H          4.03180        1.47060       -2.21600
H          0.34800        2.32000        3.72680
H         -1.21430        1.93890        5.54440
H         -3.07650        1.19480        6.70880
H         -1.58860        1.06280        7.68940
H         -4.06410       -0.71750        7.98070
H         -3.60180        0.59350        9.07760
H         -2.58770       -0.85180        8.93450
H          0.65130       -1.88590        3.05470
H         -0.41140       -0.82540        0.89230
H         -2.40980        0.22570       -0.73920
H         -3.16500        1.56010        1.18630
H         -5.50090        0.32020        5.52500
H         -4.25930       -0.94390        5.35110
H         -5.62210       -0.85070        4.19240
H         -3.57130       -2.01570        3.49370
H         -2.75400       -3.32760        1.61800
H         -0.87180       -4.49870       -1.77100
H         -1.81960       -6.67120       -2.35290
H         -3.31710       -7.50700       -4.10550
H         -4.05870       -9.11870       -3.90150
H         -2.58110       -8.72260       -3.00420
H         -5.61160       -5.42290       -0.82030
H         -4.65560       -3.22770       -0.24580
H          0.35970       -3.16870       -5.80630
H          2.79770       -3.09340       -5.86840
H          6.24370       -1.83680       -5.41610
H          4.62180       -1.91810       -4.69120
H          5.13980       -3.14740       -5.89190
H          2.63310        0.70320       -7.82760
H          0.17200        0.63800       -7.74480
H         -3.21440        0.51700       -6.34890
H         -4.43730        1.65940       -8.12660
H         -5.51390        2.96580       -9.77220
H         -6.46180        2.27140      -11.10530
H         -6.21180        1.31660       -9.62100
H         -2.27760       -0.58660      -11.05880
H         -1.00560       -1.70240       -9.25660
H         -3.95390       -2.15800       -7.34530
H         -5.93870       -7.43710       -4.57790
H         -8.11820       -5.48470       -8.71210
H        -10.01990       -8.02960       -7.44920
H         -8.71290       -8.94730       -9.58130
H        -10.29620      -10.84630       -8.69160
H         -9.19220      -11.89000       -6.51210
H         -6.92890      -10.63610       -6.06090
H         -6.46300       -8.96440       -8.11360
H         -6.83850      -10.59880       -8.70690
H         -8.93270       -9.04840       -5.31210
