226

C          7.43590       -5.11180       -1.15570
C          7.71170       -5.76510       -2.30830
C          6.70260       -6.40460       -3.19940
O          5.51890       -6.55330       -2.99340
C          7.46710       -6.94800       -4.33640
C          6.94670       -7.59490       -5.45510
C          7.89700       -8.02040       -6.35080
C          9.27030       -7.82280       -6.14690
C          9.79790       -7.19050       -5.04740
C          8.84630       -6.74760       -4.12180
C          9.03020       -6.05420       -2.85170
C         10.23370       -5.72180       -2.28920
C         11.49310       -6.01360       -2.85640
N         12.55260       -6.21510       -3.24960
C         10.41130       -5.05770       -1.05830
N         10.66010       -4.52680       -0.07000
C          9.64160       -8.51750       -7.43290
C         10.18340       -9.96550       -7.33900
C          9.60860      -10.55870       -6.07660
C          8.30960      -10.74340       -6.27060
C          7.98260      -10.27890       -7.66840
C          9.28990      -10.64570       -8.38870
C          8.11240       -8.73540       -7.66090
C          6.13310       -4.67080       -0.74210
C          5.19560       -4.13670       -1.65220
N          5.28820       -3.90030       -2.96500
N          4.16500       -3.31700       -3.26710
C          3.90560       -2.86180       -4.60260
C          4.73680       -1.61890       -4.90540
N          3.32010       -3.11680       -2.29500
C          3.94000       -3.62370       -1.21820
C          3.59410       -3.57190        0.14640
C          4.52350       -4.10620        1.02430
C          5.75910       -4.62420        0.59600
Cl         6.84030       -5.23660        1.78480
Cl         4.16310       -4.12580        2.70830
C          2.39720       -2.87960        0.57900
C          2.34070       -1.76530        1.39550
N          3.44230       -1.14900        1.97930
C          4.64320       -1.11650        1.25500
C          5.86460       -1.43610        1.84290
C          7.00900       -1.54340        1.07650
C          6.95540       -1.31350       -0.29140
S          8.32600       -1.53810       -1.38270
C          9.76550       -1.43930       -0.27990
C          5.75130       -0.92190       -0.87090
C          4.60940       -0.82300       -0.10940
C          3.39370       -0.81110        3.33470
C          4.18310        0.22740        3.82850
C          4.19130        0.51370        5.17650
C          3.40380       -0.22310        6.05340
S          3.50210        0.15040        7.78430
C          3.34020       -1.50400        8.52610
C          2.56800       -1.21530        5.56220
C          2.56860       -1.50970        4.21500
C          1.01430       -1.28440        1.49870
S          0.28020        0.07030        2.28220
C         -1.29310       -0.36870        1.61040
C         -1.23870       -1.56090        0.89010
N         -2.33260       -2.23130        0.36430
C         -3.46640       -2.47870        1.14550
C         -3.41120       -2.44500        2.53660
C         -4.54300       -2.66990        3.29600
C         -5.74460       -2.97680        2.67540
S         -7.25690       -3.26920        3.54470
C         -6.74470       -3.44020        5.27550
C         -5.79760       -3.04540        1.28540
C         -4.68290       -2.77460        0.52750
C         -2.11420       -2.94960       -0.82350
C         -2.51350       -4.27830       -0.95990
C         -2.18820       -4.98420       -2.09700
C         -1.45120       -4.38250       -3.11180
S         -0.99560       -5.37340       -4.50360
C          0.63530       -4.67750       -4.91530
C         -1.09540       -3.04520       -3.00380
C         -1.42640       -2.33560       -1.86790
C          0.08930       -2.03630        0.79090
S          0.84330       -3.32760       -0.07890
C         -2.36200        0.55750        1.65880
C         -2.39810        1.76180        2.36010
N         -1.50380        2.14530        3.35120
C         -1.24070        3.53350        3.41010
C         -1.55250        4.27830        4.54210
C         -1.40660        5.64990        4.53720
C         -0.95680        6.29730        3.39440
S         -0.80650        8.05050        3.29020
C         -1.99620        8.61780        4.54270
C         -0.59770        5.55120        2.27640
C         -0.73850        4.18030        2.28350
C         -1.23350        1.34540        4.46040
C         -0.13720        1.65130        5.26870
C          0.13670        0.90800        6.39540
C         -0.67220       -0.17020        6.72760
S         -0.37310       -1.16050        8.16860
C          0.11370        0.10350        9.38410
C         -1.74170       -0.50700        5.90810
C         -2.02800        0.24690        4.78970
C         -3.45620        2.58630        1.92090
S         -3.88390        4.23030        2.23570
C         -5.19750        4.12380        1.06710
C         -5.24560        2.85860        0.43580
N         -6.08870        2.52090       -0.60000
C         -6.64760        1.23310       -0.62960
C         -7.09540        0.63730        0.54640
C         -7.72950       -0.58810        0.51650
C         -7.92490       -1.23600       -0.69640
S         -8.76790       -2.78020       -0.84990
C         -9.76530       -2.86490        0.66670
C         -7.43350       -0.66630       -1.86900
C         -6.80120        0.55600       -1.83860
C         -6.43610        3.45500       -1.58890
C         -5.50260        4.39790       -2.01940
C         -5.87030        5.40460       -2.88720
C         -7.17560        5.47200       -3.36160
S         -7.75850        6.76330       -4.41480
C         -6.61160        8.12700       -4.05750
C         -8.08330        4.47760       -3.00780
C         -7.72310        3.48200       -2.12620
C         -4.25250        2.00620        0.93910
S         -3.72030        0.40250        0.54210
C         -6.07840        5.16660        0.76900
C         -5.94630        6.51680        0.98290
C         -4.81580        7.18890        1.62890
O         -3.99200        6.70140        2.38600
C         -4.88940        8.60070        1.21250
C         -3.96110        9.60460        1.47350
C         -4.30220       10.83000        0.95240
C         -5.47620       11.04010        0.21880
C         -6.39410       10.05380       -0.05810
C         -6.06950        8.80040        0.46640
C         -6.78100        7.52550        0.37200
C         -8.01200        7.33500       -0.20780
C         -8.73740        6.12800       -0.18210
N         -9.40310        5.19080       -0.17620
C         -8.73660        8.33730       -0.88190
N         -9.36230        9.10450       -1.46460
C         -5.17920       12.50390        0.01000
C         -5.95060       13.52680        0.87990
C         -6.32730       12.80950        2.15240
C         -5.21620       12.61040        2.84880
C         -4.06800       13.18940        2.05970
C         -4.77430       14.37690        1.38620
C         -3.87050       12.26980        0.82910
H          8.23840       -4.87940       -0.46830
H          5.88230       -7.72950       -5.56980
H         10.85630       -7.04880       -4.90580
H         10.18590       -7.91750       -8.15940
H         11.25920      -10.05330       -7.46390
H         10.17730      -10.72480       -5.18050
H          7.57580      -11.09440       -5.56900
H          7.05460      -10.65190       -8.09380
H          9.45130      -11.72100       -8.44590
H          9.37620      -10.20730       -9.38210
H          7.65710       -8.27640       -8.53640
H          4.16840       -3.66880       -5.29020
H          2.83900       -2.64450       -4.66820
H          4.44670       -0.80100       -4.25030
H          5.79210       -1.83390       -4.75570
H          4.58150       -1.31200       -5.93570
H          5.91170       -1.64350        2.90120
H          7.93110       -1.83740        1.55170
H          9.64780       -0.59200        0.38800
H          9.89200       -2.37000        0.26670
H         10.62240       -1.28540       -0.92860
H          5.72630       -0.70670       -1.92830
H          3.67430       -0.53980       -0.56950
H          4.80280        0.79430        3.15000
H          4.81540        1.30520        5.56240
H          3.66590       -1.40470        9.55680
H          2.30770       -1.83990        8.49520
H          3.98810       -2.19210        7.99250
H          1.92610       -1.77530        6.22350
H          1.94080       -2.30760        3.84840
H         -2.47460       -2.24590        3.03590
H         -4.46510       -2.61730        4.37040
H         -5.97760       -4.20480        5.35470
H         -7.63410       -3.74960        5.81590
H         -6.39510       -2.48600        5.65980
H         -6.72020       -3.31730        0.80070
H         -4.74770       -2.79530       -0.54910
H         -3.04900       -4.76370       -0.15830
H         -2.47510       -6.01930       -2.19710
H          0.52260       -3.78210       -5.52080
H          1.16810       -4.46820       -3.99250
H          1.15540       -5.44120       -5.48470
H         -0.55850       -2.55140       -3.79810
H         -1.14260       -1.29750       -1.77700
H         -1.93440        3.78020        5.42110
H         -1.66830        6.20510        5.42310
H         -2.13290        9.68160        4.37250
H         -1.60170        8.46030        5.54250
H         -2.93070        8.08450        4.39290
H         -0.22810        6.05950        1.39910
H         -0.48680        3.59900        1.40850
H          0.50250        2.47960        5.00540
H          0.98590        1.16980        7.00570
H          1.12200        0.45620        9.18890
H          0.07230       -0.38110       10.35450
H         -0.59790        0.92200        9.34250
H         -2.35900       -1.35390        6.16780
H         -2.88500       -0.00070        4.18120
H         -6.96960        1.15240        1.48740
H         -8.07820       -1.02100        1.44000
H        -10.46430       -3.68060        0.51060
H         -9.14030       -3.07790        1.52980
H        -10.30450       -1.93110        0.79220
H         -7.56590       -1.18960       -2.80340
H         -6.43770        1.00420       -2.75090
H         -4.48940        4.35620       -1.64710
H         -5.13300        6.13080       -3.19120
H         -7.08900        9.02040       -4.44700
H         -6.47900        8.21910       -2.98350
H         -5.66060        7.96880       -4.55840
H         -9.08750        4.51860       -3.39850
H         -8.45060        2.74880       -1.81610
H         -6.94370        4.86270        0.19480
H         -3.05650        9.39750        2.02210
H         -7.28790       10.23000       -0.63340
H         -5.08230       12.82900       -1.02410
H         -6.75590       14.04190        0.36330
H         -7.32370       12.47950        2.38090
H         -5.09980       12.08070        3.77640
H         -3.15870       13.39900        2.61720
H         -5.08280       15.14210        2.09680
H         -4.19140       14.83120        0.58610
H         -2.91850       12.44260        0.33090
