170

C          7.50140       -2.08070       -2.94700
C          7.66820       -3.41580       -2.76820
C          8.27850       -4.22590       -3.86090
O          8.98630       -3.82170       -4.75550
C          7.74980       -5.58800       -3.66230
C          7.88500       -6.67870       -4.51910
C          7.22940       -7.80900       -4.09480
C          6.48520       -7.85870       -2.90730
C          6.34870       -6.79570       -2.04720
C          7.01320       -5.63800       -2.45900
C          7.11520       -4.34120       -1.80260
C          6.96270       -4.09740       -0.46390
C          6.44040       -5.01870        0.46370
N          5.98900       -5.70790        1.26390
C          7.41510       -2.90770        0.14790
N          7.82960       -1.98630        0.69190
C          6.09490       -9.30000       -3.11810
C          6.85350      -10.34830       -2.27670
C          6.62180      -11.64450       -3.01920
C          7.32960      -11.59920       -4.14060
C          8.05170      -10.27150       -4.17500
C          8.30900      -10.07240       -2.67570
C          6.92820       -9.24630       -4.43880
C          6.52330       -1.21170       -2.40260
C          6.30870        0.09090       -2.80660
C          5.10800        0.63540       -2.33170
S          4.60890        2.32500       -2.50060
C          4.15740        2.49420       -4.27100
C          5.23800        2.06610       -5.24010
C          4.39580       -0.24260       -1.54230
S          5.24530       -1.73390       -1.33870
C          3.07500       -0.08430       -0.99710
C          1.90760       -0.01190       -1.72800
N          1.83110       -0.08940       -3.11580
C          2.56820       -1.07010       -3.78580
C          2.82230       -2.29850       -3.17160
C          3.66810       -3.21460       -3.75550
C          4.27960       -2.93100       -4.97220
S          5.43820       -4.11860       -5.58630
C          6.48090       -3.12800       -6.69490
C          3.95250       -1.75670       -5.63760
C          3.10170       -0.83880       -5.05270
C          0.87060        0.71230       -3.74410
C          0.09820        0.23750       -4.80300
C         -0.90120        1.02410       -5.33230
C         -1.15430        2.29340       -4.81660
S         -2.51770        3.17910       -5.51150
C         -2.28600        4.87340       -4.89660
C         -0.36530        2.78280       -3.78580
C          0.64330        2.00040       -3.26240
C          0.78020        0.07890       -0.87600
S         -0.91510        0.23670       -1.15210
C         -1.20970        0.16300        0.57420
C         -0.03980        0.10840        1.32630
N          0.04910        0.21140        2.70140
C          1.10690       -0.44370        3.34900
C          1.51780       -1.70090        2.90910
C          2.61950       -2.31810        3.46620
C          3.32290       -1.69090        4.48580
S          4.77420       -2.38330        5.21320
C          5.43740       -3.41520        3.87280
C          2.87320       -0.46610        4.97570
C          1.78080        0.15560        4.41280
C         -0.85550        1.01080        3.41910
C         -1.33560        0.59150        4.65700
C         -2.33350        1.29680        5.30160
C         -2.87970        2.42680        4.70830
S         -4.23850        3.32570        5.38960
C         -4.97670        2.13680        6.54960
C         -2.34670        2.89700        3.50920
C         -1.34000        2.20300        2.87790
C          1.09200        0.03250        0.47260
S          2.79680       -0.11720        0.73200
C         -2.55890        0.27480        1.03930
C         -3.48990        1.07530        0.34380
N         -3.42190        1.65080       -0.86350
N         -4.55750        2.27630       -0.98280
C         -4.86880        3.05040       -2.14940
C         -4.78250        4.53770       -1.82260
N         -5.38100        2.20070        0.02510
C         -4.73680        1.44690        0.92340
C         -5.10210        1.02080        2.22020
C         -4.25170        0.05660        2.75550
C         -3.02460       -0.30520        2.21310
F         -4.57060       -0.48410        3.95100
C         -6.20750        1.53300        2.97400
C         -6.63270        2.82070        2.96600
C         -5.96910        3.96720        2.29060
O         -4.85090        4.02240        1.82640
C         -6.92110        5.08960        2.38820
C         -6.79270        6.34750        1.80230
C         -7.84760        7.19150        2.05000
C         -8.94770        6.81790        2.83440
C         -9.07900        5.58870        3.43350
C         -8.01680        4.71110        3.18830
C         -7.80660        3.34290        3.65040
C         -8.55770        2.70310        4.59880
C         -8.30620        1.41470        5.11720
N         -8.16810        0.38940        5.61620
C         -9.67380        3.27060        5.25020
N        -10.58830        3.66290        5.82300
C         -9.63380        8.14860        2.64850
C        -10.80120        8.18640        1.63960
C        -10.94890        9.65460        1.31200
C         -9.90770       10.00920        0.56980
C         -9.03880        8.78630        0.38350
C        -10.11890        7.69700        0.35560
C         -8.40740        8.56510        1.77460
H          8.09100       -1.64780       -3.75000
H          8.45830       -6.60350       -5.42960
H          5.76650       -6.83330       -1.14040
H          5.02680       -9.49750       -3.18380
H          6.61410      -10.34080       -1.21700
H          5.94640      -12.41220       -2.69000
H          7.36340      -12.32120       -4.93520
H          8.90410      -10.19550       -4.84470
H          8.99380      -10.81690       -2.27360
H          8.65970       -9.07590       -2.41360
H          6.41620       -9.40890       -5.38520
H          7.00540        0.63090       -3.42160
H          3.23230        1.94150       -4.42450
H          3.94920        3.56020       -4.36270
H          6.17200        2.57990       -5.02380
H          5.39890        0.99110       -5.18680
H          4.93350        2.31720       -6.25480
H          2.36670       -2.52080       -2.21830
H          3.88010       -4.15250       -3.26490
H          7.41390       -3.67390       -6.79620
H          6.00470       -3.01640       -7.66480
H          6.67310       -2.16360       -6.23550
H          4.36360       -1.54300       -6.61180
H          2.85710        0.06930       -5.58270
H          0.27140       -0.75540       -5.18980
H         -1.51400        0.65350       -6.13960
H         -3.03560        5.47330       -5.40330
H         -1.29260        5.22420       -5.15940
H         -2.44740        4.91290       -3.82380
H         -0.52710        3.76530       -3.37390
H          1.25660        2.38490       -2.46060
H          0.96930       -2.19590        2.12060
H          2.92160       -3.28650        3.10070
H          6.46590       -3.63080        4.14430
H          4.88290       -4.34470        3.78580
H          5.41240       -2.85380        2.94370
H          3.40980        0.00320        5.78550
H          1.45730        1.12050        4.77300
H         -0.94490       -0.31090        5.10430
H         -2.69790        0.93470        6.24880
H         -5.11930        1.18180        6.05310
H         -4.35230        2.03380        7.43210
H         -5.93830        2.55350        6.83330
H         -2.75570        3.79030        3.06440
H         -0.94500        2.56580        1.94100
H         -4.15260        2.76620       -2.92280
H         -5.88200        2.79530       -2.46940
H         -3.77450        4.79790       -1.50790
H         -5.46450        4.77190       -1.00910
H         -5.05030        5.12760       -2.69480
H         -2.42310       -1.02000        2.75010
H         -6.69020        0.82010        3.63100
H         -5.92510        6.59820        1.21170
H         -9.92860        5.31850        4.03790
H         -9.83950        8.70810        3.55870
H        -11.69800        7.66410        1.96140
H        -11.73970       10.27670        1.68800
H         -9.65500       10.98650        0.20240
H         -8.33010        8.81090       -0.44030
H         -9.72840        6.68300        0.41950
H        -10.76840        7.78350       -0.51400
H         -7.79490        9.40290        2.10260
