
  xtb     02072216073D
 energy: -315.241650790153 gnorm: 0.000492955826 xtb: 6.4.1 (unknown)
184204  0     0  0            999 V2000
    2.3109   -3.5840    7.2140 C   0  0  0  0  0  0  0  0  0  0  0  0
    1.5179   -3.4701    8.2957 C   0  0  0  0  0  0  0  0  0  0  0  0
    0.4338   -2.4527    8.4027 C   0  0  0  0  0  0  0  0  0  0  0  0
    0.2289   -1.5370    7.6346 O   0  0  0  0  0  0  0  0  0  0  0  0
   -0.2346   -2.7195    9.6849 C   0  0  0  0  0  0  0  0  0  0  0  0
   -1.3606   -2.0770   10.1969 C   0  0  0  0  0  0  0  0  0  0  0  0
   -1.7480   -2.5246   11.4359 C   0  0  0  0  0  0  0  0  0  0  0  0
   -1.0681   -3.5389   12.1251 C   0  0  0  0  0  0  0  0  0  0  0  0
    0.0430   -4.1813   11.6353 C   0  0  0  0  0  0  0  0  0  0  0  0
    0.4564   -3.7431   10.3723 C   0  0  0  0  0  0  0  0  0  0  0  0
    1.5684   -4.2058    9.5517 C   0  0  0  0  0  0  0  0  0  0  0  0
    2.4810   -5.1662    9.8896 C   0  0  0  0  0  0  0  0  0  0  0  0
    3.5253   -5.6197    9.0540 C   0  0  0  0  0  0  0  0  0  0  0  0
    4.3862   -6.0553    8.4322 N   0  0  0  0  0  0  0  0  0  0  0  0
    2.5111   -5.8458   11.1266 C   0  0  0  0  0  0  0  0  0  0  0  0
    2.5996   -6.4342   12.1081 N   0  0  0  0  0  0  0  0  0  0  0  0
   -2.0195   -3.4911   13.2942 C   0  0  0  0  0  0  0  0  0  0  0  0
   -3.0891   -4.6070   13.3961 C   0  0  0  0  0  0  0  0  0  0  0  0
   -3.3413   -5.0903   11.9892 C   0  0  0  0  0  0  0  0  0  0  0  0
   -3.9819   -4.1281   11.3390 C   0  0  0  0  0  0  0  0  0  0  0  0
   -4.1755   -2.9768   12.2946 C   0  0  0  0  0  0  0  0  0  0  0  0
   -4.3432   -3.7453   13.6150 C   0  0  0  0  0  0  0  0  0  0  0  0
   -2.7744   -2.3595   12.5275 C   0  0  0  0  0  0  0  0  0  0  0  0
    2.0617   -2.8639    5.9805 C   0  0  0  0  0  0  0  0  0  0  0  0
    0.9112   -3.0788    5.3110 N   0  0  0  0  0  0  0  0  0  0  0  0
    0.6684   -2.5363    4.1936 N   0  0  0  0  0  0  0  0  0  0  0  0
    1.5220   -1.6954    3.5530 C   0  0  0  0  0  0  0  0  0  0  0  0
    2.7307   -1.3791    4.2021 C   0  0  0  0  0  0  0  0  0  0  0  0
    3.8442   -0.4405    3.9333 C   0  0  0  0  0  0  0  0  0  0  0  0
    4.0014    0.3421    3.0261 O   0  0  0  0  0  0  0  0  0  0  0  0
    4.7228   -0.5833    4.9973 N   0  0  0  0  0  0  0  0  0  0  0  0
    5.9740    0.1394    5.0987 C   0  0  0  0  0  0  0  0  0  0  0  0
    7.0063   -0.4029    4.1175 C   0  0  0  0  0  0  0  0  0  0  0  0
    4.2775   -1.4795    5.9530 C   0  0  0  0  0  0  0  0  0  0  0  0
    4.8372   -1.7467    6.9848 O   0  0  0  0  0  0  0  0  0  0  0  0
    2.9886   -1.9886    5.4246 C   0  0  0  0  0  0  0  0  0  0  0  0
    1.1276   -1.2658    2.2594 C   0  0  0  0  0  0  0  0  0  0  0  0
   -0.1388   -1.4201    1.6790 C   0  0  0  0  0  0  0  0  0  0  0  0
   -1.2858   -1.8101    2.3225 N   0  0  0  0  0  0  0  0  0  0  0  0
   -2.2211   -2.5584    1.5880 C   0  0  0  0  0  0  0  0  0  0  0  0
   -3.5830   -2.2866    1.6648 C   0  0  0  0  0  0  0  0  0  0  0  0
   -4.4871   -3.0043    0.9055 C   0  0  0  0  0  0  0  0  0  0  0  0
   -4.0409   -4.0012    0.0478 C   0  0  0  0  0  0  0  0  0  0  0  0
   -5.0945   -4.9663   -0.9860 S   0  0  0  0  0  0  0  0  0  0  0  0
   -6.7642   -4.3707   -0.5942 C   0  0  0  0  0  0  0  0  0  0  0  0
   -2.6779   -4.2845   -0.0237 C   0  0  0  0  0  0  0  0  0  0  0  0
   -1.7802   -3.5777    0.7418 C   0  0  0  0  0  0  0  0  0  0  0  0
   -1.5880   -1.3774    3.6203 C   0  0  0  0  0  0  0  0  0  0  0  0
   -2.3485   -2.1750    4.4743 C   0  0  0  0  0  0  0  0  0  0  0  0
   -2.6970   -1.7169    5.7254 C   0  0  0  0  0  0  0  0  0  0  0  0
   -2.2890   -0.4577    6.1520 C   0  0  0  0  0  0  0  0  0  0  0  0
   -2.8333    0.0978    7.7364 S   0  0  0  0  0  0  0  0  0  0  0  0
   -1.4963    1.2248    8.2352 C   0  0  0  0  0  0  0  0  0  0  0  0
   -1.5241    0.3373    5.3107 C   0  0  0  0  0  0  0  0  0  0  0  0
   -1.1809   -0.1182    4.0554 C   0  0  0  0  0  0  0  0  0  0  0  0
   -0.1024   -1.0712    0.3081 C   0  0  0  0  0  0  0  0  0  0  0  0
   -1.2898   -1.0411   -0.9502 S   0  0  0  0  0  0  0  0  0  0  0  0
   -0.0952   -0.4389   -2.0688 C   0  0  0  0  0  0  0  0  0  0  0  0
    1.1685   -0.3205   -1.5097 C   0  0  0  0  0  0  0  0  0  0  0  0
    2.2960   -0.0596   -2.2677 N   0  0  0  0  0  0  0  0  0  0  0  0
    2.3706   -0.6532   -3.5448 C   0  0  0  0  0  0  0  0  0  0  0  0
    2.7766    0.0807   -4.6536 C   0  0  0  0  0  0  0  0  0  0  0  0
    2.7281   -0.4754   -5.9197 C   0  0  0  0  0  0  0  0  0  0  0  0
    2.2897   -1.7824   -6.0890 C   0  0  0  0  0  0  0  0  0  0  0  0
    2.1201   -2.5876   -7.6448 S   0  0  0  0  0  0  0  0  0  0  0  0
    2.8821   -1.4460   -8.8300 C   0  0  0  0  0  0  0  0  0  0  0  0
    1.9367   -2.5373   -4.9706 C   0  0  0  0  0  0  0  0  0  0  0  0
    1.9762   -1.9810   -3.7141 C   0  0  0  0  0  0  0  0  0  0  0  0
    3.3969    0.5578   -1.6733 C   0  0  0  0  0  0  0  0  0  0  0  0
    3.1954    1.5583   -0.7245 C   0  0  0  0  0  0  0  0  0  0  0  0
    4.2619    2.1007   -0.0385 C   0  0  0  0  0  0  0  0  0  0  0  0
    5.5498    1.6524   -0.2959 C   0  0  0  0  0  0  0  0  0  0  0  0
    6.9597    2.2289    0.5964 S   0  0  0  0  0  0  0  0  0  0  0  0
    6.2192    2.8085    2.1523 C   0  0  0  0  0  0  0  0  0  0  0  0
    5.7630    0.7109   -1.2997 C   0  0  0  0  0  0  0  0  0  0  0  0
    4.6989    0.1666   -1.9840 C   0  0  0  0  0  0  0  0  0  0  0  0
    1.1478   -0.6630   -0.1369 C   0  0  0  0  0  0  0  0  0  0  0  0
    2.3187   -0.6378    1.1281 S   0  0  0  0  0  0  0  0  0  0  0  0
   -0.4011   -0.0709   -3.4204 C   0  0  0  0  0  0  0  0  0  0  0  0
   -0.0355    1.5351   -3.9500 S   0  0  0  0  0  0  0  0  0  0  0  0
   -0.5052    1.1497   -5.5827 C   0  0  0  0  0  0  0  0  0  0  0  0
   -0.9593   -0.1703   -5.6737 C   0  0  0  0  0  0  0  0  0  0  0  0
   -1.4001   -0.8155   -6.9225 C   0  0  0  0  0  0  0  0  0  0  0  0
   -1.6325   -0.1962   -7.9497 O   0  0  0  0  0  0  0  0  0  0  0  0
   -1.5179   -2.2660   -6.8134 C   0  0  0  0  0  0  0  0  0  0  0  0
   -1.7593   -3.1016   -7.8773 C   0  0  0  0  0  0  0  0  0  0  0  0
   -1.9381   -2.7667   -9.3136 C   0  0  0  0  0  0  0  0  0  0  0  0
   -0.5967   -2.4671   -9.9888 C   0  0  0  0  0  0  0  0  0  0  0  0
   -1.8054   -4.7518   -7.3651 S   0  0  0  0  0  0  0  0  0  0  0  0
   -1.5390   -4.3276   -5.7094 C   0  0  0  0  0  0  0  0  0  0  0  0
   -1.5277   -5.3764   -4.6578 C   0  0  0  0  0  0  0  0  0  0  0  0
   -2.9082   -5.4985   -4.0051 C   0  0  0  0  0  0  0  0  0  0  0  0
   -1.4081   -2.9688   -5.5684 C   0  0  0  0  0  0  0  0  0  0  0  0
   -1.1838   -2.2926   -4.2938 C   0  0  0  0  0  0  0  0  0  0  0  0
   -1.1837   -2.8568   -3.2121 O   0  0  0  0  0  0  0  0  0  0  0  0
   -0.9095   -0.8562   -4.4432 C   0  0  0  0  0  0  0  0  0  0  0  0
   -0.3366    2.0042   -6.6898 C   0  0  0  0  0  0  0  0  0  0  0  0
   -0.0359    3.3341   -6.7211 C   0  0  0  0  0  0  0  0  0  0  0  0
   -0.0407    4.2655   -5.5794 C   0  0  0  0  0  0  0  0  0  0  0  0
   -0.0145    3.9865   -4.3955 O   0  0  0  0  0  0  0  0  0  0  0  0
   -0.1044    5.6162   -6.1651 C   0  0  0  0  0  0  0  0  0  0  0  0
   -0.2294    6.8240   -5.4810 C   0  0  0  0  0  0  0  0  0  0  0  0
   -0.2783    7.9274   -6.2989 C   0  0  0  0  0  0  0  0  0  0  0  0
   -0.2046    7.8411   -7.6964 C   0  0  0  0  0  0  0  0  0  0  0  0
   -0.0715    6.6586   -8.3848 C   0  0  0  0  0  0  0  0  0  0  0  0
   -0.0235    5.5229   -7.5713 C   0  0  0  0  0  0  0  0  0  0  0  0
    0.1235    4.1179   -7.9319 C   0  0  0  0  0  0  0  0  0  0  0  0
    0.4680    3.6209   -9.1605 C   0  0  0  0  0  0  0  0  0  0  0  0
    0.6204    4.4055  -10.3222 C   0  0  0  0  0  0  0  0  0  0  0  0
    0.7496    4.9927  -11.3001 N   0  0  0  0  0  0  0  0  0  0  0  0
    0.8125    2.2733   -9.3933 C   0  0  0  0  0  0  0  0  0  0  0  0
    1.1811    1.2137   -9.6399 N   0  0  0  0  0  0  0  0  0  0  0  0
   -0.3297    9.3331   -7.8755 C   0  0  0  0  0  0  0  0  0  0  0  0
   -1.7098    9.8597   -8.3234 C   0  0  0  0  0  0  0  0  0  0  0  0
   -1.6752   11.3247   -7.9523 C   0  0  0  0  0  0  0  0  0  0  0  0
   -1.7439   11.4077   -6.6298 C   0  0  0  0  0  0  0  0  0  0  0  0
   -1.8262   10.0000   -6.0846 C   0  0  0  0  0  0  0  0  0  0  0  0
   -2.6222    9.3275   -7.2107 C   0  0  0  0  0  0  0  0  0  0  0  0
   -0.4107    9.4299   -6.3181 C   0  0  0  0  0  0  0  0  0  0  0  0
    3.1799   -4.2277    7.2133 H   0  0  0  0  0  0  0  0  0  0  0  0
   -1.8723   -1.3137    9.6328 H   0  0  0  0  0  0  0  0  0  0  0  0
    0.5557   -4.9605   12.1742 H   0  0  0  0  0  0  0  0  0  0  0  0
   -1.5786   -3.2495   14.2592 H   0  0  0  0  0  0  0  0  0  0  0  0
   -2.8720   -5.3731   14.1355 H   0  0  0  0  0  0  0  0  0  0  0  0
   -2.9880   -6.0302   11.6073 H   0  0  0  0  0  0  0  0  0  0  0  0
   -4.2699   -4.1012   10.3045 H   0  0  0  0  0  0  0  0  0  0  0  0
   -4.9463   -2.2580   12.0299 H   0  0  0  0  0  0  0  0  0  0  0  0
   -4.2847   -3.1101   14.4978 H   0  0  0  0  0  0  0  0  0  0  0  0
   -5.2583   -4.3346   13.6459 H   0  0  0  0  0  0  0  0  0  0  0  0
   -2.8257   -1.3760   12.9903 H   0  0  0  0  0  0  0  0  0  0  0  0
    6.3185    0.0222    6.1289 H   0  0  0  0  0  0  0  0  0  0  0  0
    5.7762    1.1961    4.8971 H   0  0  0  0  0  0  0  0  0  0  0  0
    7.2022   -1.4539    4.3173 H   0  0  0  0  0  0  0  0  0  0  0  0
    7.9355    0.1502    4.2200 H   0  0  0  0  0  0  0  0  0  0  0  0
    6.6498   -0.2992    3.0956 H   0  0  0  0  0  0  0  0  0  0  0  0
   -3.9358   -1.5003    2.3153 H   0  0  0  0  0  0  0  0  0  0  0  0
   -5.5348   -2.7634    0.9840 H   0  0  0  0  0  0  0  0  0  0  0  0
   -7.4361   -4.9630   -1.2075 H   0  0  0  0  0  0  0  0  0  0  0  0
   -6.9816   -4.5377    0.4567 H   0  0  0  0  0  0  0  0  0  0  0  0
   -6.8565   -3.3208   -0.8562 H   0  0  0  0  0  0  0  0  0  0  0  0
   -2.3357   -5.0620   -0.6878 H   0  0  0  0  0  0  0  0  0  0  0  0
   -0.7272   -3.8091    0.6912 H   0  0  0  0  0  0  0  0  0  0  0  0
   -2.6484   -3.1604    4.1542 H   0  0  0  0  0  0  0  0  0  0  0  0
   -3.2830   -2.3342    6.3889 H   0  0  0  0  0  0  0  0  0  0  0  0
   -1.5783    2.1703    7.7071 H   0  0  0  0  0  0  0  0  0  0  0  0
   -0.5490    0.7335    8.0338 H   0  0  0  0  0  0  0  0  0  0  0  0
   -1.6185    1.3923    9.3012 H   0  0  0  0  0  0  0  0  0  0  0  0
   -1.2051    1.3209    5.6171 H   0  0  0  0  0  0  0  0  0  0  0  0
   -0.6024    0.5162    3.3997 H   0  0  0  0  0  0  0  0  0  0  0  0
    3.1077    1.1005   -4.5232 H   0  0  0  0  0  0  0  0  0  0  0  0
    3.0144    0.1262   -6.7677 H   0  0  0  0  0  0  0  0  0  0  0  0
    2.2843   -0.5445   -8.9292 H   0  0  0  0  0  0  0  0  0  0  0  0
    2.8962   -1.9782   -9.7762 H   0  0  0  0  0  0  0  0  0  0  0  0
    3.8979   -1.2231   -8.5168 H   0  0  0  0  0  0  0  0  0  0  0  0
    1.6283   -3.5628   -5.1059 H   0  0  0  0  0  0  0  0  0  0  0  0
    1.6818   -2.5655   -2.8555 H   0  0  0  0  0  0  0  0  0  0  0  0
    2.1942    1.9110   -0.5273 H   0  0  0  0  0  0  0  0  0  0  0  0
    4.0763    2.8664    0.6962 H   0  0  0  0  0  0  0  0  0  0  0  0
    5.7923    3.7990    2.0202 H   0  0  0  0  0  0  0  0  0  0  0  0
    5.4663    2.0924    2.4678 H   0  0  0  0  0  0  0  0  0  0  0  0
    7.0318    2.8542    2.8710 H   0  0  0  0  0  0  0  0  0  0  0  0
    6.7710    0.3913   -1.5160 H   0  0  0  0  0  0  0  0  0  0  0  0
    4.8651   -0.5879   -2.7385 H   0  0  0  0  0  0  0  0  0  0  0  0
   -2.4255   -3.6031   -9.8186 H   0  0  0  0  0  0  0  0  0  0  0  0
   -2.5720   -1.8810   -9.3924 H   0  0  0  0  0  0  0  0  0  0  0  0
   -0.1682   -1.5591   -9.5759 H   0  0  0  0  0  0  0  0  0  0  0  0
   -0.7472   -2.3227  -11.0551 H   0  0  0  0  0  0  0  0  0  0  0  0
    0.0996   -3.2886   -9.8369 H   0  0  0  0  0  0  0  0  0  0  0  0
   -0.8031   -5.0992   -3.8896 H   0  0  0  0  0  0  0  0  0  0  0  0
   -1.2415   -6.3332   -5.0987 H   0  0  0  0  0  0  0  0  0  0  0  0
   -3.6680   -5.7150   -4.7524 H   0  0  0  0  0  0  0  0  0  0  0  0
   -3.1624   -4.5711   -3.4996 H   0  0  0  0  0  0  0  0  0  0  0  0
   -2.9052   -6.2994   -3.2712 H   0  0  0  0  0  0  0  0  0  0  0  0
   -0.5260    1.5130   -7.6388 H   0  0  0  0  0  0  0  0  0  0  0  0
   -0.2783    6.8487   -4.4037 H   0  0  0  0  0  0  0  0  0  0  0  0
   -0.0154    6.6032   -9.4594 H   0  0  0  0  0  0  0  0  0  0  0  0
    0.4982    9.8205   -8.3865 H   0  0  0  0  0  0  0  0  0  0  0  0
   -1.9770    9.6204   -9.3489 H   0  0  0  0  0  0  0  0  0  0  0  0
   -1.5529   12.1207   -8.6630 H   0  0  0  0  0  0  0  0  0  0  0  0
   -1.6903   12.2869   -6.0151 H   0  0  0  0  0  0  0  0  0  0  0  0
   -2.2007    9.8892   -5.0706 H   0  0  0  0  0  0  0  0  0  0  0  0
   -3.6354    9.7182   -7.2880 H   0  0  0  0  0  0  0  0  0  0  0  0
   -2.6552    8.2415   -7.1442 H   0  0  0  0  0  0  0  0  0  0  0  0
    0.3636    9.9825   -5.7893 H   0  0  0  0  0  0  0  0  0  0  0  0
  1  2  2  0  0  0  0
  2  3  1  0  0  0  0
  3  4  2  0  0  0  0
  3  5  1  0  0  0  0
  5  6  2  0  0  0  0
  6  7  1  0  0  0  0
  7  8  2  0  0  0  0
  8  9  1  0  0  0  0
  9 10  2  0  0  0  0
 10 11  1  0  0  0  0
 11 12  2  0  0  0  0
 12 13  1  0  0  0  0
 13 14  3  0  0  0  0
 12 15  1  0  0  0  0
 15 16  3  0  0  0  0
  8 17  1  0  0  0  0
 17 18  1  0  0  0  0
 18 19  1  0  0  0  0
 19 20  2  0  0  0  0
 20 21  1  0  0  0  0
 21 22  1  0  0  0  0
 21 23  1  0  0  0  0
  1 24  1  0  0  0  0
 24 25  2  0  0  0  0
 25 26  1  0  0  0  0
 26 27  2  0  0  0  0
 27 28  1  0  0  0  0
 28 29  1  0  0  0  0
 29 30  2  0  0  0  0
 29 31  1  0  0  0  0
 31 32  1  0  0  0  0
 32 33  1  0  0  0  0
 31 34  1  0  0  0  0
 34 35  2  0  0  0  0
 34 36  1  0  0  0  0
 27 37  1  0  0  0  0
 37 38  2  0  0  0  0
 38 39  1  0  0  0  0
 39 40  1  0  0  0  0
 40 41  2  0  0  0  0
 41 42  1  0  0  0  0
 42 43  2  0  0  0  0
 43 44  1  0  0  0  0
 44 45  1  0  0  0  0
 43 46  1  0  0  0  0
 46 47  2  0  0  0  0
 39 48  1  0  0  0  0
 48 49  2  0  0  0  0
 49 50  1  0  0  0  0
 50 51  2  0  0  0  0
 51 52  1  0  0  0  0
 52 53  1  0  0  0  0
 51 54  1  0  0  0  0
 54 55  2  0  0  0  0
 38 56  1  0  0  0  0
 56 57  1  0  0  0  0
 57 58  1  0  0  0  0
 58 59  2  0  0  0  0
 59 60  1  0  0  0  0
 60 61  1  0  0  0  0
 61 62  2  0  0  0  0
 62 63  1  0  0  0  0
 63 64  2  0  0  0  0
 64 65  1  0  0  0  0
 65 66  1  0  0  0  0
 64 67  1  0  0  0  0
 67 68  2  0  0  0  0
 60 69  1  0  0  0  0
 69 70  2  0  0  0  0
 70 71  1  0  0  0  0
 71 72  2  0  0  0  0
 72 73  1  0  0  0  0
 73 74  1  0  0  0  0
 72 75  1  0  0  0  0
 75 76  2  0  0  0  0
 59 77  1  0  0  0  0
 77 78  1  0  0  0  0
 58 79  1  0  0  0  0
 79 80  1  0  0  0  0
 80 81  1  0  0  0  0
 81 82  2  0  0  0  0
 82 83  1  0  0  0  0
 83 84  2  0  0  0  0
 83 85  1  0  0  0  0
 85 86  2  0  0  0  0
 86 87  1  0  0  0  0
 87 88  1  0  0  0  0
 86 89  1  0  0  0  0
 89 90  1  0  0  0  0
 90 91  1  0  0  0  0
 91 92  1  0  0  0  0
 90 93  2  0  0  0  0
 93 94  1  0  0  0  0
 94 95  2  0  0  0  0
 94 96  1  0  0  0  0
 81 97  1  0  0  0  0
 97 98  2  0  0  0  0
 98 99  1  0  0  0  0
 99100  2  0  0  0  0
 99101  1  0  0  0  0
101102  2  0  0  0  0
102103  1  0  0  0  0
103104  2  0  0  0  0
104105  1  0  0  0  0
105106  2  0  0  0  0
106107  1  0  0  0  0
107108  2  0  0  0  0
108109  1  0  0  0  0
109110  3  0  0  0  0
108111  1  0  0  0  0
111112  3  0  0  0  0
104113  1  0  0  0  0
113114  1  0  0  0  0
114115  1  0  0  0  0
115116  2  0  0  0  0
116117  1  0  0  0  0
117118  1  0  0  0  0
117119  1  0  0  0  0
 11  2  1  0  0  0  0
 23 17  1  0  0  0  0
 36 24  1  0  0  0  0
 78 37  1  0  0  0  0
 96 79  2  0  0  0  0
107 98  1  0  0  0  0
119113  1  0  0  0  0
 10  5  1  0  0  0  0
 22 18  1  0  0  0  0
 36 28  2  0  0  0  0
 47 40  1  0  0  0  0
 55 48  1  0  0  0  0
 77 56  2  0  0  0  0
 96 82  1  0  0  0  0
106101  1  0  0  0  0
118114  1  0  0  0  0
 23  7  1  0  0  0  0
 68 61  1  0  0  0  0
 76 69  1  0  0  0  0
 93 85  1  0  0  0  0
119103  1  0  0  0  0
  1120  1  0  0  0  0
  6121  1  0  0  0  0
  9122  1  0  0  0  0
 17123  1  0  0  0  0
 18124  1  0  0  0  0
 19125  1  0  0  0  0
 20126  1  0  0  0  0
 21127  1  0  0  0  0
 22128  1  0  0  0  0
 22129  1  0  0  0  0
 23130  1  0  0  0  0
 32131  1  0  0  0  0
 32132  1  0  0  0  0
 33133  1  0  0  0  0
 33134  1  0  0  0  0
 33135  1  0  0  0  0
 41136  1  0  0  0  0
 42137  1  0  0  0  0
 45138  1  0  0  0  0
 45139  1  0  0  0  0
 45140  1  0  0  0  0
 46141  1  0  0  0  0
 47142  1  0  0  0  0
 49143  1  0  0  0  0
 50144  1  0  0  0  0
 53145  1  0  0  0  0
 53146  1  0  0  0  0
 53147  1  0  0  0  0
 54148  1  0  0  0  0
 55149  1  0  0  0  0
 62150  1  0  0  0  0
 63151  1  0  0  0  0
 66152  1  0  0  0  0
 66153  1  0  0  0  0
 66154  1  0  0  0  0
 67155  1  0  0  0  0
 68156  1  0  0  0  0
 70157  1  0  0  0  0
 71158  1  0  0  0  0
 74159  1  0  0  0  0
 74160  1  0  0  0  0
 74161  1  0  0  0  0
 75162  1  0  0  0  0
 76163  1  0  0  0  0
 87164  1  0  0  0  0
 87165  1  0  0  0  0
 88166  1  0  0  0  0
 88167  1  0  0  0  0
 88168  1  0  0  0  0
 91169  1  0  0  0  0
 91170  1  0  0  0  0
 92171  1  0  0  0  0
 92172  1  0  0  0  0
 92173  1  0  0  0  0
 97174  1  0  0  0  0
102175  1  0  0  0  0
105176  1  0  0  0  0
113177  1  0  0  0  0
114178  1  0  0  0  0
115179  1  0  0  0  0
116180  1  0  0  0  0
117181  1  0  0  0  0
118182  1  0  0  0  0
118183  1  0  0  0  0
119184  1  0  0  0  0
M  END
