
  xtb     02062217393D
 energy: -383.340340200096 gnorm: 0.000868700626 xtb: 6.4.1 (unknown)
226246  0     0  0            999 V2000
    8.2368   -0.4823   -2.7057 C   0  0  0  0  0  0  0  0  0  0  0  0
    8.8300   -0.3114   -3.9222 C   0  0  0  0  0  0  0  0  0  0  0  0
    8.2569    0.4018   -5.0785 C   0  0  0  0  0  0  0  0  0  0  0  0
    7.1915    0.9840   -5.1381 O   0  0  0  0  0  0  0  0  0  0  0  0
    9.2411    0.2739   -6.1660 C   0  0  0  0  0  0  0  0  0  0  0  0
    9.1230    0.7755   -7.4607 C   0  0  0  0  0  0  0  0  0  0  0  0
   10.1955    0.4901   -8.2705 C   0  0  0  0  0  0  0  0  0  0  0  0
   11.3071   -0.2379   -7.8240 C   0  0  0  0  0  0  0  0  0  0  0  0
   11.4390   -0.7322   -6.5484 C   0  0  0  0  0  0  0  0  0  0  0  0
   10.3559   -0.4566   -5.7066 C   0  0  0  0  0  0  0  0  0  0  0  0
   10.1349   -0.8203   -4.3090 C   0  0  0  0  0  0  0  0  0  0  0  0
   11.0164   -1.5152   -3.5210 C   0  0  0  0  0  0  0  0  0  0  0  0
   10.8224   -1.8695   -2.1691 C   0  0  0  0  0  0  0  0  0  0  0  0
   10.7552   -2.2061   -1.0722 N   0  0  0  0  0  0  0  0  0  0  0  0
   12.2761   -1.9833   -3.9517 C   0  0  0  0  0  0  0  0  0  0  0  0
   13.3118   -2.3967   -4.2251 N   0  0  0  0  0  0  0  0  0  0  0  0
   11.9950   -0.1630   -9.1643 C   0  0  0  0  0  0  0  0  0  0  0  0
   11.9423   -1.4355  -10.0365 C   0  0  0  0  0  0  0  0  0  0  0  0
   12.2516   -0.9329  -11.4283 C   0  0  0  0  0  0  0  0  0  0  0  0
   11.1999   -0.2431  -11.8512 C   0  0  0  0  0  0  0  0  0  0  0  0
   10.1620   -0.2679  -10.7523 C   0  0  0  0  0  0  0  0  0  0  0  0
   10.4304   -1.6607  -10.1677 C   0  0  0  0  0  0  0  0  0  0  0  0
   10.7561    0.6490   -9.6617 C   0  0  0  0  0  0  0  0  0  0  0  0
    6.9745   -0.0659   -2.2318 C   0  0  0  0  0  0  0  0  0  0  0  0
    6.5597   -0.3751   -0.9497 C   0  0  0  0  0  0  0  0  0  0  0  0
    5.2703    0.0770   -0.6338 C   0  0  0  0  0  0  0  0  0  0  0  0
    4.5344   -0.1254    0.5628 C   0  0  0  0  0  0  0  0  0  0  0  0
    5.1357   -0.7138    1.7372 C   0  0  0  0  0  0  0  0  0  0  0  0
    4.5443   -1.4909    2.7002 C   0  0  0  0  0  0  0  0  0  0  0  0
    5.4511   -1.8909    3.6982 C   0  0  0  0  0  0  0  0  0  0  0  0
    4.9879   -2.9235    4.9908 Cl  0  0  0  0  0  0  0  0  0  0  0  0
    6.7255   -1.4185    3.5576 C   0  0  0  0  0  0  0  0  0  0  0  0
    8.2683   -1.8170    4.5798 Si  0  0  0  0  0  4  0  0  0  0  0  0
    9.6809   -0.8213    3.7661 C   0  0  0  0  0  0  0  0  0  0  0  0
   11.0194   -0.9524    4.4849 C   0  0  0  0  0  0  0  0  0  0  0  0
    7.9617   -1.2904    6.3930 C   0  0  0  0  0  0  0  0  0  0  0  0
    8.8009   -2.0723    7.3986 C   0  0  0  0  0  0  0  0  0  0  0  0
    8.5541   -3.7027    4.4068 C   0  0  0  0  0  0  0  0  0  0  0  0
    8.5301   -4.1832    2.9575 C   0  0  0  0  0  0  0  0  0  0  0  0
    6.8151   -0.4561    2.1310 S   0  0  0  0  0  0  0  0  0  0  0  0
    3.2000    0.2604    0.5257 C   0  0  0  0  0  0  0  0  0  0  0  0
    2.6114    0.9086   -0.5912 C   0  0  0  0  0  0  0  0  0  0  0  0
    3.3645    1.1743   -1.7477 C   0  0  0  0  0  0  0  0  0  0  0  0
    2.7748    1.8488   -2.8876 C   0  0  0  0  0  0  0  0  0  0  0  0
    3.6191    3.1292   -3.7028 S   0  0  0  0  0  0  0  0  0  0  0  0
    2.3091    3.4121   -4.7925 C   0  0  0  0  0  0  0  0  0  0  0  0
    2.3798    4.8057   -6.0698 Si  0  0  0  0  0  4  0  0  0  0  0  0
    1.3264    6.2438   -5.3690 C   0  0  0  0  0  0  0  0  0  0  0  0
    1.6986    6.6022   -3.9326 C   0  0  0  0  0  0  0  0  0  0  0  0
    1.6735    4.1748   -7.7314 C   0  0  0  0  0  0  0  0  0  0  0  0
    1.9882    5.0860   -8.9128 C   0  0  0  0  0  0  0  0  0  0  0  0
    4.2275    5.2849   -6.2055 C   0  0  0  0  0  0  0  0  0  0  0  0
    4.4725    6.7098   -6.6927 C   0  0  0  0  0  0  0  0  0  0  0  0
    1.2956    2.5407   -4.5131 C   0  0  0  0  0  0  0  0  0  0  0  0
    1.5441    1.6510   -3.4506 C   0  0  0  0  0  0  0  0  0  0  0  0
   -0.1919    2.5394   -5.3678 Cl  0  0  0  0  0  0  0  0  0  0  0  0
    4.6837    0.7364   -1.7461 C   0  0  0  0  0  0  0  0  0  0  0  0
    5.7566    0.8275   -3.1105 S   0  0  0  0  0  0  0  0  0  0  0  0
    1.2371    1.1692   -0.3884 C   0  0  0  0  0  0  0  0  0  0  0  0
    0.7507    0.6690    0.7812 C   0  0  0  0  0  0  0  0  0  0  0  0
    2.0213    0.0176    1.7910 S   0  0  0  0  0  0  0  0  0  0  0  0
   -0.6441    0.5715    1.0936 C   0  0  0  0  0  0  0  0  0  0  0  0
   -1.3674   -0.5304    1.5221 C   0  0  0  0  0  0  0  0  0  0  0  0
   -0.8640   -1.7770    1.8558 N   0  0  0  0  0  0  0  0  0  0  0  0
    0.2200   -2.3217    1.1602 C   0  0  0  0  0  0  0  0  0  0  0  0
    1.1619   -3.1146    1.8113 C   0  0  0  0  0  0  0  0  0  0  0  0
    2.3141   -3.5180    1.1626 C   0  0  0  0  0  0  0  0  0  0  0  0
    2.5583   -3.1111   -0.1421 C   0  0  0  0  0  0  0  0  0  0  0  0
    4.0631   -3.4112   -1.0152 S   0  0  0  0  0  0  0  0  0  0  0  0
    5.1631   -4.1219    0.2419 C   0  0  0  0  0  0  0  0  0  0  0  0
    1.5744   -2.4009   -0.8275 C   0  0  0  0  0  0  0  0  0  0  0  0
    0.4110   -2.0297   -0.1931 C   0  0  0  0  0  0  0  0  0  0  0  0
   -1.4855   -2.4659    2.9093 C   0  0  0  0  0  0  0  0  0  0  0  0
   -1.9167   -1.7675    4.0339 C   0  0  0  0  0  0  0  0  0  0  0  0
   -2.5678   -2.4161    5.0644 C   0  0  0  0  0  0  0  0  0  0  0  0
   -2.7916   -3.7837    4.9898 C   0  0  0  0  0  0  0  0  0  0  0  0
   -3.6108   -4.7202    6.2389 S   0  0  0  0  0  0  0  0  0  0  0  0
   -4.0492   -3.4865    7.4963 C   0  0  0  0  0  0  0  0  0  0  0  0
   -2.3474   -4.4894    3.8716 C   0  0  0  0  0  0  0  0  0  0  0  0
   -1.7047   -3.8413    2.8412 C   0  0  0  0  0  0  0  0  0  0  0  0
   -2.7585   -0.2508    1.4991 C   0  0  0  0  0  0  0  0  0  0  0  0
   -4.1595   -1.1673    1.9058 S   0  0  0  0  0  0  0  0  0  0  0  0
   -5.1989    0.1632    1.4029 C   0  0  0  0  0  0  0  0  0  0  0  0
   -4.4733    1.2700    0.9589 C   0  0  0  0  0  0  0  0  0  0  0  0
   -4.9821    2.4911    0.5732 N   0  0  0  0  0  0  0  0  0  0  0  0
   -6.1995    2.9762    1.0665 C   0  0  0  0  0  0  0  0  0  0  0  0
   -6.5855    2.7331    2.3836 C   0  0  0  0  0  0  0  0  0  0  0  0
   -7.8622    3.0395    2.8119 C   0  0  0  0  0  0  0  0  0  0  0  0
   -8.7678    3.6245    1.9348 C   0  0  0  0  0  0  0  0  0  0  0  0
  -10.4623    3.9348    2.3211 S   0  0  0  0  0  0  0  0  0  0  0  0
  -10.7136    3.0939    3.9101 C   0  0  0  0  0  0  0  0  0  0  0  0
   -8.3444    3.9833    0.6566 C   0  0  0  0  0  0  0  0  0  0  0  0
   -7.0806    3.6542    0.2217 C   0  0  0  0  0  0  0  0  0  0  0  0
   -4.2838    3.2104   -0.4150 C   0  0  0  0  0  0  0  0  0  0  0  0
   -3.7372    2.5446   -1.5134 C   0  0  0  0  0  0  0  0  0  0  0  0
   -3.0152    3.2388   -2.4568 C   0  0  0  0  0  0  0  0  0  0  0  0
   -2.8356    4.6161   -2.3346 C   0  0  0  0  0  0  0  0  0  0  0  0
   -1.8721    5.3889   -3.5891 S   0  0  0  0  0  0  0  0  0  0  0  0
   -2.0463    7.1629   -3.2422 C   0  0  0  0  0  0  0  0  0  0  0  0
   -3.4040    5.2859   -1.2579 C   0  0  0  0  0  0  0  0  0  0  0  0
   -4.1199    4.5866   -0.3057 C   0  0  0  0  0  0  0  0  0  0  0  0
   -3.0829    1.0085    1.0257 C   0  0  0  0  0  0  0  0  0  0  0  0
   -1.6701    1.9157    0.6158 S   0  0  0  0  0  0  0  0  0  0  0  0
   -6.6143    0.0290    1.4333 C   0  0  0  0  0  0  0  0  0  0  0  0
   -7.5691    0.5593    0.0813 S   0  0  0  0  0  0  0  0  0  0  0  0
   -9.0954    0.3276    0.9230 C   0  0  0  0  0  0  0  0  0  0  0  0
   -8.8303   -0.2560    2.1604 C   0  0  0  0  0  0  0  0  0  0  0  0
   -9.8349   -0.6257    3.5069 S   0  0  0  0  0  0  0  0  0  0  0  0
   -8.4213   -0.9993    4.4891 C   0  0  0  0  0  0  0  0  0  0  0  0
   -8.6017   -1.4678    5.8348 C   0  0  0  0  0  0  0  0  0  0  0  0
   -8.0374   -2.5776    6.4312 C   0  0  0  0  0  0  0  0  0  0  0  0
   -8.4438   -2.7655    7.7619 C   0  0  0  0  0  0  0  0  0  0  0  0
   -9.3282   -1.8043    8.1746 C   0  0  0  0  0  0  0  0  0  0  0  0
   -9.9953   -1.6564    9.4703 C   0  0  0  0  0  0  0  0  0  0  0  0
  -10.7840   -0.7789    9.7232 O   0  0  0  0  0  0  0  0  0  0  0  0
   -9.6066   -2.6055   10.3297 O   0  0  0  0  0  0  0  0  0  0  0  0
  -10.2170   -2.5863   11.6224 C   0  0  0  0  0  0  0  0  0  0  0  0
  -11.5734   -3.2761   11.6053 C   0  0  0  0  0  0  0  0  0  0  0  0
   -9.6726   -0.6568    6.9299 S   0  0  0  0  0  0  0  0  0  0  0  0
   -7.0218   -3.6843    5.6006 Cl  0  0  0  0  0  0  0  0  0  0  0  0
   -7.2509   -0.8358    3.8040 C   0  0  0  0  0  0  0  0  0  0  0  0
   -7.4473   -0.4144    2.4576 C   0  0  0  0  0  0  0  0  0  0  0  0
   -5.7249   -0.9752    4.5674 Cl  0  0  0  0  0  0  0  0  0  0  0  0
  -10.2235    0.9080    0.3331 C   0  0  0  0  0  0  0  0  0  0  0  0
  -11.5440    0.8087    0.7046 C   0  0  0  0  0  0  0  0  0  0  0  0
  -12.1156   -0.2398    1.5487 C   0  0  0  0  0  0  0  0  0  0  0  0
  -11.5476   -1.2377    1.9731 O   0  0  0  0  0  0  0  0  0  0  0  0
  -13.5483    0.0753    1.6836 C   0  0  0  0  0  0  0  0  0  0  0  0
  -14.5148   -0.5900    2.4108 C   0  0  0  0  0  0  0  0  0  0  0  0
  -15.8254   -0.1246    2.3906 C   0  0  0  0  0  0  0  0  0  0  0  0
  -16.9230   -0.7904    3.1542 C   0  0  0  0  0  0  0  0  0  0  0  0
  -16.0950    1.0067    1.6190 C   0  0  0  0  0  0  0  0  0  0  0  0
  -17.3616    1.4649    1.5930 F   0  0  0  0  0  0  0  0  0  0  0  0
  -15.1445    1.6885    0.8757 C   0  0  0  0  0  0  0  0  0  0  0  0
  -13.8449    1.2098    0.9093 C   0  0  0  0  0  0  0  0  0  0  0  0
  -12.6206    1.6705    0.2558 C   0  0  0  0  0  0  0  0  0  0  0  0
  -12.5375    2.7405   -0.5950 C   0  0  0  0  0  0  0  0  0  0  0  0
  -11.3675    3.2060   -1.2270 C   0  0  0  0  0  0  0  0  0  0  0  0
  -10.4678    3.6543   -1.7832 N   0  0  0  0  0  0  0  0  0  0  0  0
  -13.6396    3.5375   -0.9718 C   0  0  0  0  0  0  0  0  0  0  0  0
  -14.4908    4.2208   -1.3267 N   0  0  0  0  0  0  0  0  0  0  0  0
    8.7961   -1.0357   -1.9614 H   0  0  0  0  0  0  0  0  0  0  0  0
    8.2491    1.3328   -7.7597 H   0  0  0  0  0  0  0  0  0  0  0  0
   12.3031   -1.2863   -6.2228 H   0  0  0  0  0  0  0  0  0  0  0  0
   12.9713    0.3177   -9.1713 H   0  0  0  0  0  0  0  0  0  0  0  0
   12.5430   -2.2633   -9.6700 H   0  0  0  0  0  0  0  0  0  0  0  0
   13.1934   -1.0794  -11.9235 H   0  0  0  0  0  0  0  0  0  0  0  0
   11.0878    0.3018  -12.7701 H   0  0  0  0  0  0  0  0  0  0  0  0
    9.1404   -0.0325  -11.0384 H   0  0  0  0  0  0  0  0  0  0  0  0
    9.9255   -1.8505   -9.2223 H   0  0  0  0  0  0  0  0  0  0  0  0
   10.1928   -2.4554  -10.8729 H   0  0  0  0  0  0  0  0  0  0  0  0
   10.9055    1.6724  -10.0006 H   0  0  0  0  0  0  0  0  0  0  0  0
    7.1815   -0.9476   -0.2864 H   0  0  0  0  0  0  0  0  0  0  0  0
    3.5185   -1.8072    2.6813 H   0  0  0  0  0  0  0  0  0  0  0  0
    9.4054    0.2340    3.7228 H   0  0  0  0  0  0  0  0  0  0  0  0
    9.8048   -1.1437    2.7312 H   0  0  0  0  0  0  0  0  0  0  0  0
   11.7933   -0.3930    3.9628 H   0  0  0  0  0  0  0  0  0  0  0  0
   11.3300   -1.9931    4.5339 H   0  0  0  0  0  0  0  0  0  0  0  0
   10.9504   -0.5676    5.4994 H   0  0  0  0  0  0  0  0  0  0  0  0
    6.9089   -1.4166    6.6457 H   0  0  0  0  0  0  0  0  0  0  0  0
    8.1777   -0.2264    6.5019 H   0  0  0  0  0  0  0  0  0  0  0  0
    8.5593   -3.1311    7.3568 H   0  0  0  0  0  0  0  0  0  0  0  0
    9.8617   -1.9592    7.1912 H   0  0  0  0  0  0  0  0  0  0  0  0
    8.6130   -1.7207    8.4116 H   0  0  0  0  0  0  0  0  0  0  0  0
    7.7927   -4.2447    4.9692 H   0  0  0  0  0  0  0  0  0  0  0  0
    9.5132   -3.9676    4.8527 H   0  0  0  0  0  0  0  0  0  0  0  0
    9.3002   -3.6894    2.3708 H   0  0  0  0  0  0  0  0  0  0  0  0
    8.6996   -5.2570    2.9060 H   0  0  0  0  0  0  0  0  0  0  0  0
    7.5659   -3.9697    2.5008 H   0  0  0  0  0  0  0  0  0  0  0  0
    0.2706    5.9701   -5.3988 H   0  0  0  0  0  0  0  0  0  0  0  0
    1.4385    7.1258   -6.0007 H   0  0  0  0  0  0  0  0  0  0  0  0
    1.4930    5.7643   -3.2711 H   0  0  0  0  0  0  0  0  0  0  0  0
    2.7553    6.8442   -3.8523 H   0  0  0  0  0  0  0  0  0  0  0  0
    1.1261    7.4603   -3.5850 H   0  0  0  0  0  0  0  0  0  0  0  0
    0.5918    4.0703   -7.6530 H   0  0  0  0  0  0  0  0  0  0  0  0
    2.0653    3.1783   -7.9405 H   0  0  0  0  0  0  0  0  0  0  0  0
    1.6049    6.0882   -8.7374 H   0  0  0  0  0  0  0  0  0  0  0  0
    3.0610    5.1510   -9.0739 H   0  0  0  0  0  0  0  0  0  0  0  0
    1.5324    4.7039   -9.8247 H   0  0  0  0  0  0  0  0  0  0  0  0
    4.7029    5.1627   -5.2308 H   0  0  0  0  0  0  0  0  0  0  0  0
    4.7348    4.5894   -6.8760 H   0  0  0  0  0  0  0  0  0  0  0  0
    4.0296    6.8695   -7.6722 H   0  0  0  0  0  0  0  0  0  0  0  0
    4.0391    7.4315   -6.0052 H   0  0  0  0  0  0  0  0  0  0  0  0
    5.5398    6.9120   -6.7658 H   0  0  0  0  0  0  0  0  0  0  0  0
    0.8589    0.8766   -3.1586 H   0  0  0  0  0  0  0  0  0  0  0  0
    0.6067    1.6577   -1.1076 H   0  0  0  0  0  0  0  0  0  0  0  0
    1.0084   -3.3860    2.8451 H   0  0  0  0  0  0  0  0  0  0  0  0
    3.0268   -4.1242    1.6982 H   0  0  0  0  0  0  0  0  0  0  0  0
    6.1375   -4.1966   -0.2310 H   0  0  0  0  0  0  0  0  0  0  0  0
    4.8174   -5.1108    0.5284 H   0  0  0  0  0  0  0  0  0  0  0  0
    5.2154   -3.4572    1.0993 H   0  0  0  0  0  0  0  0  0  0  0  0
    1.7436   -2.1333   -1.8594 H   0  0  0  0  0  0  0  0  0  0  0  0
   -0.3457   -1.4819   -0.7343 H   0  0  0  0  0  0  0  0  0  0  0  0
   -1.7358   -0.7045    4.1038 H   0  0  0  0  0  0  0  0  0  0  0  0
   -2.8888   -1.8420    5.9183 H   0  0  0  0  0  0  0  0  0  0  0  0
   -4.6942   -2.7274    7.0636 H   0  0  0  0  0  0  0  0  0  0  0  0
   -4.5890   -4.0331    8.2633 H   0  0  0  0  0  0  0  0  0  0  0  0
   -3.1489   -3.0499    7.9192 H   0  0  0  0  0  0  0  0  0  0  0  0
   -2.5248   -5.5527    3.8200 H   0  0  0  0  0  0  0  0  0  0  0  0
   -1.3760   -4.3920    1.9726 H   0  0  0  0  0  0  0  0  0  0  0  0
   -5.8916    2.2705    3.0699 H   0  0  0  0  0  0  0  0  0  0  0  0
   -8.1398    2.8076    3.8277 H   0  0  0  0  0  0  0  0  0  0  0  0
  -10.1439    3.5871    4.6919 H   0  0  0  0  0  0  0  0  0  0  0  0
  -10.4428    2.0452    3.8227 H   0  0  0  0  0  0  0  0  0  0  0  0
  -11.7747    3.1832    4.1208 H   0  0  0  0  0  0  0  0  0  0  0  0
   -9.0325    4.4758   -0.0120 H   0  0  0  0  0  0  0  0  0  0  0  0
   -6.7854    3.8802   -0.7908 H   0  0  0  0  0  0  0  0  0  0  0  0
   -3.8893    1.4810   -1.6227 H   0  0  0  0  0  0  0  0  0  0  0  0
   -2.5852    2.7274   -3.3043 H   0  0  0  0  0  0  0  0  0  0  0  0
   -3.0978    7.4340   -3.2297 H   0  0  0  0  0  0  0  0  0  0  0  0
   -1.5618    7.4105   -2.3022 H   0  0  0  0  0  0  0  0  0  0  0  0
   -1.5447    7.6714   -4.0595 H   0  0  0  0  0  0  0  0  0  0  0  0
   -3.2864    6.3507   -1.1394 H   0  0  0  0  0  0  0  0  0  0  0  0
   -4.5500    5.1091    0.5358 H   0  0  0  0  0  0  0  0  0  0  0  0
   -8.1147   -3.5765    8.3841 H   0  0  0  0  0  0  0  0  0  0  0  0
   -9.5142   -3.1114   12.2723 H   0  0  0  0  0  0  0  0  0  0  0  0
  -10.3247   -1.5466   11.9481 H   0  0  0  0  0  0  0  0  0  0  0  0
  -11.9807   -3.3012   12.6116 H   0  0  0  0  0  0  0  0  0  0  0  0
  -11.4740   -4.2938   11.2355 H   0  0  0  0  0  0  0  0  0  0  0  0
  -12.2589   -2.7306   10.9616 H   0  0  0  0  0  0  0  0  0  0  0  0
   -9.9894    1.5593   -0.4993 H   0  0  0  0  0  0  0  0  0  0  0  0
  -14.2472   -1.4609    2.9895 H   0  0  0  0  0  0  0  0  0  0  0  0
  -16.5492   -1.6564    3.6925 H   0  0  0  0  0  0  0  0  0  0  0  0
  -17.7147   -1.1056    2.4753 H   0  0  0  0  0  0  0  0  0  0  0  0
  -17.3650   -0.0917    3.8639 H   0  0  0  0  0  0  0  0  0  0  0  0
  -15.4426    2.5521    0.3049 H   0  0  0  0  0  0  0  0  0  0  0  0
  1  2  2  0  0  0  0
  2  3  1  0  0  0  0
  3  4  2  0  0  0  0
  3  5  1  0  0  0  0
  5  6  2  0  0  0  0
  6  7  1  0  0  0  0
  7  8  2  0  0  0  0
  8  9  1  0  0  0  0
  9 10  2  0  0  0  0
 10 11  1  0  0  0  0
 11 12  2  0  0  0  0
 12 13  1  0  0  0  0
 13 14  3  0  0  0  0
 12 15  1  0  0  0  0
 15 16  3  0  0  0  0
  8 17  1  0  0  0  0
 17 18  1  0  0  0  0
 18 19  1  0  0  0  0
 19 20  2  0  0  0  0
 20 21  1  0  0  0  0
 21 22  1  0  0  0  0
 21 23  1  0  0  0  0
  1 24  1  0  0  0  0
 24 25  2  0  0  0  0
 25 26  1  0  0  0  0
 26 27  2  0  0  0  0
 27 28  1  0  0  0  0
 28 29  2  0  0  0  0
 29 30  1  0  0  0  0
 30 31  1  0  0  0  0
 30 32  2  0  0  0  0
 32 33  1  0  0  0  0
 33 34  1  0  0  0  0
 34 35  1  0  0  0  0
 33 36  1  0  0  0  0
 36 37  1  0  0  0  0
 33 38  1  0  0  0  0
 38 39  1  0  0  0  0
 32 40  1  0  0  0  0
 27 41  1  0  0  0  0
 41 42  2  0  0  0  0
 42 43  1  0  0  0  0
 43 44  1  0  0  0  0
 44 45  1  0  0  0  0
 45 46  1  0  0  0  0
 46 47  1  0  0  0  0
 47 48  1  0  0  0  0
 48 49  1  0  0  0  0
 47 50  1  0  0  0  0
 50 51  1  0  0  0  0
 47 52  1  0  0  0  0
 52 53  1  0  0  0  0
 46 54  2  0  0  0  0
 54 55  1  0  0  0  0
 54 56  1  0  0  0  0
 43 57  2  0  0  0  0
 57 58  1  0  0  0  0
 42 59  1  0  0  0  0
 59 60  2  0  0  0  0
 60 61  1  0  0  0  0
 60 62  1  0  0  0  0
 62 63  2  0  0  0  0
 63 64  1  0  0  0  0
 64 65  1  0  0  0  0
 65 66  2  0  0  0  0
 66 67  1  0  0  0  0
 67 68  2  0  0  0  0
 68 69  1  0  0  0  0
 69 70  1  0  0  0  0
 68 71  1  0  0  0  0
 71 72  2  0  0  0  0
 64 73  1  0  0  0  0
 73 74  2  0  0  0  0
 74 75  1  0  0  0  0
 75 76  2  0  0  0  0
 76 77  1  0  0  0  0
 77 78  1  0  0  0  0
 76 79  1  0  0  0  0
 79 80  2  0  0  0  0
 63 81  1  0  0  0  0
 81 82  1  0  0  0  0
 82 83  1  0  0  0  0
 83 84  2  0  0  0  0
 84 85  1  0  0  0  0
 85 86  1  0  0  0  0
 86 87  2  0  0  0  0
 87 88  1  0  0  0  0
 88 89  2  0  0  0  0
 89 90  1  0  0  0  0
 90 91  1  0  0  0  0
 89 92  1  0  0  0  0
 92 93  2  0  0  0  0
 85 94  1  0  0  0  0
 94 95  2  0  0  0  0
 95 96  1  0  0  0  0
 96 97  2  0  0  0  0
 97 98  1  0  0  0  0
 98 99  1  0  0  0  0
 97100  1  0  0  0  0
100101  2  0  0  0  0
 84102  1  0  0  0  0
102103  1  0  0  0  0
 83104  1  0  0  0  0
104105  1  0  0  0  0
105106  1  0  0  0  0
106107  2  0  0  0  0
107108  1  0  0  0  0
108109  1  0  0  0  0
109110  1  0  0  0  0
110111  2  0  0  0  0
111112  1  0  0  0  0
112113  2  0  0  0  0
113114  1  0  0  0  0
114115  2  0  0  0  0
114116  1  0  0  0  0
116117  1  0  0  0  0
117118  1  0  0  0  0
113119  1  0  0  0  0
111120  1  0  0  0  0
109121  2  0  0  0  0
121122  1  0  0  0  0
121123  1  0  0  0  0
106124  1  0  0  0  0
124125  2  0  0  0  0
125126  1  0  0  0  0
126127  2  0  0  0  0
126128  1  0  0  0  0
128129  2  0  0  0  0
129130  1  0  0  0  0
130131  1  0  0  0  0
130132  2  0  0  0  0
132133  1  0  0  0  0
132134  1  0  0  0  0
134135  2  0  0  0  0
135136  1  0  0  0  0
136137  2  0  0  0  0
137138  1  0  0  0  0
138139  3  0  0  0  0
137140  1  0  0  0  0
140141  3  0  0  0  0
 11  2  1  0  0  0  0
 23 17  1  0  0  0  0
 58 24  1  0  0  0  0
103 62  1  0  0  0  0
122104  2  0  0  0  0
136125  1  0  0  0  0
 10  5  1  0  0  0  0
 22 18  1  0  0  0  0
 57 26  1  0  0  0  0
 72 65  1  0  0  0  0
 80 73  1  0  0  0  0
102 81  2  0  0  0  0
122107  1  0  0  0  0
135128  1  0  0  0  0
 23  7  1  0  0  0  0
 40 28  1  0  0  0  0
 61 41  1  0  0  0  0
 93 86  1  0  0  0  0
101 94  1  0  0  0  0
119110  1  0  0  0  0
 55 44  2  0  0  0  0
  1142  1  0  0  0  0
  6143  1  0  0  0  0
  9144  1  0  0  0  0
 17145  1  0  0  0  0
 18146  1  0  0  0  0
 19147  1  0  0  0  0
 20148  1  0  0  0  0
 21149  1  0  0  0  0
 22150  1  0  0  0  0
 22151  1  0  0  0  0
 23152  1  0  0  0  0
 25153  1  0  0  0  0
 29154  1  0  0  0  0
 34155  1  0  0  0  0
 34156  1  0  0  0  0
 35157  1  0  0  0  0
 35158  1  0  0  0  0
 35159  1  0  0  0  0
 36160  1  0  0  0  0
 36161  1  0  0  0  0
 37162  1  0  0  0  0
 37163  1  0  0  0  0
 37164  1  0  0  0  0
 38165  1  0  0  0  0
 38166  1  0  0  0  0
 39167  1  0  0  0  0
 39168  1  0  0  0  0
 39169  1  0  0  0  0
 48170  1  0  0  0  0
 48171  1  0  0  0  0
 49172  1  0  0  0  0
 49173  1  0  0  0  0
 49174  1  0  0  0  0
 50175  1  0  0  0  0
 50176  1  0  0  0  0
 51177  1  0  0  0  0
 51178  1  0  0  0  0
 51179  1  0  0  0  0
 52180  1  0  0  0  0
 52181  1  0  0  0  0
 53182  1  0  0  0  0
 53183  1  0  0  0  0
 53184  1  0  0  0  0
 55185  1  0  0  0  0
 59186  1  0  0  0  0
 66187  1  0  0  0  0
 67188  1  0  0  0  0
 70189  1  0  0  0  0
 70190  1  0  0  0  0
 70191  1  0  0  0  0
 71192  1  0  0  0  0
 72193  1  0  0  0  0
 74194  1  0  0  0  0
 75195  1  0  0  0  0
 78196  1  0  0  0  0
 78197  1  0  0  0  0
 78198  1  0  0  0  0
 79199  1  0  0  0  0
 80200  1  0  0  0  0
 87201  1  0  0  0  0
 88202  1  0  0  0  0
 91203  1  0  0  0  0
 91204  1  0  0  0  0
 91205  1  0  0  0  0
 92206  1  0  0  0  0
 93207  1  0  0  0  0
 95208  1  0  0  0  0
 96209  1  0  0  0  0
 99210  1  0  0  0  0
 99211  1  0  0  0  0
 99212  1  0  0  0  0
100213  1  0  0  0  0
101214  1  0  0  0  0
112215  1  0  0  0  0
117216  1  0  0  0  0
117217  1  0  0  0  0
118218  1  0  0  0  0
118219  1  0  0  0  0
118220  1  0  0  0  0
124221  1  0  0  0  0
129222  1  0  0  0  0
131223  1  0  0  0  0
131224  1  0  0  0  0
131225  1  0  0  0  0
134226  1  0  0  0  0
M  END
