174

C         -1.79140       -1.32780      -10.21040
C         -0.83410       -0.95390      -11.11730
C          0.36600       -0.16390      -10.82840
O          0.68990        0.34000       -9.76440
C          1.14460       -0.11680      -12.07600
C          2.37730        0.50280      -12.27110
C          2.87330        0.37050      -13.54550
C          2.19620       -0.33370      -14.54990
C          0.98060       -0.95040      -14.36980
C          0.45280       -0.82180      -13.08130
C         -0.79760       -1.33060      -12.51760
C         -1.75860       -2.01420      -13.21760
C         -2.98660       -2.47790      -12.70040
N         -4.01000       -2.88130      -12.36840
C         -1.66810       -2.34170      -14.58680
N         -1.66340       -2.64070      -15.69560
C          3.26940       -0.06270      -15.57490
C          2.96340        1.03120      -16.61950
C          4.32450        1.40940      -17.15740
C          4.96200        2.08090      -16.20680
C          4.04240        2.16740      -15.01000
C          2.68690        2.24610      -15.72420
C          4.02200        0.72660      -14.45590
C         -1.91860       -1.04130       -8.84350
S         -0.85470       -0.02440       -7.87560
C         -1.78420       -0.36510       -6.46890
C         -1.64600       -0.06800       -5.11160
C         -2.58800       -0.71260       -4.34280
S         -3.73420       -1.62950       -5.30850
C         -2.86400       -1.21950       -6.74780
C         -2.94990       -1.58660       -8.07670
C         -2.59790       -0.82780       -2.92030
C         -1.49650       -1.05060       -2.10450
N         -0.18760       -1.21810       -2.52280
C          0.10750       -1.83570       -3.74670
C         -0.65710       -2.90660       -4.21190
C         -0.44580       -3.41290       -5.47390
C          0.54560       -2.87780       -6.29560
S          0.65920       -3.53870       -7.92750
C          1.96560       -2.54880       -8.70510
C          1.36040       -1.86610       -5.80690
C          1.13840       -1.34950       -4.54540
C          0.84290       -0.78550       -1.67730
C          2.00220       -1.54530       -1.51820
C          2.97540       -1.14450       -0.63160
C          2.81630        0.01960        0.11920
S          4.10470        0.39800        1.26680
C          3.49290        1.86780        2.14100
C          1.68420        0.79970       -0.06490
C          0.71050        0.40080       -0.96000
C         -1.89780       -1.16540       -0.75060
S         -1.04490       -1.41040        0.72830
C         -2.55110       -1.39360        1.63100
C         -3.65150       -1.16890        0.82270
N         -4.95800       -0.98420        1.24830
C         -6.00530       -1.43210        0.43170
C         -5.88540       -2.62060       -0.29030
C         -6.90730       -3.04160       -1.11090
C         -8.07850       -2.29550       -1.22130
S         -9.31370       -2.93710       -2.30700
C        -10.69840       -1.77740       -2.13400
C         -8.20990       -1.12150       -0.49150
C         -7.18030       -0.69390        0.32340
C         -5.22970       -0.40960        2.49790
C         -4.43570        0.61820        2.99900
C         -4.59910        1.07200        4.29260
C         -5.57690        0.51540        5.10600
S         -5.80510        0.93560        6.80320
C         -4.32230        1.89100        7.21220
C         -6.43780       -0.44350        4.57560
C         -6.26690       -0.90390        3.29040
C         -3.26180       -1.06320       -0.54110
S         -4.11390       -0.83250       -2.02910
C         -2.46770       -1.48520        3.07550
C         -1.41630       -0.83900        3.71870
C         -1.39470       -0.82820        5.10040
N         -0.49090       -0.23970        5.95060
C          0.69130        0.47240        5.54320
C          1.86980       -0.46980        5.30370
C         -0.90340       -0.46200        7.24080
C         -2.12540       -1.18830        7.22630
C         -2.42490       -1.44550        5.85340
C         -3.43140       -2.14910        5.19770
C         -3.43480       -2.18090        3.82320
C         -2.76010       -1.49550        8.42640
C         -2.17700       -1.09610        9.60480
C         -0.96010       -0.38310        9.62790
C         -0.30800       -0.08520        8.42760
C         -0.39220       -0.04630       10.90320
C          0.55470        0.86570       11.23620
C          1.26390        0.71790       12.54110
O          0.91690        0.03540       13.47720
C          2.49270        1.52370       12.41260
C          3.55800        1.58710       13.30800
C          4.59100        2.39310       12.89370
C          4.57010        3.08970       11.67720
C          3.52110        3.04830       10.79040
C          2.46030        2.23270       11.19330
C          1.18670        1.96290       10.53160
C          0.60800        2.76110        9.57970
C         -0.72300        2.61920        9.13850
N         -1.80660        2.58820        8.76100
C          1.24740        3.85100        8.95670
N          1.72770        4.72230        8.38280
C          5.94120        3.67650       11.89750
C          7.12730        3.04720       11.12490
C          6.74760        1.61400       10.84620
C          6.76680        0.95830       11.99900
C          7.16030        1.93640       13.07820
C          8.11430        2.84450       12.28570
C          5.96350        2.90410       13.25410
H         -2.58340       -1.96960      -10.57650
H          2.86640        1.02900      -11.46610
H          0.47850       -1.49230      -15.15340
H          3.74750       -0.94090      -16.00460
H          2.20500        0.76310      -17.34990
H          4.69250        1.11160      -18.12160
H          5.96870        2.45590      -16.21820
H          4.26700        2.93540      -14.27460
H          2.57750        3.16440      -16.29880
H          1.82950        2.12530      -15.06460
H          5.00430        0.37770      -14.14220
H         -0.89280        0.57940       -4.70340
H         -3.69950       -2.23610       -8.49090
H         -1.43350       -3.32230       -3.58720
H         -1.05480       -4.22250       -5.84560
H          2.01940       -2.89350       -9.73380
H          1.69730       -1.49660       -8.68110
H          2.91400       -2.73060       -8.20800
H          2.15080       -1.44740       -6.40710
H          1.75530       -0.53970       -4.18430
H          2.12190       -2.45830       -2.08160
H          3.86560       -1.73890       -0.49410
H          4.23860        2.08930        2.89810
H          2.54010        1.64730        2.61310
H          3.40980        2.70540        1.45460
H          1.54420        1.72070        0.47750
H         -0.16750        1.01430       -1.10110
H         -4.98890       -3.21590       -0.19710
H         -6.81380       -3.95770       -1.67330
H        -11.03000       -1.74660       -1.10050
H        -10.40710       -0.79220       -2.48620
H        -11.48950       -2.17350       -2.76300
H         -9.10360       -0.52220       -0.55460
H         -7.28360        0.22490        0.88140
H         -3.66580        1.05000        2.37680
H         -3.95220        1.85320        4.65770
H         -3.43590        1.32780        6.93860
H         -4.34040        2.03160        8.28730
H         -4.34600        2.85760        6.71850
H         -7.22150       -0.84550        5.19920
H         -6.91320       -1.67740        2.90270
H         -0.65850       -0.33860        3.13470
H          0.45980        1.02350        4.62680
H          0.93970        1.20300        6.31790
H          2.75060        0.09550        5.01110
H          2.09780       -1.02670        6.20970
H          1.63160       -1.17890        4.51440
H         -4.19510       -2.66180        5.76120
H         -4.18860       -2.74800        3.30080
H         -3.69340       -2.03670        8.42500
H         -2.66010       -1.31620       10.54480
H          0.66180        0.38790        8.43750
H         -0.71510       -0.66840       11.73350
H          3.53630        1.03590       14.23500
H          3.51690        3.58460        9.85550
H          5.99520        4.76280       11.92720
H          7.46900        3.62780       10.27220
H          6.45850        1.24800        9.87830
H          6.49650       -0.06440       12.18660
H          7.53260        1.50550       14.00380
H          8.36760        3.76710       12.80590
H          9.02530        2.33270       11.97920
H          6.03150        3.48620       14.17090
