
  xtb     02052222463D
 energy: -305.964649314023 gnorm: 0.000438043051 xtb: 6.4.1 (unknown)
186207  0     0  0            999 V2000
    6.3347   -7.5336    3.4749 C   0  0  0  0  0  0  0  0  0  0  0  0
    6.4634   -8.8854    3.2736 C   0  0  0  0  0  0  0  0  0  0  0  0
    5.9559   -9.7088    2.1574 C   0  0  0  0  0  0  0  0  0  0  0  0
    5.5167   -9.3543    1.0787 O   0  0  0  0  0  0  0  0  0  0  0  0
    6.0650  -11.1101    2.6068 C   0  0  0  0  0  0  0  0  0  0  0  0
    5.6222  -12.2394    1.9223 C   0  0  0  0  0  0  0  0  0  0  0  0
    5.8226  -13.4180    2.5992 C   0  0  0  0  0  0  0  0  0  0  0  0
    6.4242  -13.4706    3.8633 C   0  0  0  0  0  0  0  0  0  0  0  0
    6.8756  -12.3650    4.5441 C   0  0  0  0  0  0  0  0  0  0  0  0
    6.6778  -11.1551    3.8732 C   0  0  0  0  0  0  0  0  0  0  0  0
    7.0083   -9.7889    4.2710 C   0  0  0  0  0  0  0  0  0  0  0  0
    7.7686   -9.4485    5.3609 C   0  0  0  0  0  0  0  0  0  0  0  0
    8.2882  -10.3740    6.2891 C   0  0  0  0  0  0  0  0  0  0  0  0
    8.7392  -11.0657    7.0876 N   0  0  0  0  0  0  0  0  0  0  0  0
    8.1954   -8.1461    5.6969 C   0  0  0  0  0  0  0  0  0  0  0  0
    8.6118   -7.1306    6.0370 N   0  0  0  0  0  0  0  0  0  0  0  0
    6.2797  -14.9690    3.9579 C   0  0  0  0  0  0  0  0  0  0  0  0
    5.1474  -15.5280    4.8546 C   0  0  0  0  0  0  0  0  0  0  0  0
    4.0745  -14.4687    4.9010 C   0  0  0  0  0  0  0  0  0  0  0  0
    3.5042  -14.4175    3.7047 C   0  0  0  0  0  0  0  0  0  0  0  0
    4.1809  -15.4419    2.8279 C   0  0  0  0  0  0  0  0  0  0  0  0
    4.5043  -16.5210    3.8734 C   0  0  0  0  0  0  0  0  0  0  0  0
    5.6090  -14.9103    2.5493 C   0  0  0  0  0  0  0  0  0  0  0  0
    5.8231   -6.5186    2.6526 C   0  0  0  0  0  0  0  0  0  0  0  0
    5.5894   -4.9372    3.4303 S   0  0  0  0  0  0  0  0  0  0  0  0
    4.9502   -4.2989    1.9724 C   0  0  0  0  0  0  0  0  0  0  0  0
    4.3804   -3.1483    1.4385 C   0  0  0  0  0  0  0  0  0  0  0  0
    4.0662   -3.4358    0.0895 C   0  0  0  0  0  0  0  0  0  0  0  0
    4.4481   -4.7122   -0.2168 N   0  0  0  0  0  0  0  0  0  0  0  0
    4.1756   -5.4077   -1.4484 C   0  0  0  0  0  0  0  0  0  0  0  0
    2.7692   -6.0033   -1.4558 C   0  0  0  0  0  0  0  0  0  0  0  0
    4.9606   -5.2666    0.9300 C   0  0  0  0  0  0  0  0  0  0  0  0
    5.4486   -6.5045    1.3148 C   0  0  0  0  0  0  0  0  0  0  0  0
    3.4346   -2.3818   -0.5690 C   0  0  0  0  0  0  0  0  0  0  0  0
    3.2553   -1.2904    0.2610 C   0  0  0  0  0  0  0  0  0  0  0  0
    3.8977   -1.5502    1.8791 S   0  0  0  0  0  0  0  0  0  0  0  0
    2.4864   -0.1427   -0.0589 C   0  0  0  0  0  0  0  0  0  0  0  0
    2.2556    1.0188    0.6693 C   0  0  0  0  0  0  0  0  0  0  0  0
    2.9426    1.4165    1.8030 N   0  0  0  0  0  0  0  0  0  0  0  0
    4.3396    1.3717    1.8562 C   0  0  0  0  0  0  0  0  0  0  0  0
    5.1059    1.4584    0.6975 C   0  0  0  0  0  0  0  0  0  0  0  0
    6.4849    1.3970    0.7540 C   0  0  0  0  0  0  0  0  0  0  0  0
    7.1262    1.2565    1.9766 C   0  0  0  0  0  0  0  0  0  0  0  0
    8.8770    1.1750    2.1811 S   0  0  0  0  0  0  0  0  0  0  0  0
    9.5235    1.2554    0.4865 C   0  0  0  0  0  0  0  0  0  0  0  0
    6.3633    1.1757    3.1412 C   0  0  0  0  0  0  0  0  0  0  0  0
    4.9904    1.2280    3.0843 C   0  0  0  0  0  0  0  0  0  0  0  0
    2.2063    2.0542    2.8137 C   0  0  0  0  0  0  0  0  0  0  0  0
    0.9609    1.5448    3.1834 C   0  0  0  0  0  0  0  0  0  0  0  0
    0.2116    2.1753    4.1498 C   0  0  0  0  0  0  0  0  0  0  0  0
    0.6903    3.3243    4.7770 C   0  0  0  0  0  0  0  0  0  0  0  0
   -0.3591    4.0411    6.0006 S   0  0  0  0  0  0  0  0  0  0  0  0
    0.5527    5.5075    6.5598 C   0  0  0  0  0  0  0  0  0  0  0  0
    1.9333    3.8289    4.4185 C   0  0  0  0  0  0  0  0  0  0  0  0
    2.6809    3.2011    3.4416 C   0  0  0  0  0  0  0  0  0  0  0  0
    1.2100    1.7820    0.0900 C   0  0  0  0  0  0  0  0  0  0  0  0
    0.4314    3.2674    0.5106 S   0  0  0  0  0  0  0  0  0  0  0  0
   -0.6289    3.1258   -0.8782 C   0  0  0  0  0  0  0  0  0  0  0  0
   -0.3454    2.0182   -1.6581 C   0  0  0  0  0  0  0  0  0  0  0  0
   -0.9402    1.7245   -2.8772 N   0  0  0  0  0  0  0  0  0  0  0  0
   -1.1510    0.3955   -3.2486 C   0  0  0  0  0  0  0  0  0  0  0  0
   -1.4145   -0.5841   -2.2937 C   0  0  0  0  0  0  0  0  0  0  0  0
   -1.5791   -1.9069   -2.6584 C   0  0  0  0  0  0  0  0  0  0  0  0
   -1.4914   -2.2748   -3.9922 C   0  0  0  0  0  0  0  0  0  0  0  0
   -1.6664   -3.9335   -4.5757 S   0  0  0  0  0  0  0  0  0  0  0  0
   -1.6589   -4.9273   -3.0558 C   0  0  0  0  0  0  0  0  0  0  0  0
   -1.2587   -1.2950   -4.9565 C   0  0  0  0  0  0  0  0  0  0  0  0
   -1.0874    0.0205   -4.5925 C   0  0  0  0  0  0  0  0  0  0  0  0
   -1.3622    2.7813   -3.7003 C   0  0  0  0  0  0  0  0  0  0  0  0
   -0.5714    3.9175   -3.8350 C   0  0  0  0  0  0  0  0  0  0  0  0
   -1.0396    5.0299   -4.5051 C   0  0  0  0  0  0  0  0  0  0  0  0
   -2.3138    5.0216   -5.0544 C   0  0  0  0  0  0  0  0  0  0  0  0
   -3.0736    6.4277   -5.8017 S   0  0  0  0  0  0  0  0  0  0  0  0
   -1.8406    7.7425   -5.5984 C   0  0  0  0  0  0  0  0  0  0  0  0
   -3.0705    3.8519   -5.0040 C   0  0  0  0  0  0  0  0  0  0  0  0
   -2.5999    2.7408   -4.3418 C   0  0  0  0  0  0  0  0  0  0  0  0
    0.6946    1.2503   -1.0796 C   0  0  0  0  0  0  0  0  0  0  0  0
    1.4950   -0.2173   -1.5173 S   0  0  0  0  0  0  0  0  0  0  0  0
   -1.6432    4.1294   -1.1424 C   0  0  0  0  0  0  0  0  0  0  0  0
   -2.9694    3.7615   -1.4158 C   0  0  0  0  0  0  0  0  0  0  0  0
   -3.5214    2.4481   -1.3790 C   0  0  0  0  0  0  0  0  0  0  0  0
   -4.7961    2.3849   -1.8189 C   0  0  0  0  0  0  0  0  0  0  0  0
   -5.7025    1.2082   -1.9492 C   0  0  0  0  0  0  0  0  0  0  0  0
   -5.0044   -0.1241   -1.7043 C   0  0  0  0  0  0  0  0  0  0  0  0
   -5.4062    3.9584   -2.2682 S   0  0  0  0  0  0  0  0  0  0  0  0
   -3.9147    4.7250   -1.8359 C   0  0  0  0  0  0  0  0  0  0  0  0
   -3.5991    6.0778   -1.9907 C   0  0  0  0  0  0  0  0  0  0  0  0
   -2.2691    6.4466   -1.6814 C   0  0  0  0  0  0  0  0  0  0  0  0
   -1.3400    5.4838   -1.2408 C   0  0  0  0  0  0  0  0  0  0  0  0
    0.2305    6.1892   -0.9827 S   0  0  0  0  0  0  0  0  0  0  0  0
   -0.3653    7.7644   -1.4359 C   0  0  0  0  0  0  0  0  0  0  0  0
    0.5458    8.9410   -1.3869 C   0  0  0  0  0  0  0  0  0  0  0  0
    0.8279    9.3557    0.0589 C   0  0  0  0  0  0  0  0  0  0  0  0
   -1.6791    7.7401   -1.7636 C   0  0  0  0  0  0  0  0  0  0  0  0
   -4.4712    7.0807   -2.5342 C   0  0  0  0  0  0  0  0  0  0  0  0
   -5.8034    7.2564   -2.3420 C   0  0  0  0  0  0  0  0  0  0  0  0
   -6.6529    6.5619   -1.3466 C   0  0  0  0  0  0  0  0  0  0  0  0
   -6.2916    5.8005   -0.4732 O   0  0  0  0  0  0  0  0  0  0  0  0
   -8.0291    7.0250   -1.5963 C   0  0  0  0  0  0  0  0  0  0  0  0
   -9.1840    6.5953   -0.9477 C   0  0  0  0  0  0  0  0  0  0  0  0
  -10.3375    7.1786   -1.4133 C   0  0  0  0  0  0  0  0  0  0  0  0
  -10.3429    8.1240   -2.4483 C   0  0  0  0  0  0  0  0  0  0  0  0
   -9.2097    8.5681   -3.0861 C   0  0  0  0  0  0  0  0  0  0  0  0
   -8.0231    7.9876   -2.6261 C   0  0  0  0  0  0  0  0  0  0  0  0
   -6.6426    8.2229   -3.0372 C   0  0  0  0  0  0  0  0  0  0  0  0
   -6.2266    9.2172   -3.8822 C   0  0  0  0  0  0  0  0  0  0  0  0
   -4.8877    9.5465   -4.1754 C   0  0  0  0  0  0  0  0  0  0  0  0
   -3.8336    9.9220   -4.4387 N   0  0  0  0  0  0  0  0  0  0  0  0
   -7.0882   10.1215   -4.5399 C   0  0  0  0  0  0  0  0  0  0  0  0
   -7.7202   10.8903   -5.1123 N   0  0  0  0  0  0  0  0  0  0  0  0
  -11.8438    8.2679   -2.4162 C   0  0  0  0  0  0  0  0  0  0  0  0
  -12.6606    7.5534   -3.5216 C   0  0  0  0  0  0  0  0  0  0  0  0
  -11.8357    6.3733   -3.9715 C   0  0  0  0  0  0  0  0  0  0  0  0
  -11.8323    5.4829   -2.9884 C   0  0  0  0  0  0  0  0  0  0  0  0
  -12.6546    6.0454   -1.8555 C   0  0  0  0  0  0  0  0  0  0  0  0
  -13.7051    6.8373   -2.6504 C   0  0  0  0  0  0  0  0  0  0  0  0
  -11.8373    7.2186   -1.2600 C   0  0  0  0  0  0  0  0  0  0  0  0
    6.6305   -7.1730    4.4536 H   0  0  0  0  0  0  0  0  0  0  0  0
    5.1625  -12.1530    0.9500 H   0  0  0  0  0  0  0  0  0  0  0  0
    7.3326  -12.4225    5.5177 H   0  0  0  0  0  0  0  0  0  0  0  0
    7.2052  -15.5324    4.0591 H   0  0  0  0  0  0  0  0  0  0  0  0
    5.4808  -15.9156    5.8135 H   0  0  0  0  0  0  0  0  0  0  0  0
    3.8858  -13.8443    5.7547 H   0  0  0  0  0  0  0  0  0  0  0  0
    2.7440  -13.7413    3.3593 H   0  0  0  0  0  0  0  0  0  0  0  0
    3.6332  -15.7517    1.9414 H   0  0  0  0  0  0  0  0  0  0  0  0
    3.6119  -16.9959    4.2787 H   0  0  0  0  0  0  0  0  0  0  0  0
    5.1944  -17.2823    3.5120 H   0  0  0  0  0  0  0  0  0  0  0  0
    6.0954  -15.4377    1.7309 H   0  0  0  0  0  0  0  0  0  0  0  0
    4.2884   -4.6987   -2.2734 H   0  0  0  0  0  0  0  0  0  0  0  0
    4.9184   -6.2006   -1.5618 H   0  0  0  0  0  0  0  0  0  0  0  0
    2.5794   -6.4980   -2.4041 H   0  0  0  0  0  0  0  0  0  0  0  0
    2.0290   -5.2188   -1.3136 H   0  0  0  0  0  0  0  0  0  0  0  0
    2.6657   -6.7306   -0.6542 H   0  0  0  0  0  0  0  0  0  0  0  0
    5.5245   -7.3755    0.6914 H   0  0  0  0  0  0  0  0  0  0  0  0
    3.0999   -2.3911   -1.5907 H   0  0  0  0  0  0  0  0  0  0  0  0
    4.6210    1.5787   -0.2601 H   0  0  0  0  0  0  0  0  0  0  0  0
    7.0438    1.4681   -0.1651 H   0  0  0  0  0  0  0  0  0  0  0  0
   10.6026    1.1880    0.5839 H   0  0  0  0  0  0  0  0  0  0  0  0
    9.1527    0.4149   -0.0927 H   0  0  0  0  0  0  0  0  0  0  0  0
    9.2544    2.2027    0.0282 H   0  0  0  0  0  0  0  0  0  0  0  0
    6.8652    1.0586    4.0891 H   0  0  0  0  0  0  0  0  0  0  0  0
    4.4074    1.1433    3.9883 H   0  0  0  0  0  0  0  0  0  0  0  0
    0.5907    0.6485    2.7079 H   0  0  0  0  0  0  0  0  0  0  0  0
   -0.7524    1.7842    4.4367 H   0  0  0  0  0  0  0  0  0  0  0  0
   -0.0823    5.9786    7.3036 H   0  0  0  0  0  0  0  0  0  0  0  0
    1.4937    5.2110    7.0140 H   0  0  0  0  0  0  0  0  0  0  0  0
    0.7102    6.1863    5.7266 H   0  0  0  0  0  0  0  0  0  0  0  0
    2.3301    4.7168    4.8833 H   0  0  0  0  0  0  0  0  0  0  0  0
    3.6396    3.6084    3.1572 H   0  0  0  0  0  0  0  0  0  0  0  0
   -1.4948   -0.3155   -1.2507 H   0  0  0  0  0  0  0  0  0  0  0  0
   -1.7821   -2.6339   -1.8889 H   0  0  0  0  0  0  0  0  0  0  0  0
   -1.6413   -5.9623   -3.3827 H   0  0  0  0  0  0  0  0  0  0  0  0
   -2.5601   -4.7407   -2.4789 H   0  0  0  0  0  0  0  0  0  0  0  0
   -0.7668   -4.7064   -2.4773 H   0  0  0  0  0  0  0  0  0  0  0  0
   -1.2000   -1.5849   -5.9943 H   0  0  0  0  0  0  0  0  0  0  0  0
   -0.8896    0.7693   -5.3444 H   0  0  0  0  0  0  0  0  0  0  0  0
    0.4111    3.9407   -3.3866 H   0  0  0  0  0  0  0  0  0  0  0  0
   -0.4047    5.8979   -4.5767 H   0  0  0  0  0  0  0  0  0  0  0  0
   -1.5646    7.8308   -4.5514 H   0  0  0  0  0  0  0  0  0  0  0  0
   -2.3304    8.6562   -5.9210 H   0  0  0  0  0  0  0  0  0  0  0  0
   -0.9748    7.5396   -6.2221 H   0  0  0  0  0  0  0  0  0  0  0  0
   -4.0457    3.8384   -5.4658 H   0  0  0  0  0  0  0  0  0  0  0  0
   -3.2035    1.8477   -4.2848 H   0  0  0  0  0  0  0  0  0  0  0  0
   -2.9672    1.5982   -1.0295 H   0  0  0  0  0  0  0  0  0  0  0  0
   -6.5300    1.3246   -1.2419 H   0  0  0  0  0  0  0  0  0  0  0  0
   -6.1397    1.2160   -2.9522 H   0  0  0  0  0  0  0  0  0  0  0  0
   -5.7077   -0.9405   -1.8490 H   0  0  0  0  0  0  0  0  0  0  0  0
   -4.1741   -0.2585   -2.3944 H   0  0  0  0  0  0  0  0  0  0  0  0
   -4.6240   -0.1768   -0.6873 H   0  0  0  0  0  0  0  0  0  0  0  0
    1.4902    8.6941   -1.8782 H   0  0  0  0  0  0  0  0  0  0  0  0
    0.0820    9.7701   -1.9250 H   0  0  0  0  0  0  0  0  0  0  0  0
   -0.0990    9.6166    0.5646 H   0  0  0  0  0  0  0  0  0  0  0  0
    1.4906   10.2168    0.0799 H   0  0  0  0  0  0  0  0  0  0  0  0
    1.2996    8.5383    0.5999 H   0  0  0  0  0  0  0  0  0  0  0  0
   -2.2168    8.6255   -2.0549 H   0  0  0  0  0  0  0  0  0  0  0  0
   -3.9705    7.7881   -3.1819 H   0  0  0  0  0  0  0  0  0  0  0  0
   -9.1338    5.8629   -0.1573 H   0  0  0  0  0  0  0  0  0  0  0  0
   -9.2314    9.2973   -3.8786 H   0  0  0  0  0  0  0  0  0  0  0  0
  -12.2236    9.2643   -2.1996 H   0  0  0  0  0  0  0  0  0  0  0  0
  -13.0275    8.2095   -4.3063 H   0  0  0  0  0  0  0  0  0  0  0  0
  -11.3079    6.3329   -4.9063 H   0  0  0  0  0  0  0  0  0  0  0  0
  -11.3004    4.5508   -2.9378 H   0  0  0  0  0  0  0  0  0  0  0  0
  -13.0168    5.3292   -1.1225 H   0  0  0  0  0  0  0  0  0  0  0  0
  -14.2950    7.5151   -2.0349 H   0  0  0  0  0  0  0  0  0  0  0  0
  -14.3674    6.1951   -3.2290 H   0  0  0  0  0  0  0  0  0  0  0  0
  -12.2090    7.5318   -0.2863 H   0  0  0  0  0  0  0  0  0  0  0  0
  1  2  2  0  0  0  0
  2  3  1  0  0  0  0
  3  4  2  0  0  0  0
  3  5  1  0  0  0  0
  5  6  2  0  0  0  0
  6  7  1  0  0  0  0
  7  8  2  0  0  0  0
  8  9  1  0  0  0  0
  9 10  2  0  0  0  0
 10 11  1  0  0  0  0
 11 12  2  0  0  0  0
 12 13  1  0  0  0  0
 13 14  3  0  0  0  0
 12 15  1  0  0  0  0
 15 16  3  0  0  0  0
  8 17  1  0  0  0  0
 17 18  1  0  0  0  0
 18 19  1  0  0  0  0
 19 20  2  0  0  0  0
 20 21  1  0  0  0  0
 21 22  1  0  0  0  0
 21 23  1  0  0  0  0
  1 24  1  0  0  0  0
 24 25  1  0  0  0  0
 25 26  1  0  0  0  0
 26 27  1  0  0  0  0
 27 28  2  0  0  0  0
 28 29  1  0  0  0  0
 29 30  1  0  0  0  0
 30 31  1  0  0  0  0
 29 32  1  0  0  0  0
 32 33  1  0  0  0  0
 28 34  1  0  0  0  0
 34 35  2  0  0  0  0
 35 36  1  0  0  0  0
 35 37  1  0  0  0  0
 37 38  2  0  0  0  0
 38 39  1  0  0  0  0
 39 40  1  0  0  0  0
 40 41  2  0  0  0  0
 41 42  1  0  0  0  0
 42 43  2  0  0  0  0
 43 44  1  0  0  0  0
 44 45  1  0  0  0  0
 43 46  1  0  0  0  0
 46 47  2  0  0  0  0
 39 48  1  0  0  0  0
 48 49  2  0  0  0  0
 49 50  1  0  0  0  0
 50 51  2  0  0  0  0
 51 52  1  0  0  0  0
 52 53  1  0  0  0  0
 51 54  1  0  0  0  0
 54 55  2  0  0  0  0
 38 56  1  0  0  0  0
 56 57  1  0  0  0  0
 57 58  1  0  0  0  0
 58 59  2  0  0  0  0
 59 60  1  0  0  0  0
 60 61  1  0  0  0  0
 61 62  2  0  0  0  0
 62 63  1  0  0  0  0
 63 64  2  0  0  0  0
 64 65  1  0  0  0  0
 65 66  1  0  0  0  0
 64 67  1  0  0  0  0
 67 68  2  0  0  0  0
 60 69  1  0  0  0  0
 69 70  2  0  0  0  0
 70 71  1  0  0  0  0
 71 72  2  0  0  0  0
 72 73  1  0  0  0  0
 73 74  1  0  0  0  0
 72 75  1  0  0  0  0
 75 76  2  0  0  0  0
 59 77  1  0  0  0  0
 77 78  1  0  0  0  0
 58 79  1  0  0  0  0
 79 80  2  0  0  0  0
 80 81  1  0  0  0  0
 81 82  2  0  0  0  0
 82 83  1  0  0  0  0
 83 84  1  0  0  0  0
 82 85  1  0  0  0  0
 85 86  1  0  0  0  0
 86 87  2  0  0  0  0
 87 88  1  0  0  0  0
 88 89  2  0  0  0  0
 89 90  1  0  0  0  0
 90 91  1  0  0  0  0
 91 92  1  0  0  0  0
 92 93  1  0  0  0  0
 91 94  2  0  0  0  0
 87 95  1  0  0  0  0
 95 96  2  0  0  0  0
 96 97  1  0  0  0  0
 97 98  2  0  0  0  0
 97 99  1  0  0  0  0
 99100  2  0  0  0  0
100101  1  0  0  0  0
101102  2  0  0  0  0
102103  1  0  0  0  0
103104  2  0  0  0  0
104105  1  0  0  0  0
105106  2  0  0  0  0
106107  1  0  0  0  0
107108  3  0  0  0  0
106109  1  0  0  0  0
109110  3  0  0  0  0
102111  1  0  0  0  0
111112  1  0  0  0  0
112113  1  0  0  0  0
113114  2  0  0  0  0
114115  1  0  0  0  0
115116  1  0  0  0  0
115117  1  0  0  0  0
 11  2  1  0  0  0  0
 23 17  1  0  0  0  0
 33 24  2  0  0  0  0
 78 37  1  0  0  0  0
 89 79  1  0  0  0  0
105 96  1  0  0  0  0
117111  1  0  0  0  0
 10  5  1  0  0  0  0
 22 18  1  0  0  0  0
 32 26  2  0  0  0  0
 47 40  1  0  0  0  0
 55 48  1  0  0  0  0
 77 56  2  0  0  0  0
 86 80  1  0  0  0  0
 94 88  1  0  0  0  0
104 99  1  0  0  0  0
116112  1  0  0  0  0
 23  7  1  0  0  0  0
 36 27  1  0  0  0  0
 68 61  1  0  0  0  0
 76 69  1  0  0  0  0
117101  1  0  0  0  0
  1118  1  0  0  0  0
  6119  1  0  0  0  0
  9120  1  0  0  0  0
 17121  1  0  0  0  0
 18122  1  0  0  0  0
 19123  1  0  0  0  0
 20124  1  0  0  0  0
 21125  1  0  0  0  0
 22126  1  0  0  0  0
 22127  1  0  0  0  0
 23128  1  0  0  0  0
 30129  1  0  0  0  0
 30130  1  0  0  0  0
 31131  1  0  0  0  0
 31132  1  0  0  0  0
 31133  1  0  0  0  0
 33134  1  0  0  0  0
 34135  1  0  0  0  0
 41136  1  0  0  0  0
 42137  1  0  0  0  0
 45138  1  0  0  0  0
 45139  1  0  0  0  0
 45140  1  0  0  0  0
 46141  1  0  0  0  0
 47142  1  0  0  0  0
 49143  1  0  0  0  0
 50144  1  0  0  0  0
 53145  1  0  0  0  0
 53146  1  0  0  0  0
 53147  1  0  0  0  0
 54148  1  0  0  0  0
 55149  1  0  0  0  0
 62150  1  0  0  0  0
 63151  1  0  0  0  0
 66152  1  0  0  0  0
 66153  1  0  0  0  0
 66154  1  0  0  0  0
 67155  1  0  0  0  0
 68156  1  0  0  0  0
 70157  1  0  0  0  0
 71158  1  0  0  0  0
 74159  1  0  0  0  0
 74160  1  0  0  0  0
 74161  1  0  0  0  0
 75162  1  0  0  0  0
 76163  1  0  0  0  0
 81164  1  0  0  0  0
 83165  1  0  0  0  0
 83166  1  0  0  0  0
 84167  1  0  0  0  0
 84168  1  0  0  0  0
 84169  1  0  0  0  0
 92170  1  0  0  0  0
 92171  1  0  0  0  0
 93172  1  0  0  0  0
 93173  1  0  0  0  0
 93174  1  0  0  0  0
 94175  1  0  0  0  0
 95176  1  0  0  0  0
100177  1  0  0  0  0
103178  1  0  0  0  0
111179  1  0  0  0  0
112180  1  0  0  0  0
113181  1  0  0  0  0
114182  1  0  0  0  0
115183  1  0  0  0  0
116184  1  0  0  0  0
116185  1  0  0  0  0
117186  1  0  0  0  0
M  END
