
  xtb     02042217103D
 energy: -287.828526710209 gnorm: 0.001064321492 xtb: 6.4.1 (unknown)
174194  0     0  0            999 V2000
   -1.7914   -1.3278  -10.2104 C   0  0  0  0  0  0  0  0  0  0  0  0
   -0.8341   -0.9539  -11.1173 C   0  0  0  0  0  0  0  0  0  0  0  0
    0.3660   -0.1639  -10.8284 C   0  0  0  0  0  0  0  0  0  0  0  0
    0.6899    0.3400   -9.7644 O   0  0  0  0  0  0  0  0  0  0  0  0
    1.1446   -0.1168  -12.0760 C   0  0  0  0  0  0  0  0  0  0  0  0
    2.3773    0.5028  -12.2711 C   0  0  0  0  0  0  0  0  0  0  0  0
    2.8733    0.3705  -13.5455 C   0  0  0  0  0  0  0  0  0  0  0  0
    2.1962   -0.3337  -14.5499 C   0  0  0  0  0  0  0  0  0  0  0  0
    0.9806   -0.9504  -14.3698 C   0  0  0  0  0  0  0  0  0  0  0  0
    0.4528   -0.8218  -13.0813 C   0  0  0  0  0  0  0  0  0  0  0  0
   -0.7976   -1.3306  -12.5176 C   0  0  0  0  0  0  0  0  0  0  0  0
   -1.7586   -2.0142  -13.2176 C   0  0  0  0  0  0  0  0  0  0  0  0
   -2.9866   -2.4779  -12.7004 C   0  0  0  0  0  0  0  0  0  0  0  0
   -4.0100   -2.8813  -12.3684 N   0  0  0  0  0  0  0  0  0  0  0  0
   -1.6681   -2.3417  -14.5868 C   0  0  0  0  0  0  0  0  0  0  0  0
   -1.6634   -2.6407  -15.6956 N   0  0  0  0  0  0  0  0  0  0  0  0
    3.2694   -0.0627  -15.5749 C   0  0  0  0  0  0  0  0  0  0  0  0
    2.9634    1.0312  -16.6195 C   0  0  0  0  0  0  0  0  0  0  0  0
    4.3245    1.4094  -17.1574 C   0  0  0  0  0  0  0  0  0  0  0  0
    4.9620    2.0809  -16.2068 C   0  0  0  0  0  0  0  0  0  0  0  0
    4.0424    2.1674  -15.0100 C   0  0  0  0  0  0  0  0  0  0  0  0
    2.6869    2.2461  -15.7242 C   0  0  0  0  0  0  0  0  0  0  0  0
    4.0220    0.7266  -14.4559 C   0  0  0  0  0  0  0  0  0  0  0  0
   -1.9186   -1.0413   -8.8435 C   0  0  0  0  0  0  0  0  0  0  0  0
   -0.8547   -0.0244   -7.8756 S   0  0  0  0  0  0  0  0  0  0  0  0
   -1.7842   -0.3651   -6.4689 C   0  0  0  0  0  0  0  0  0  0  0  0
   -1.6460   -0.0680   -5.1116 C   0  0  0  0  0  0  0  0  0  0  0  0
   -2.5880   -0.7126   -4.3428 C   0  0  0  0  0  0  0  0  0  0  0  0
   -3.7342   -1.6295   -5.3085 S   0  0  0  0  0  0  0  0  0  0  0  0
   -2.8640   -1.2195   -6.7478 C   0  0  0  0  0  0  0  0  0  0  0  0
   -2.9499   -1.5866   -8.0767 C   0  0  0  0  0  0  0  0  0  0  0  0
   -2.5979   -0.8278   -2.9203 C   0  0  0  0  0  0  0  0  0  0  0  0
   -1.4965   -1.0506   -2.1045 C   0  0  0  0  0  0  0  0  0  0  0  0
   -0.1876   -1.2181   -2.5228 N   0  0  0  0  0  0  0  0  0  0  0  0
    0.1075   -1.8357   -3.7467 C   0  0  0  0  0  0  0  0  0  0  0  0
   -0.6571   -2.9066   -4.2119 C   0  0  0  0  0  0  0  0  0  0  0  0
   -0.4458   -3.4129   -5.4739 C   0  0  0  0  0  0  0  0  0  0  0  0
    0.5456   -2.8778   -6.2956 C   0  0  0  0  0  0  0  0  0  0  0  0
    0.6592   -3.5387   -7.9275 S   0  0  0  0  0  0  0  0  0  0  0  0
    1.9656   -2.5488   -8.7051 C   0  0  0  0  0  0  0  0  0  0  0  0
    1.3604   -1.8661   -5.8069 C   0  0  0  0  0  0  0  0  0  0  0  0
    1.1384   -1.3495   -4.5454 C   0  0  0  0  0  0  0  0  0  0  0  0
    0.8429   -0.7855   -1.6773 C   0  0  0  0  0  0  0  0  0  0  0  0
    2.0022   -1.5453   -1.5182 C   0  0  0  0  0  0  0  0  0  0  0  0
    2.9754   -1.1445   -0.6316 C   0  0  0  0  0  0  0  0  0  0  0  0
    2.8163    0.0196    0.1192 C   0  0  0  0  0  0  0  0  0  0  0  0
    4.1047    0.3980    1.2668 S   0  0  0  0  0  0  0  0  0  0  0  0
    3.4929    1.8678    2.1410 C   0  0  0  0  0  0  0  0  0  0  0  0
    1.6842    0.7997   -0.0649 C   0  0  0  0  0  0  0  0  0  0  0  0
    0.7105    0.4008   -0.9600 C   0  0  0  0  0  0  0  0  0  0  0  0
   -1.8978   -1.1654   -0.7506 C   0  0  0  0  0  0  0  0  0  0  0  0
   -1.0449   -1.4104    0.7283 S   0  0  0  0  0  0  0  0  0  0  0  0
   -2.5511   -1.3936    1.6310 C   0  0  0  0  0  0  0  0  0  0  0  0
   -3.6515   -1.1689    0.8227 C   0  0  0  0  0  0  0  0  0  0  0  0
   -4.9580   -0.9842    1.2483 N   0  0  0  0  0  0  0  0  0  0  0  0
   -6.0053   -1.4321    0.4317 C   0  0  0  0  0  0  0  0  0  0  0  0
   -5.8854   -2.6206   -0.2903 C   0  0  0  0  0  0  0  0  0  0  0  0
   -6.9073   -3.0416   -1.1109 C   0  0  0  0  0  0  0  0  0  0  0  0
   -8.0785   -2.2955   -1.2213 C   0  0  0  0  0  0  0  0  0  0  0  0
   -9.3137   -2.9371   -2.3070 S   0  0  0  0  0  0  0  0  0  0  0  0
  -10.6984   -1.7774   -2.1340 C   0  0  0  0  0  0  0  0  0  0  0  0
   -8.2099   -1.1215   -0.4915 C   0  0  0  0  0  0  0  0  0  0  0  0
   -7.1803   -0.6939    0.3234 C   0  0  0  0  0  0  0  0  0  0  0  0
   -5.2297   -0.4096    2.4979 C   0  0  0  0  0  0  0  0  0  0  0  0
   -4.4357    0.6182    2.9990 C   0  0  0  0  0  0  0  0  0  0  0  0
   -4.5991    1.0720    4.2926 C   0  0  0  0  0  0  0  0  0  0  0  0
   -5.5769    0.5154    5.1060 C   0  0  0  0  0  0  0  0  0  0  0  0
   -5.8051    0.9356    6.8032 S   0  0  0  0  0  0  0  0  0  0  0  0
   -4.3223    1.8910    7.2122 C   0  0  0  0  0  0  0  0  0  0  0  0
   -6.4378   -0.4435    4.5756 C   0  0  0  0  0  0  0  0  0  0  0  0
   -6.2669   -0.9039    3.2904 C   0  0  0  0  0  0  0  0  0  0  0  0
   -3.2618   -1.0632   -0.5411 C   0  0  0  0  0  0  0  0  0  0  0  0
   -4.1139   -0.8325   -2.0291 S   0  0  0  0  0  0  0  0  0  0  0  0
   -2.4677   -1.4852    3.0755 C   0  0  0  0  0  0  0  0  0  0  0  0
   -1.4163   -0.8390    3.7187 C   0  0  0  0  0  0  0  0  0  0  0  0
   -1.3947   -0.8282    5.1004 C   0  0  0  0  0  0  0  0  0  0  0  0
   -0.4909   -0.2397    5.9506 N   0  0  0  0  0  0  0  0  0  0  0  0
    0.6913    0.4724    5.5432 C   0  0  0  0  0  0  0  0  0  0  0  0
    1.8698   -0.4698    5.3037 C   0  0  0  0  0  0  0  0  0  0  0  0
   -0.9034   -0.4620    7.2408 C   0  0  0  0  0  0  0  0  0  0  0  0
   -2.1254   -1.1883    7.2263 C   0  0  0  0  0  0  0  0  0  0  0  0
   -2.4249   -1.4455    5.8534 C   0  0  0  0  0  0  0  0  0  0  0  0
   -3.4314   -2.1491    5.1977 C   0  0  0  0  0  0  0  0  0  0  0  0
   -3.4348   -2.1809    3.8232 C   0  0  0  0  0  0  0  0  0  0  0  0
   -2.7601   -1.4955    8.4264 C   0  0  0  0  0  0  0  0  0  0  0  0
   -2.1770   -1.0961    9.6048 C   0  0  0  0  0  0  0  0  0  0  0  0
   -0.9601   -0.3831    9.6279 C   0  0  0  0  0  0  0  0  0  0  0  0
   -0.3080   -0.0852    8.4276 C   0  0  0  0  0  0  0  0  0  0  0  0
   -0.3922   -0.0463   10.9032 C   0  0  0  0  0  0  0  0  0  0  0  0
    0.5547    0.8657   11.2362 C   0  0  0  0  0  0  0  0  0  0  0  0
    1.2639    0.7179   12.5411 C   0  0  0  0  0  0  0  0  0  0  0  0
    0.9169    0.0354   13.4772 O   0  0  0  0  0  0  0  0  0  0  0  0
    2.4927    1.5237   12.4126 C   0  0  0  0  0  0  0  0  0  0  0  0
    3.5580    1.5871   13.3080 C   0  0  0  0  0  0  0  0  0  0  0  0
    4.5910    2.3931   12.8937 C   0  0  0  0  0  0  0  0  0  0  0  0
    4.5701    3.0897   11.6772 C   0  0  0  0  0  0  0  0  0  0  0  0
    3.5211    3.0483   10.7904 C   0  0  0  0  0  0  0  0  0  0  0  0
    2.4603    2.2327   11.1933 C   0  0  0  0  0  0  0  0  0  0  0  0
    1.1867    1.9629   10.5316 C   0  0  0  0  0  0  0  0  0  0  0  0
    0.6080    2.7611    9.5797 C   0  0  0  0  0  0  0  0  0  0  0  0
   -0.7230    2.6192    9.1385 C   0  0  0  0  0  0  0  0  0  0  0  0
   -1.8066    2.5882    8.7610 N   0  0  0  0  0  0  0  0  0  0  0  0
    1.2474    3.8510    8.9567 C   0  0  0  0  0  0  0  0  0  0  0  0
    1.7277    4.7223    8.3828 N   0  0  0  0  0  0  0  0  0  0  0  0
    5.9412    3.6765   11.8975 C   0  0  0  0  0  0  0  0  0  0  0  0
    7.1273    3.0472   11.1249 C   0  0  0  0  0  0  0  0  0  0  0  0
    6.7476    1.6140   10.8462 C   0  0  0  0  0  0  0  0  0  0  0  0
    6.7668    0.9583   11.9990 C   0  0  0  0  0  0  0  0  0  0  0  0
    7.1603    1.9364   13.0782 C   0  0  0  0  0  0  0  0  0  0  0  0
    8.1143    2.8445   12.2857 C   0  0  0  0  0  0  0  0  0  0  0  0
    5.9635    2.9041   13.2541 C   0  0  0  0  0  0  0  0  0  0  0  0
   -2.5834   -1.9696  -10.5765 H   0  0  0  0  0  0  0  0  0  0  0  0
    2.8664    1.0290  -11.4661 H   0  0  0  0  0  0  0  0  0  0  0  0
    0.4785   -1.4923  -15.1534 H   0  0  0  0  0  0  0  0  0  0  0  0
    3.7475   -0.9409  -16.0046 H   0  0  0  0  0  0  0  0  0  0  0  0
    2.2050    0.7631  -17.3499 H   0  0  0  0  0  0  0  0  0  0  0  0
    4.6925    1.1116  -18.1216 H   0  0  0  0  0  0  0  0  0  0  0  0
    5.9687    2.4559  -16.2182 H   0  0  0  0  0  0  0  0  0  0  0  0
    4.2670    2.9354  -14.2746 H   0  0  0  0  0  0  0  0  0  0  0  0
    2.5775    3.1644  -16.2988 H   0  0  0  0  0  0  0  0  0  0  0  0
    1.8295    2.1253  -15.0646 H   0  0  0  0  0  0  0  0  0  0  0  0
    5.0043    0.3777  -14.1422 H   0  0  0  0  0  0  0  0  0  0  0  0
   -0.8928    0.5794   -4.7034 H   0  0  0  0  0  0  0  0  0  0  0  0
   -3.6995   -2.2361   -8.4909 H   0  0  0  0  0  0  0  0  0  0  0  0
   -1.4335   -3.3223   -3.5872 H   0  0  0  0  0  0  0  0  0  0  0  0
   -1.0548   -4.2225   -5.8456 H   0  0  0  0  0  0  0  0  0  0  0  0
    2.0194   -2.8935   -9.7338 H   0  0  0  0  0  0  0  0  0  0  0  0
    1.6973   -1.4966   -8.6811 H   0  0  0  0  0  0  0  0  0  0  0  0
    2.9140   -2.7306   -8.2080 H   0  0  0  0  0  0  0  0  0  0  0  0
    2.1508   -1.4474   -6.4071 H   0  0  0  0  0  0  0  0  0  0  0  0
    1.7553   -0.5397   -4.1843 H   0  0  0  0  0  0  0  0  0  0  0  0
    2.1219   -2.4583   -2.0816 H   0  0  0  0  0  0  0  0  0  0  0  0
    3.8656   -1.7389   -0.4941 H   0  0  0  0  0  0  0  0  0  0  0  0
    4.2386    2.0893    2.8981 H   0  0  0  0  0  0  0  0  0  0  0  0
    2.5401    1.6473    2.6131 H   0  0  0  0  0  0  0  0  0  0  0  0
    3.4098    2.7054    1.4546 H   0  0  0  0  0  0  0  0  0  0  0  0
    1.5442    1.7207    0.4775 H   0  0  0  0  0  0  0  0  0  0  0  0
   -0.1675    1.0143   -1.1011 H   0  0  0  0  0  0  0  0  0  0  0  0
   -4.9889   -3.2159   -0.1971 H   0  0  0  0  0  0  0  0  0  0  0  0
   -6.8138   -3.9577   -1.6733 H   0  0  0  0  0  0  0  0  0  0  0  0
  -11.0300   -1.7466   -1.1005 H   0  0  0  0  0  0  0  0  0  0  0  0
  -10.4071   -0.7922   -2.4862 H   0  0  0  0  0  0  0  0  0  0  0  0
  -11.4895   -2.1735   -2.7630 H   0  0  0  0  0  0  0  0  0  0  0  0
   -9.1036   -0.5222   -0.5546 H   0  0  0  0  0  0  0  0  0  0  0  0
   -7.2836    0.2249    0.8814 H   0  0  0  0  0  0  0  0  0  0  0  0
   -3.6658    1.0500    2.3768 H   0  0  0  0  0  0  0  0  0  0  0  0
   -3.9522    1.8532    4.6577 H   0  0  0  0  0  0  0  0  0  0  0  0
   -3.4359    1.3278    6.9386 H   0  0  0  0  0  0  0  0  0  0  0  0
   -4.3404    2.0316    8.2873 H   0  0  0  0  0  0  0  0  0  0  0  0
   -4.3460    2.8576    6.7185 H   0  0  0  0  0  0  0  0  0  0  0  0
   -7.2215   -0.8455    5.1992 H   0  0  0  0  0  0  0  0  0  0  0  0
   -6.9132   -1.6774    2.9027 H   0  0  0  0  0  0  0  0  0  0  0  0
   -0.6585   -0.3386    3.1347 H   0  0  0  0  0  0  0  0  0  0  0  0
    0.4598    1.0235    4.6268 H   0  0  0  0  0  0  0  0  0  0  0  0
    0.9397    1.2030    6.3179 H   0  0  0  0  0  0  0  0  0  0  0  0
    2.7506    0.0955    5.0111 H   0  0  0  0  0  0  0  0  0  0  0  0
    2.0978   -1.0267    6.2097 H   0  0  0  0  0  0  0  0  0  0  0  0
    1.6316   -1.1789    4.5144 H   0  0  0  0  0  0  0  0  0  0  0  0
   -4.1951   -2.6618    5.7612 H   0  0  0  0  0  0  0  0  0  0  0  0
   -4.1886   -2.7480    3.3008 H   0  0  0  0  0  0  0  0  0  0  0  0
   -3.6934   -2.0367    8.4250 H   0  0  0  0  0  0  0  0  0  0  0  0
   -2.6601   -1.3162   10.5448 H   0  0  0  0  0  0  0  0  0  0  0  0
    0.6618    0.3879    8.4375 H   0  0  0  0  0  0  0  0  0  0  0  0
   -0.7151   -0.6684   11.7335 H   0  0  0  0  0  0  0  0  0  0  0  0
    3.5363    1.0359   14.2350 H   0  0  0  0  0  0  0  0  0  0  0  0
    3.5169    3.5846    9.8555 H   0  0  0  0  0  0  0  0  0  0  0  0
    5.9952    4.7628   11.9272 H   0  0  0  0  0  0  0  0  0  0  0  0
    7.4690    3.6278   10.2722 H   0  0  0  0  0  0  0  0  0  0  0  0
    6.4585    1.2480    9.8783 H   0  0  0  0  0  0  0  0  0  0  0  0
    6.4965   -0.0644   12.1866 H   0  0  0  0  0  0  0  0  0  0  0  0
    7.5326    1.5055   14.0038 H   0  0  0  0  0  0  0  0  0  0  0  0
    8.3676    3.7671   12.8059 H   0  0  0  0  0  0  0  0  0  0  0  0
    9.0253    2.3327   11.9792 H   0  0  0  0  0  0  0  0  0  0  0  0
    6.0315    3.4862   14.1709 H   0  0  0  0  0  0  0  0  0  0  0  0
  1  2  2  0  0  0  0
  2  3  1  0  0  0  0
  3  4  2  0  0  0  0
  3  5  1  0  0  0  0
  5  6  2  0  0  0  0
  6  7  1  0  0  0  0
  7  8  2  0  0  0  0
  8  9  1  0  0  0  0
  9 10  2  0  0  0  0
 10 11  1  0  0  0  0
 11 12  2  0  0  0  0
 12 13  1  0  0  0  0
 13 14  3  0  0  0  0
 12 15  1  0  0  0  0
 15 16  3  0  0  0  0
  8 17  1  0  0  0  0
 17 18  1  0  0  0  0
 18 19  1  0  0  0  0
 19 20  2  0  0  0  0
 20 21  1  0  0  0  0
 21 22  1  0  0  0  0
 21 23  1  0  0  0  0
  1 24  1  0  0  0  0
 24 25  1  0  0  0  0
 25 26  1  0  0  0  0
 26 27  1  0  0  0  0
 27 28  2  0  0  0  0
 28 29  1  0  0  0  0
 29 30  1  0  0  0  0
 30 31  1  0  0  0  0
 28 32  1  0  0  0  0
 32 33  2  0  0  0  0
 33 34  1  0  0  0  0
 34 35  1  0  0  0  0
 35 36  2  0  0  0  0
 36 37  1  0  0  0  0
 37 38  2  0  0  0  0
 38 39  1  0  0  0  0
 39 40  1  0  0  0  0
 38 41  1  0  0  0  0
 41 42  2  0  0  0  0
 34 43  1  0  0  0  0
 43 44  2  0  0  0  0
 44 45  1  0  0  0  0
 45 46  2  0  0  0  0
 46 47  1  0  0  0  0
 47 48  1  0  0  0  0
 46 49  1  0  0  0  0
 49 50  2  0  0  0  0
 33 51  1  0  0  0  0
 51 52  1  0  0  0  0
 52 53  1  0  0  0  0
 53 54  2  0  0  0  0
 54 55  1  0  0  0  0
 55 56  1  0  0  0  0
 56 57  2  0  0  0  0
 57 58  1  0  0  0  0
 58 59  2  0  0  0  0
 59 60  1  0  0  0  0
 60 61  1  0  0  0  0
 59 62  1  0  0  0  0
 62 63  2  0  0  0  0
 55 64  1  0  0  0  0
 64 65  2  0  0  0  0
 65 66  1  0  0  0  0
 66 67  2  0  0  0  0
 67 68  1  0  0  0  0
 68 69  1  0  0  0  0
 67 70  1  0  0  0  0
 70 71  2  0  0  0  0
 54 72  1  0  0  0  0
 72 73  1  0  0  0  0
 53 74  1  0  0  0  0
 74 75  2  0  0  0  0
 75 76  1  0  0  0  0
 76 77  1  0  0  0  0
 77 78  1  0  0  0  0
 78 79  1  0  0  0  0
 77 80  1  0  0  0  0
 80 81  2  0  0  0  0
 81 82  1  0  0  0  0
 82 83  1  0  0  0  0
 83 84  2  0  0  0  0
 81 85  1  0  0  0  0
 85 86  2  0  0  0  0
 86 87  1  0  0  0  0
 87 88  2  0  0  0  0
 87 89  1  0  0  0  0
 89 90  2  0  0  0  0
 90 91  1  0  0  0  0
 91 92  2  0  0  0  0
 91 93  1  0  0  0  0
 93 94  2  0  0  0  0
 94 95  1  0  0  0  0
 95 96  2  0  0  0  0
 96 97  1  0  0  0  0
 97 98  2  0  0  0  0
 98 99  1  0  0  0  0
 99100  2  0  0  0  0
100101  1  0  0  0  0
101102  3  0  0  0  0
100103  1  0  0  0  0
103104  3  0  0  0  0
 96105  1  0  0  0  0
105106  1  0  0  0  0
106107  1  0  0  0  0
107108  2  0  0  0  0
108109  1  0  0  0  0
109110  1  0  0  0  0
109111  1  0  0  0  0
 11  2  1  0  0  0  0
 23 17  1  0  0  0  0
 31 24  2  0  0  0  0
 73 32  1  0  0  0  0
 84 74  1  0  0  0  0
 99 90  1  0  0  0  0
111105  1  0  0  0  0
 10  5  1  0  0  0  0
 22 18  1  0  0  0  0
 30 26  2  0  0  0  0
 42 35  1  0  0  0  0
 50 43  1  0  0  0  0
 72 51  2  0  0  0  0
 82 76  2  0  0  0  0
 98 93  1  0  0  0  0
110106  1  0  0  0  0
 23  7  1  0  0  0  0
 63 56  1  0  0  0  0
 71 64  1  0  0  0  0
 88 80  1  0  0  0  0
111 95  1  0  0  0  0
  1112  1  0  0  0  0
  6113  1  0  0  0  0
  9114  1  0  0  0  0
 17115  1  0  0  0  0
 18116  1  0  0  0  0
 19117  1  0  0  0  0
 20118  1  0  0  0  0
 21119  1  0  0  0  0
 22120  1  0  0  0  0
 22121  1  0  0  0  0
 23122  1  0  0  0  0
 27123  1  0  0  0  0
 31124  1  0  0  0  0
 36125  1  0  0  0  0
 37126  1  0  0  0  0
 40127  1  0  0  0  0
 40128  1  0  0  0  0
 40129  1  0  0  0  0
 41130  1  0  0  0  0
 42131  1  0  0  0  0
 44132  1  0  0  0  0
 45133  1  0  0  0  0
 48134  1  0  0  0  0
 48135  1  0  0  0  0
 48136  1  0  0  0  0
 49137  1  0  0  0  0
 50138  1  0  0  0  0
 57139  1  0  0  0  0
 58140  1  0  0  0  0
 61141  1  0  0  0  0
 61142  1  0  0  0  0
 61143  1  0  0  0  0
 62144  1  0  0  0  0
 63145  1  0  0  0  0
 65146  1  0  0  0  0
 66147  1  0  0  0  0
 69148  1  0  0  0  0
 69149  1  0  0  0  0
 69150  1  0  0  0  0
 70151  1  0  0  0  0
 71152  1  0  0  0  0
 75153  1  0  0  0  0
 78154  1  0  0  0  0
 78155  1  0  0  0  0
 79156  1  0  0  0  0
 79157  1  0  0  0  0
 79158  1  0  0  0  0
 83159  1  0  0  0  0
 84160  1  0  0  0  0
 85161  1  0  0  0  0
 86162  1  0  0  0  0
 88163  1  0  0  0  0
 89164  1  0  0  0  0
 94165  1  0  0  0  0
 97166  1  0  0  0  0
105167  1  0  0  0  0
106168  1  0  0  0  0
107169  1  0  0  0  0
108170  1  0  0  0  0
109171  1  0  0  0  0
110172  1  0  0  0  0
110173  1  0  0  0  0
111174  1  0  0  0  0
M  END
