198

C          0.37190      -11.42460        0.41640
C          1.10120      -11.92590        1.45600
C          2.08330      -11.22590        2.32050
O          2.70790      -10.20940        2.10220
C          2.18730      -12.04500        3.54200
C          2.90020      -11.72550        4.69540
C          2.81360      -12.67400        5.68500
C          2.07320      -13.85550        5.53990
C          1.37520      -14.18800        4.40370
C          1.45060      -13.23430        3.38300
C          0.85060      -13.22840        2.05350
C          0.22340      -14.28990        1.45630
C         -0.26120      -14.30860        0.13070
N         -0.66230      -14.41580       -0.94020
C          0.02030      -15.54290        2.07160
N         -0.18770      -16.58220        2.51300
C          2.41060      -14.33180        6.93110
C          1.30840      -14.17080        7.99970
C          2.05900      -14.25870        9.30890
C          2.76480      -13.14340        9.44520
C          2.50290      -12.28280        8.23050
C          1.04280      -12.66050        7.94900
C          3.24000      -13.01730        7.09050
C          0.40290      -10.14530       -0.17610
S         -1.02750       -9.68510       -1.11840
C         -0.43300       -8.08010       -1.29010
C         -0.98030       -6.86850       -1.72180
C         -0.15160       -5.81140       -1.43170
S          1.39420       -6.32460       -0.77370
C          0.83640       -7.95650       -0.70790
C          1.31310       -9.10880       -0.09700
C         -0.45700       -4.41690       -1.48370
C         -0.25200       -3.49520       -0.46560
N          0.17460       -3.77850        0.81780
C         -0.10030       -5.00380        1.44390
C         -1.30090       -5.67560        1.23260
C         -1.50700       -6.93710        1.75940
C         -0.51580       -7.54570        2.51640
S         -0.62590       -9.18290        3.17040
C         -2.21740       -9.80070        2.55120
C          0.65930       -6.84760        2.79050
C          0.86430       -5.59230        2.26530
C          0.81130       -2.75960        1.54750
C          1.80000       -1.98230        0.95180
C          2.35470       -0.91140        1.62580
C          1.92510       -0.60400        2.90900
S          2.50280        0.78800        3.82660
C          3.29510        1.82170        2.56040
C          0.98470       -1.42210        3.53310
C          0.43350       -2.49010        2.86250
C         -0.62810       -2.19690       -0.89400
S         -0.60290       -0.64210       -0.14860
C         -1.26190        0.09340       -1.60280
C         -1.56390       -0.84520       -2.58150
N         -2.22520       -0.58630       -3.76580
C         -1.91580       -1.37620       -4.88440
C         -2.91720       -1.89700       -5.69800
C         -2.60100       -2.69500       -6.77970
C         -1.27430       -2.99450       -7.06080
S         -0.74890       -4.01210       -8.40300
C         -2.29750       -4.64630       -9.10670
C         -0.26810       -2.46750       -6.25360
C         -0.58300       -1.66470       -5.18090
C         -3.29520        0.31900       -3.80400
C         -3.57910        1.01660       -4.97440
C         -4.62860        1.91280       -5.02770
C         -5.39840        2.15200       -3.89780
S         -6.73180        3.30430       -3.83140
C         -6.81880        3.97470       -5.51520
C         -5.12050        1.45330       -2.72410
C         -4.09110        0.54170       -2.67950
C         -1.16060       -2.14270       -2.17170
S         -1.21650       -3.71030       -2.90380
C         -1.31400        1.51680       -1.62190
C         -1.29720        2.39750       -2.66850
C         -1.15800        3.74820       -2.26420
C         -1.02450        4.88670       -3.07200
C         -1.03420        4.84200       -4.54580
C          0.12030        5.20640       -5.23470
C          0.12700        5.22940       -6.61590
C         -1.01800        4.91750       -7.32530
C         -2.17760        4.58040       -6.64210
S         -3.68340        4.21380       -7.50890
C         -3.69070        5.44660       -8.85820
C         -3.67230        6.86670       -8.33070
C         -2.18240        4.51900       -5.25470
C         -0.81050        6.09330       -2.42630
C         -0.73000        6.22380       -1.01350
C         -0.86680        5.08230       -0.19980
C         -0.77110        5.16130        1.26410
C          0.09330        4.31670        1.95980
C          0.16620        4.38630        3.33660
C         -0.60980        5.28940        4.04320
C         -1.47310        6.13410        3.35790
S         -2.52240        7.32570        4.12600
C         -2.21890        7.10270        5.91930
C         -3.11880        8.04820        6.69260
C         -1.54940        6.06620        1.97010
C         -1.06570        3.88020       -0.85200
S         -1.20670        2.32990       -0.07090
C         -0.44150        7.54290       -0.61200
C         -0.32090        8.42490       -1.65770
S         -0.58880        7.62690       -3.21270
C         -0.03490        9.80790       -1.71490
C          0.38510       10.68430       -0.75560
C          0.79130       10.40950        0.64430
O          0.65860        9.39150        1.29210
C          1.43730       11.64550        1.12450
C          2.03910       11.83660        2.36710
C          2.59020       13.08340        2.53560
C          2.54960       14.06880        1.53950
C          1.94920       13.89780        0.31540
C          1.37660       12.63540        0.12520
C          0.65650       12.09030       -1.02120
C          0.25540       12.81170       -2.11510
C          0.54030       14.17920       -2.31560
N          0.73680       15.28560       -2.55140
C         -0.53150       12.33340       -3.18530
N         -1.18360       12.04820       -4.08700
C          3.31640       15.06130        2.37740
C          4.80890       15.24900        2.03080
C          5.39110       15.88240        3.27380
C          5.42380       14.95460        4.22190
C          4.86530       13.67820        3.63530
C          5.34780       13.82090        2.18600
C          3.35580       13.96580        3.49070
H         -0.42850      -12.05200        0.03970
H          3.45690      -10.80430        4.76420
H          0.81190      -15.10100        4.30540
H          2.92830      -15.28690        6.99430
H          0.45670      -14.83450        7.87840
H          2.04370      -15.11860        9.95260
H          3.45680      -12.88550       10.22540
H          2.73890      -11.22580        8.31870
H          0.67030      -12.30550        6.98980
H          0.37320      -12.33390        8.74300
H          4.31270      -13.09560        7.25690
H         -1.95960       -6.75020       -2.14770
H          2.24980       -9.18670        0.42080
H         -2.07680       -5.21420        0.63980
H         -2.44320       -7.43400        1.56190
H         -2.28620      -10.82720        2.89830
H         -3.03240       -9.21740        2.96950
H         -2.23080       -9.77730        1.46520
H          1.42000       -7.31910        3.39250
H          1.78870       -5.06880        2.45550
H          2.12830       -2.21510       -0.05070
H          3.11550       -0.32550        1.13630
H          4.24110        1.38510        2.25280
H          2.62080        1.93710        1.71730
H          3.47250        2.78460        3.02940
H          0.67500       -1.19170        4.54080
H         -0.31330       -3.10700        3.33950
H         -3.95140       -1.68040       -5.47570
H         -3.40120       -3.08380       -7.38830
H         -2.87760       -3.83250       -9.53220
H         -2.85880       -5.17730       -8.34350
H         -2.00000       -5.33460       -9.89180
H          0.76160       -2.69560       -6.48190
H          0.20120       -1.25360       -4.56210
H         -2.97270        0.86020       -5.85430
H         -4.81920        2.42630       -5.95470
H         -7.62900        4.69700       -5.49810
H         -7.04570        3.17970       -6.21930
H         -5.88580        4.46720       -5.77160
H         -5.72920        1.62950       -1.85060
H         -3.90510       -0.00710       -1.76890
H         -1.33000        2.10110       -3.70070
H          1.01170        5.46250       -4.68200
H          1.02760        5.49710       -7.14800
H         -1.00100        4.93950       -8.40400
H         -4.61630        5.23510       -9.39360
H         -2.85040        5.24460       -9.52150
H         -3.71940        7.56860       -9.16080
H         -4.52560        7.04090       -7.67880
H         -2.76180        7.05880       -7.76550
H         -3.08410        4.24420       -4.72860
H          0.71820        3.62460        1.41730
H          0.83280        3.72860        3.87470
H         -0.53070        5.32180        5.11760
H         -1.16800        7.32180        6.11100
H         -2.44000        6.06460        6.16890
H         -2.91320        9.07970        6.41620
H         -4.16390        7.83690        6.47930
H         -2.94830        7.93060        7.76080
H         -2.24150        6.71180        1.45080
H         -0.30570        7.83510        0.41260
H         -0.13680       10.21240       -2.71570
H          2.04860       11.04780        3.10300
H          1.92550       14.66710       -0.43790
H          2.80750       16.00030        2.58620
H          4.99700       15.75640        1.08860
H          5.65820       16.92000        3.34940
H          5.72340       15.06270        5.24790
H          5.10560       12.75470        4.15520
H          6.43300       13.78000        2.10760
H          4.90580       13.10200        1.49840
H          2.86800       14.17280        4.44130
