
  xtb     02062201133D
 energy: -359.374439702506 gnorm: 0.000567442035 xtb: 6.4.1 (unknown)
220241  0     0  0            999 V2000
   -5.5864    8.2051   -0.2953 C   0  0  0  0  0  0  0  0  0  0  0  0
   -6.5948    8.2133   -1.2030 C   0  0  0  0  0  0  0  0  0  0  0  0
   -7.2134    9.4897   -1.6615 C   0  0  0  0  0  0  0  0  0  0  0  0
   -7.1313   10.5687   -1.1222 O   0  0  0  0  0  0  0  0  0  0  0  0
   -7.8797    9.1576   -2.9368 C   0  0  0  0  0  0  0  0  0  0  0  0
   -8.4697   10.0409   -3.8398 C   0  0  0  0  0  0  0  0  0  0  0  0
   -8.9693    9.4371   -4.9691 C   0  0  0  0  0  0  0  0  0  0  0  0
   -8.8875    8.0554   -5.1950 C   0  0  0  0  0  0  0  0  0  0  0  0
   -8.3193    7.1692   -4.3121 C   0  0  0  0  0  0  0  0  0  0  0  0
   -7.8131    7.7644   -3.1534 C   0  0  0  0  0  0  0  0  0  0  0  0
   -7.1731    7.1456   -1.9993 C   0  0  0  0  0  0  0  0  0  0  0  0
   -7.3298    5.8396   -1.6205 C   0  0  0  0  0  0  0  0  0  0  0  0
   -8.0086    4.8597   -2.3749 C   0  0  0  0  0  0  0  0  0  0  0  0
   -8.5195    3.9939   -2.9298 N   0  0  0  0  0  0  0  0  0  0  0  0
   -6.8861    5.3066   -0.3909 C   0  0  0  0  0  0  0  0  0  0  0  0
   -6.5959    4.7992    0.5971 N   0  0  0  0  0  0  0  0  0  0  0  0
   -9.5639    8.1528   -6.5387 C   0  0  0  0  0  0  0  0  0  0  0  0
   -8.6482    8.0631   -7.7779 C   0  0  0  0  0  0  0  0  0  0  0  0
   -9.4842    8.6578   -8.8879 C   0  0  0  0  0  0  0  0  0  0  0  0
   -9.5659    9.9650   -8.6753 C   0  0  0  0  0  0  0  0  0  0  0  0
   -8.7855   10.2762   -7.4183 C   0  0  0  0  0  0  0  0  0  0  0  0
   -7.6753    9.2232   -7.5304 C   0  0  0  0  0  0  0  0  0  0  0  0
   -9.6586    9.6919   -6.2871 C   0  0  0  0  0  0  0  0  0  0  0  0
   -4.6746    7.1285   -0.1099 C   0  0  0  0  0  0  0  0  0  0  0  0
   -4.2746    6.2335   -1.0662 C   0  0  0  0  0  0  0  0  0  0  0  0
   -3.4146    5.2269   -0.5847 C   0  0  0  0  0  0  0  0  0  0  0  0
   -2.8997    4.1198   -1.2939 C   0  0  0  0  0  0  0  0  0  0  0  0
   -3.2944    3.8723   -2.6644 C   0  0  0  0  0  0  0  0  0  0  0  0
   -4.5359    4.0662   -3.2085 C   0  0  0  0  0  0  0  0  0  0  0  0
   -4.5732    3.7814   -4.5849 C   0  0  0  0  0  0  0  0  0  0  0  0
   -6.0065    4.0113   -5.4981 Cl  0  0  0  0  0  0  0  0  0  0  0  0
   -3.3946    3.3448   -5.1212 C   0  0  0  0  0  0  0  0  0  0  0  0
   -2.9705    2.8886   -6.9111 Si  0  0  0  0  0  4  0  0  0  0  0  0
   -3.8157    1.2746   -7.4997 C   0  0  0  0  0  0  0  0  0  0  0  0
   -5.3287    1.3612   -7.6657 C   0  0  0  0  0  0  0  0  0  0  0  0
   -3.4732    4.3693   -8.0155 C   0  0  0  0  0  0  0  0  0  0  0  0
   -3.1313    4.1490   -9.4860 C   0  0  0  0  0  0  0  0  0  0  0  0
   -1.0763    2.6144   -6.9468 C   0  0  0  0  0  0  0  0  0  0  0  0
   -0.2633    3.8998   -6.8296 C   0  0  0  0  0  0  0  0  0  0  0  0
   -2.1945    3.2861   -3.8738 S   0  0  0  0  0  0  0  0  0  0  0  0
   -2.0700    3.2689   -0.5796 C   0  0  0  0  0  0  0  0  0  0  0  0
   -1.8094    3.4131    0.8067 C   0  0  0  0  0  0  0  0  0  0  0  0
   -2.3349    4.5131    1.5161 C   0  0  0  0  0  0  0  0  0  0  0  0
   -2.0737    4.6952    2.9293 C   0  0  0  0  0  0  0  0  0  0  0  0
   -1.6646    6.2648    3.5542 S   0  0  0  0  0  0  0  0  0  0  0  0
   -1.4873    5.6692    5.1655 C   0  0  0  0  0  0  0  0  0  0  0  0
   -1.0039    6.7989    6.6050 Si  0  0  0  0  0  4  0  0  0  0  0  0
   -0.8498    8.5683    5.8975 C   0  0  0  0  0  0  0  0  0  0  0  0
   -2.1801    9.2361    5.5631 C   0  0  0  0  0  0  0  0  0  0  0  0
   -2.3350    6.6693    7.9760 C   0  0  0  0  0  0  0  0  0  0  0  0
   -3.7516    6.4535    7.4502 C   0  0  0  0  0  0  0  0  0  0  0  0
    0.6938    6.2058    7.2524 C   0  0  0  0  0  0  0  0  0  0  0  0
    1.7856    6.2415    6.1885 C   0  0  0  0  0  0  0  0  0  0  0  0
   -1.7423    4.3273    5.1764 C   0  0  0  0  0  0  0  0  0  0  0  0
   -2.0717    3.7625    3.9298 C   0  0  0  0  0  0  0  0  0  0  0  0
   -1.6684    3.3941    6.6110 Cl  0  0  0  0  0  0  0  0  0  0  0  0
   -3.1109    5.4077    0.7885 C   0  0  0  0  0  0  0  0  0  0  0  0
   -3.9105    6.8145    1.4319 S   0  0  0  0  0  0  0  0  0  0  0  0
   -1.0390    2.3397    1.3000 C   0  0  0  0  0  0  0  0  0  0  0  0
   -0.7396    1.3809    0.3649 C   0  0  0  0  0  0  0  0  0  0  0  0
   -1.3246    1.8368   -1.2222 S   0  0  0  0  0  0  0  0  0  0  0  0
   -0.0412    0.1733    0.6478 C   0  0  0  0  0  0  0  0  0  0  0  0
    0.4002   -0.8797   -0.1481 C   0  0  0  0  0  0  0  0  0  0  0  0
    0.1981   -1.0679   -1.5051 N   0  0  0  0  0  0  0  0  0  0  0  0
    1.2488   -1.6345   -2.2450 C   0  0  0  0  0  0  0  0  0  0  0  0
    2.5580   -1.2165   -2.0227 C   0  0  0  0  0  0  0  0  0  0  0  0
    3.6089   -1.7893   -2.7115 C   0  0  0  0  0  0  0  0  0  0  0  0
    3.3642   -2.7896   -3.6421 C   0  0  0  0  0  0  0  0  0  0  0  0
    4.6253   -3.5909   -4.5802 S   0  0  0  0  0  0  0  0  0  0  0  0
    6.1559   -3.1293   -3.7184 C   0  0  0  0  0  0  0  0  0  0  0  0
    2.0526   -3.1957   -3.8830 C   0  0  0  0  0  0  0  0  0  0  0  0
    1.0061   -2.6299   -3.1916 C   0  0  0  0  0  0  0  0  0  0  0  0
   -1.0448   -0.8539   -2.1044 C   0  0  0  0  0  0  0  0  0  0  0  0
   -1.1134   -0.4379   -3.4363 C   0  0  0  0  0  0  0  0  0  0  0  0
   -2.3259   -0.1176   -3.9993 C   0  0  0  0  0  0  0  0  0  0  0  0
   -3.4990   -0.2018   -3.2529 C   0  0  0  0  0  0  0  0  0  0  0  0
   -4.9960    0.3212   -4.0319 S   0  0  0  0  0  0  0  0  0  0  0  0
   -6.0048    0.8801   -2.6281 C   0  0  0  0  0  0  0  0  0  0  0  0
   -3.4454   -0.6842   -1.9526 C   0  0  0  0  0  0  0  0  0  0  0  0
   -2.2288   -1.0112   -1.3855 C   0  0  0  0  0  0  0  0  0  0  0  0
    1.1343   -1.8215    0.6220 C   0  0  0  0  0  0  0  0  0  0  0  0
    1.9131   -3.3134    0.2406 S   0  0  0  0  0  0  0  0  0  0  0  0
    2.3509   -3.5377    1.9251 C   0  0  0  0  0  0  0  0  0  0  0  0
    1.8575   -2.5314    2.7456 C   0  0  0  0  0  0  0  0  0  0  0  0
    1.8977   -2.5156    4.1268 N   0  0  0  0  0  0  0  0  0  0  0  0
    1.9148   -1.2903    4.8093 C   0  0  0  0  0  0  0  0  0  0  0  0
    2.6711   -0.2184    4.3342 C   0  0  0  0  0  0  0  0  0  0  0  0
    2.6819    0.9780    5.0160 C   0  0  0  0  0  0  0  0  0  0  0  0
    1.9478    1.1308    6.1905 C   0  0  0  0  0  0  0  0  0  0  0  0
    2.0555    2.6983    6.9885 S   0  0  0  0  0  0  0  0  0  0  0  0
    1.2637    2.4185    8.5980 C   0  0  0  0  0  0  0  0  0  0  0  0
    1.1913    0.0663    6.6646 C   0  0  0  0  0  0  0  0  0  0  0  0
    1.1774   -1.1317    5.9791 C   0  0  0  0  0  0  0  0  0  0  0  0
    1.9224   -3.7175    4.8515 C   0  0  0  0  0  0  0  0  0  0  0  0
    1.1683   -4.8137    4.4432 C   0  0  0  0  0  0  0  0  0  0  0  0
    1.3219   -6.0413    5.0546 C   0  0  0  0  0  0  0  0  0  0  0  0
    2.2282   -6.1905    6.0971 C   0  0  0  0  0  0  0  0  0  0  0  0
    2.6125   -7.7315    6.8596 S   0  0  0  0  0  0  0  0  0  0  0  0
    1.8312   -8.9569    5.7767 C   0  0  0  0  0  0  0  0  0  0  0  0
    2.9048   -5.0699    6.5763 C   0  0  0  0  0  0  0  0  0  0  0  0
    2.7564   -3.8476    5.9624 C   0  0  0  0  0  0  0  0  0  0  0  0
    1.1928   -1.5442    1.9756 C   0  0  0  0  0  0  0  0  0  0  0  0
    0.3727   -0.0729    2.3502 S   0  0  0  0  0  0  0  0  0  0  0  0
    3.1295   -4.6912    2.3192 C   0  0  0  0  0  0  0  0  0  0  0  0
    4.1243   -4.5995    3.3007 C   0  0  0  0  0  0  0  0  0  0  0  0
    4.7894   -5.7143    3.7560 C   0  0  0  0  0  0  0  0  0  0  0  0
    4.5482   -6.9729    3.2062 C   0  0  0  0  0  0  0  0  0  0  0  0
    3.5935   -7.0654    2.1917 C   0  0  0  0  0  0  0  0  0  0  0  0
    3.2822   -8.2692    1.6827 F   0  0  0  0  0  0  0  0  0  0  0  0
    2.8912   -5.9538    1.7667 C   0  0  0  0  0  0  0  0  0  0  0  0
    1.9251   -6.1122    0.8455 F   0  0  0  0  0  0  0  0  0  0  0  0
    5.2539   -8.1636    3.6575 C   0  0  0  0  0  0  0  0  0  0  0  0
    5.9283   -8.9724    2.8158 C   0  0  0  0  0  0  0  0  0  0  0  0
    6.3039   -8.5800    1.4211 C   0  0  0  0  0  0  0  0  0  0  0  0
    5.9307   -7.6096    0.8036 O   0  0  0  0  0  0  0  0  0  0  0  0
    7.3155   -9.5632    0.9993 C   0  0  0  0  0  0  0  0  0  0  0  0
    8.0262   -9.5607   -0.2005 C   0  0  0  0  0  0  0  0  0  0  0  0
    8.9365  -10.5828   -0.3148 C   0  0  0  0  0  0  0  0  0  0  0  0
    9.1354  -11.5380    0.6934 C   0  0  0  0  0  0  0  0  0  0  0  0
    8.4466  -11.5516    1.8817 C   0  0  0  0  0  0  0  0  0  0  0  0
    7.5082  -10.5217    2.0166 C   0  0  0  0  0  0  0  0  0  0  0  0
    6.6059  -10.2249    3.1201 C   0  0  0  0  0  0  0  0  0  0  0  0
    6.3530  -11.0247    4.1994 C   0  0  0  0  0  0  0  0  0  0  0  0
    5.3680  -10.7574    5.1739 C   0  0  0  0  0  0  0  0  0  0  0  0
    4.5624  -10.6330    5.9815 N   0  0  0  0  0  0  0  0  0  0  0  0
    6.9970  -12.2551    4.4518 C   0  0  0  0  0  0  0  0  0  0  0  0
    7.4888  -13.2573    4.7180 N   0  0  0  0  0  0  0  0  0  0  0  0
   10.2038  -12.2585   -0.0897 C   0  0  0  0  0  0  0  0  0  0  0  0
    9.7860  -13.5751   -0.7787 C   0  0  0  0  0  0  0  0  0  0  0  0
   10.8544  -13.7871   -1.8272 C   0  0  0  0  0  0  0  0  0  0  0  0
   10.6683  -12.8838   -2.7813 C   0  0  0  0  0  0  0  0  0  0  0  0
    9.4706  -12.0464   -2.3943 C   0  0  0  0  0  0  0  0  0  0  0  0
    8.6297  -13.1065   -1.6715 C   0  0  0  0  0  0  0  0  0  0  0  0
    9.9822  -11.1949   -1.2128 C   0  0  0  0  0  0  0  0  0  0  0  0
   -5.4350    9.1077    0.2848 H   0  0  0  0  0  0  0  0  0  0  0  0
   -8.5119   11.0989   -3.6341 H   0  0  0  0  0  0  0  0  0  0  0  0
   -8.2479    6.1096   -4.4969 H   0  0  0  0  0  0  0  0  0  0  0  0
  -10.4850    7.5836   -6.6478 H   0  0  0  0  0  0  0  0  0  0  0  0
   -8.2216    7.0800   -7.9571 H   0  0  0  0  0  0  0  0  0  0  0  0
   -9.9610    8.0782   -9.6565 H   0  0  0  0  0  0  0  0  0  0  0  0
  -10.1245   10.6954   -9.2306 H   0  0  0  0  0  0  0  0  0  0  0  0
   -8.4836   11.3099   -7.2733 H   0  0  0  0  0  0  0  0  0  0  0  0
   -7.0737    9.1137   -6.6300 H   0  0  0  0  0  0  0  0  0  0  0  0
   -7.0235    9.4023   -8.3839 H   0  0  0  0  0  0  0  0  0  0  0  0
  -10.6436   10.1508   -6.2286 H   0  0  0  0  0  0  0  0  0  0  0  0
   -4.5520    6.3326   -2.0999 H   0  0  0  0  0  0  0  0  0  0  0  0
   -5.4053    4.3439   -2.6427 H   0  0  0  0  0  0  0  0  0  0  0  0
   -3.3716    0.9947   -8.4570 H   0  0  0  0  0  0  0  0  0  0  0  0
   -3.5999    0.4573   -6.8112 H   0  0  0  0  0  0  0  0  0  0  0  0
   -5.6054    2.1840   -8.3198 H   0  0  0  0  0  0  0  0  0  0  0  0
   -5.7168    0.4388   -8.0938 H   0  0  0  0  0  0  0  0  0  0  0  0
   -5.8059    1.5084   -6.7021 H   0  0  0  0  0  0  0  0  0  0  0  0
   -2.9790    5.2775   -7.6662 H   0  0  0  0  0  0  0  0  0  0  0  0
   -4.5440    4.5523   -7.9273 H   0  0  0  0  0  0  0  0  0  0  0  0
   -3.4188    5.0126  -10.0834 H   0  0  0  0  0  0  0  0  0  0  0  0
   -3.6535    3.2788   -9.8749 H   0  0  0  0  0  0  0  0  0  0  0  0
   -2.0641    3.9870   -9.6146 H   0  0  0  0  0  0  0  0  0  0  0  0
   -0.7904    1.9495   -6.1304 H   0  0  0  0  0  0  0  0  0  0  0  0
   -0.7976    2.1055   -7.8702 H   0  0  0  0  0  0  0  0  0  0  0  0
   -0.4715    4.5663   -7.6624 H   0  0  0  0  0  0  0  0  0  0  0  0
   -0.5026    4.4212   -5.9062 H   0  0  0  0  0  0  0  0  0  0  0  0
    0.8031    3.6815   -6.8285 H   0  0  0  0  0  0  0  0  0  0  0  0
   -0.3128    9.1942    6.6119 H   0  0  0  0  0  0  0  0  0  0  0  0
   -0.2401    8.5378    4.9932 H   0  0  0  0  0  0  0  0  0  0  0  0
   -2.7345    8.6462    4.8371 H   0  0  0  0  0  0  0  0  0  0  0  0
   -2.7893    9.3480    6.4564 H   0  0  0  0  0  0  0  0  0  0  0  0
   -2.0164   10.2255    5.1397 H   0  0  0  0  0  0  0  0  0  0  0  0
   -2.0855    5.8509    8.6524 H   0  0  0  0  0  0  0  0  0  0  0  0
   -2.3147    7.5792    8.5772 H   0  0  0  0  0  0  0  0  0  0  0  0
   -4.4647    6.4216    8.2722 H   0  0  0  0  0  0  0  0  0  0  0  0
   -3.8195    5.5146    6.9073 H   0  0  0  0  0  0  0  0  0  0  0  0
   -4.0443    7.2533    6.7756 H   0  0  0  0  0  0  0  0  0  0  0  0
    0.9992    6.8186    8.1010 H   0  0  0  0  0  0  0  0  0  0  0  0
    0.6063    5.1851    7.6219 H   0  0  0  0  0  0  0  0  0  0  0  0
    2.7244    5.8653    6.5896 H   0  0  0  0  0  0  0  0  0  0  0  0
    1.9444    7.2556    5.8313 H   0  0  0  0  0  0  0  0  0  0  0  0
    1.5098    5.6179    5.3420 H   0  0  0  0  0  0  0  0  0  0  0  0
   -2.3387    2.7300    3.7991 H   0  0  0  0  0  0  0  0  0  0  0  0
   -0.7107    2.2663    2.3204 H   0  0  0  0  0  0  0  0  0  0  0  0
    2.7523   -0.4338   -1.3036 H   0  0  0  0  0  0  0  0  0  0  0  0
    4.6104   -1.4407   -2.5174 H   0  0  0  0  0  0  0  0  0  0  0  0
    6.0622   -3.3627   -2.6620 H   0  0  0  0  0  0  0  0  0  0  0  0
    6.3762   -2.0771   -3.8748 H   0  0  0  0  0  0  0  0  0  0  0  0
    6.9377   -3.7364   -4.1640 H   0  0  0  0  0  0  0  0  0  0  0  0
    1.8695   -3.9732   -4.6083 H   0  0  0  0  0  0  0  0  0  0  0  0
   -0.0047   -2.9651   -3.3675 H   0  0  0  0  0  0  0  0  0  0  0  0
   -0.2051   -0.3274   -4.0082 H   0  0  0  0  0  0  0  0  0  0  0  0
   -2.3733    0.2364   -5.0167 H   0  0  0  0  0  0  0  0  0  0  0  0
   -6.4557    0.0321   -2.1210 H   0  0  0  0  0  0  0  0  0  0  0  0
   -5.3841    1.4583   -1.9497 H   0  0  0  0  0  0  0  0  0  0  0  0
   -6.7835    1.5107   -3.0472 H   0  0  0  0  0  0  0  0  0  0  0  0
   -4.3456   -0.8005   -1.3698 H   0  0  0  0  0  0  0  0  0  0  0  0
   -2.1936   -1.3711   -0.3678 H   0  0  0  0  0  0  0  0  0  0  0  0
    3.2604   -0.3342    3.4365 H   0  0  0  0  0  0  0  0  0  0  0  0
    3.2691    1.8075    4.6532 H   0  0  0  0  0  0  0  0  0  0  0  0
    1.4515    3.3170    9.1780 H   0  0  0  0  0  0  0  0  0  0  0  0
    0.1939    2.2810    8.4702 H   0  0  0  0  0  0  0  0  0  0  0  0
    1.7190    1.5624    9.0871 H   0  0  0  0  0  0  0  0  0  0  0  0
    0.5980    0.1604    7.5594 H   0  0  0  0  0  0  0  0  0  0  0  0
    0.5861   -1.9561    6.3495 H   0  0  0  0  0  0  0  0  0  0  0  0
    0.4727   -4.7097    3.6237 H   0  0  0  0  0  0  0  0  0  0  0  0
    0.7338   -6.8747    4.7058 H   0  0  0  0  0  0  0  0  0  0  0  0
    2.2241   -9.9153    6.1016 H   0  0  0  0  0  0  0  0  0  0  0  0
    0.7517   -8.9324    5.8956 H   0  0  0  0  0  0  0  0  0  0  0  0
    2.1207   -8.7737    4.7460 H   0  0  0  0  0  0  0  0  0  0  0  0
    3.5725   -5.1821    7.4164 H   0  0  0  0  0  0  0  0  0  0  0  0
    3.3111   -2.9911    6.3159 H   0  0  0  0  0  0  0  0  0  0  0  0
    4.3695   -3.6300    3.7030 H   0  0  0  0  0  0  0  0  0  0  0  0
    5.5368   -5.6177    4.5281 H   0  0  0  0  0  0  0  0  0  0  0  0
    5.2316   -8.3609    4.7226 H   0  0  0  0  0  0  0  0  0  0  0  0
    7.8469   -8.8028   -0.9469 H   0  0  0  0  0  0  0  0  0  0  0  0
    8.6197  -12.2817    2.6549 H   0  0  0  0  0  0  0  0  0  0  0  0
   11.1803  -12.3191    0.3868 H   0  0  0  0  0  0  0  0  0  0  0  0
    9.5936  -14.4020   -0.1008 H   0  0  0  0  0  0  0  0  0  0  0  0
   11.6423  -14.5122   -1.7426 H   0  0  0  0  0  0  0  0  0  0  0  0
   11.2700  -12.7036   -3.6527 H   0  0  0  0  0  0  0  0  0  0  0  0
    8.9911  -11.4813   -3.1889 H   0  0  0  0  0  0  0  0  0  0  0  0
    7.7805  -12.7022   -1.1237 H   0  0  0  0  0  0  0  0  0  0  0  0
    8.2879  -13.8896   -2.3459 H   0  0  0  0  0  0  0  0  0  0  0  0
   10.8109  -10.5439   -1.4850 H   0  0  0  0  0  0  0  0  0  0  0  0
  1  2  2  0  0  0  0
  2  3  1  0  0  0  0
  3  4  2  0  0  0  0
  3  5  1  0  0  0  0
  5  6  2  0  0  0  0
  6  7  1  0  0  0  0
  7  8  2  0  0  0  0
  8  9  1  0  0  0  0
  9 10  2  0  0  0  0
 10 11  1  0  0  0  0
 11 12  2  0  0  0  0
 12 13  1  0  0  0  0
 13 14  3  0  0  0  0
 12 15  1  0  0  0  0
 15 16  3  0  0  0  0
  8 17  1  0  0  0  0
 17 18  1  0  0  0  0
 18 19  1  0  0  0  0
 19 20  2  0  0  0  0
 20 21  1  0  0  0  0
 21 22  1  0  0  0  0
 21 23  1  0  0  0  0
  1 24  1  0  0  0  0
 24 25  2  0  0  0  0
 25 26  1  0  0  0  0
 26 27  2  0  0  0  0
 27 28  1  0  0  0  0
 28 29  2  0  0  0  0
 29 30  1  0  0  0  0
 30 31  1  0  0  0  0
 30 32  2  0  0  0  0
 32 33  1  0  0  0  0
 33 34  1  0  0  0  0
 34 35  1  0  0  0  0
 33 36  1  0  0  0  0
 36 37  1  0  0  0  0
 33 38  1  0  0  0  0
 38 39  1  0  0  0  0
 32 40  1  0  0  0  0
 27 41  1  0  0  0  0
 41 42  2  0  0  0  0
 42 43  1  0  0  0  0
 43 44  1  0  0  0  0
 44 45  1  0  0  0  0
 45 46  1  0  0  0  0
 46 47  1  0  0  0  0
 47 48  1  0  0  0  0
 48 49  1  0  0  0  0
 47 50  1  0  0  0  0
 50 51  1  0  0  0  0
 47 52  1  0  0  0  0
 52 53  1  0  0  0  0
 46 54  2  0  0  0  0
 54 55  1  0  0  0  0
 54 56  1  0  0  0  0
 43 57  2  0  0  0  0
 57 58  1  0  0  0  0
 42 59  1  0  0  0  0
 59 60  2  0  0  0  0
 60 61  1  0  0  0  0
 60 62  1  0  0  0  0
 62 63  2  0  0  0  0
 63 64  1  0  0  0  0
 64 65  1  0  0  0  0
 65 66  2  0  0  0  0
 66 67  1  0  0  0  0
 67 68  2  0  0  0  0
 68 69  1  0  0  0  0
 69 70  1  0  0  0  0
 68 71  1  0  0  0  0
 71 72  2  0  0  0  0
 64 73  1  0  0  0  0
 73 74  2  0  0  0  0
 74 75  1  0  0  0  0
 75 76  2  0  0  0  0
 76 77  1  0  0  0  0
 77 78  1  0  0  0  0
 76 79  1  0  0  0  0
 79 80  2  0  0  0  0
 63 81  1  0  0  0  0
 81 82  1  0  0  0  0
 82 83  1  0  0  0  0
 83 84  2  0  0  0  0
 84 85  1  0  0  0  0
 85 86  1  0  0  0  0
 86 87  2  0  0  0  0
 87 88  1  0  0  0  0
 88 89  2  0  0  0  0
 89 90  1  0  0  0  0
 90 91  1  0  0  0  0
 89 92  1  0  0  0  0
 92 93  2  0  0  0  0
 85 94  1  0  0  0  0
 94 95  2  0  0  0  0
 95 96  1  0  0  0  0
 96 97  2  0  0  0  0
 97 98  1  0  0  0  0
 98 99  1  0  0  0  0
 97100  1  0  0  0  0
100101  2  0  0  0  0
 84102  1  0  0  0  0
102103  1  0  0  0  0
 83104  1  0  0  0  0
104105  2  0  0  0  0
105106  1  0  0  0  0
106107  2  0  0  0  0
107108  1  0  0  0  0
108109  1  0  0  0  0
108110  2  0  0  0  0
110111  1  0  0  0  0
107112  1  0  0  0  0
112113  2  0  0  0  0
113114  1  0  0  0  0
114115  2  0  0  0  0
114116  1  0  0  0  0
116117  2  0  0  0  0
117118  1  0  0  0  0
118119  2  0  0  0  0
119120  1  0  0  0  0
120121  2  0  0  0  0
121122  1  0  0  0  0
122123  2  0  0  0  0
123124  1  0  0  0  0
124125  3  0  0  0  0
123126  1  0  0  0  0
126127  3  0  0  0  0
119128  1  0  0  0  0
128129  1  0  0  0  0
129130  1  0  0  0  0
130131  2  0  0  0  0
131132  1  0  0  0  0
132133  1  0  0  0  0
132134  1  0  0  0  0
 11  2  1  0  0  0  0
 23 17  1  0  0  0  0
 58 24  1  0  0  0  0
103 62  1  0  0  0  0
110104  1  0  0  0  0
122113  1  0  0  0  0
134128  1  0  0  0  0
 10  5  1  0  0  0  0
 22 18  1  0  0  0  0
 57 26  1  0  0  0  0
 72 65  1  0  0  0  0
 80 73  1  0  0  0  0
102 81  2  0  0  0  0
121116  1  0  0  0  0
133129  1  0  0  0  0
 23  7  1  0  0  0  0
 40 28  1  0  0  0  0
 61 41  1  0  0  0  0
 93 86  1  0  0  0  0
101 94  1  0  0  0  0
134118  1  0  0  0  0
 55 44  2  0  0  0  0
  1135  1  0  0  0  0
  6136  1  0  0  0  0
  9137  1  0  0  0  0
 17138  1  0  0  0  0
 18139  1  0  0  0  0
 19140  1  0  0  0  0
 20141  1  0  0  0  0
 21142  1  0  0  0  0
 22143  1  0  0  0  0
 22144  1  0  0  0  0
 23145  1  0  0  0  0
 25146  1  0  0  0  0
 29147  1  0  0  0  0
 34148  1  0  0  0  0
 34149  1  0  0  0  0
 35150  1  0  0  0  0
 35151  1  0  0  0  0
 35152  1  0  0  0  0
 36153  1  0  0  0  0
 36154  1  0  0  0  0
 37155  1  0  0  0  0
 37156  1  0  0  0  0
 37157  1  0  0  0  0
 38158  1  0  0  0  0
 38159  1  0  0  0  0
 39160  1  0  0  0  0
 39161  1  0  0  0  0
 39162  1  0  0  0  0
 48163  1  0  0  0  0
 48164  1  0  0  0  0
 49165  1  0  0  0  0
 49166  1  0  0  0  0
 49167  1  0  0  0  0
 50168  1  0  0  0  0
 50169  1  0  0  0  0
 51170  1  0  0  0  0
 51171  1  0  0  0  0
 51172  1  0  0  0  0
 52173  1  0  0  0  0
 52174  1  0  0  0  0
 53175  1  0  0  0  0
 53176  1  0  0  0  0
 53177  1  0  0  0  0
 55178  1  0  0  0  0
 59179  1  0  0  0  0
 66180  1  0  0  0  0
 67181  1  0  0  0  0
 70182  1  0  0  0  0
 70183  1  0  0  0  0
 70184  1  0  0  0  0
 71185  1  0  0  0  0
 72186  1  0  0  0  0
 74187  1  0  0  0  0
 75188  1  0  0  0  0
 78189  1  0  0  0  0
 78190  1  0  0  0  0
 78191  1  0  0  0  0
 79192  1  0  0  0  0
 80193  1  0  0  0  0
 87194  1  0  0  0  0
 88195  1  0  0  0  0
 91196  1  0  0  0  0
 91197  1  0  0  0  0
 91198  1  0  0  0  0
 92199  1  0  0  0  0
 93200  1  0  0  0  0
 95201  1  0  0  0  0
 96202  1  0  0  0  0
 99203  1  0  0  0  0
 99204  1  0  0  0  0
 99205  1  0  0  0  0
100206  1  0  0  0  0
101207  1  0  0  0  0
105208  1  0  0  0  0
106209  1  0  0  0  0
112210  1  0  0  0  0
117211  1  0  0  0  0
120212  1  0  0  0  0
128213  1  0  0  0  0
129214  1  0  0  0  0
130215  1  0  0  0  0
131216  1  0  0  0  0
132217  1  0  0  0  0
133218  1  0  0  0  0
133219  1  0  0  0  0
134220  1  0  0  0  0
M  END
