208

C          7.71300       -3.26980        2.04190
C          8.15660       -2.80700        3.24410
C          7.46190       -1.84530        4.13710
O          6.30780       -1.46900        4.09200
C          8.48890       -1.36170        5.07560
C          8.32120       -0.38960        6.06000
C          9.45760       -0.12560        6.78490
C         10.67550       -0.77900        6.54870
C         10.85390       -1.74250        5.58520
C          9.70830       -2.02700        4.83610
C          9.51060       -2.97640        3.74750
C         10.40850       -3.92360        3.33440
C         11.70890       -4.07270        3.86110
N         12.77630       -4.24870        4.24470
C         10.14770       -4.91420        2.36260
N         10.00380       -5.76510        1.60520
C         11.39010       -0.00750        7.62930
C         12.32130        1.15050        7.19270
C         11.79920        1.64420        5.86620
C         10.64660        2.26140        6.08900
C         10.36870        2.19690        7.57060
C         11.80330        2.26300        8.11830
C         10.03370        0.71920        7.89310
C          6.40310       -3.19050        1.50620
C          5.18720       -3.12140        2.13250
C          4.09650       -3.04440        1.24310
C          2.73210       -2.91000        1.58090
C          2.28020       -2.99630        2.95260
C          2.69290       -3.86600        3.92590
C          2.00260       -3.67210        5.13760
Cl         2.29740       -4.63280        6.52950
C          1.07690       -2.66760        5.12860
Si        -0.11830       -2.12910        6.49410
C         -1.17610       -3.64590        6.98000
C         -1.79000       -4.34440        5.77050
C          0.90940       -1.48590        7.97210
C          1.89490       -0.38980        7.57730
C         -1.19470       -0.76080        5.70760
C         -2.24320       -0.19300        6.65790
S          1.04720       -1.93340        3.56870
C          1.86380       -2.65280        0.52960
C          2.27180       -2.60350       -0.82760
C          3.62420       -2.80940       -1.17490
C          4.08910       -2.72110       -2.54270
S          3.13230       -3.26620       -3.89020
C          4.30850       -2.76840       -5.05030
Si         4.01870       -2.88330       -6.91580
C          4.02680       -1.10290       -7.62810
C          3.50170       -0.04130       -6.66430
C          2.32470       -3.73560       -7.17870
C          1.12110       -2.85140       -6.86950
C          5.40630       -3.95150       -7.67800
C          5.33480       -4.01770       -9.19930
C          5.37590       -2.22380       -4.39340
C          5.27550       -2.20210       -2.99090
Cl         6.73650       -1.58950       -5.22650
C          4.50690       -3.01010       -0.11520
S          6.22730       -3.21090       -0.24190
C          1.20480       -2.21520       -1.67120
C          0.04340       -1.95410       -1.00570
S          0.16930       -2.29120        0.70570
C         -1.11220       -1.29520       -1.52000
C         -1.11940       -0.25200       -2.43800
N          0.00560        0.36350       -2.96610
C          0.00720        0.71920       -4.31990
C          0.68010        1.86020       -4.75940
C          0.69530        2.18150       -6.09680
C          0.03130        1.38270       -7.02780
S          0.15730        1.87710       -8.71700
C         -0.74250        0.58400       -9.61960
C         -0.66410        0.26450       -6.59130
C         -0.66790       -0.06600       -5.24990
C          1.13540        0.55230       -2.15700
C          0.98830        0.81780       -0.79670
C          2.07900        0.82170        0.04870
C          3.35090        0.58620       -0.45750
S          4.79670        0.41640        0.54040
C          4.15470        0.33280        2.23430
C          3.51520        0.44390       -1.83370
C          2.42450        0.41150       -2.67330
C         -2.44300        0.19360       -2.67150
S         -3.15080        1.37860       -3.70770
C         -4.74920        1.07060       -3.01410
C         -4.71820        0.04270       -2.06940
N         -5.79050       -0.48790       -1.38350
C         -7.01460       -0.73470       -2.00950
C         -8.20220       -0.66820       -1.28320
C         -9.41540       -0.85050       -1.91070
C         -9.46770       -1.08020       -3.27920
S        -10.98110       -1.24000       -4.17390
C        -12.14930       -0.30590       -3.14120
C         -8.28200       -1.19910       -3.99950
C         -7.06810       -1.03780       -3.37100
C         -5.57120       -0.87810       -0.05140
C         -4.82020       -0.05880        0.79350
C         -4.54520       -0.45500        2.08180
C         -5.02470       -1.67230        2.56350
S         -4.58910       -2.07910        4.22170
C         -5.39980       -3.67620        4.51590
C         -5.79550       -2.47760        1.73490
C         -6.06170       -2.08420        0.43760
C         -3.39770       -0.43510       -1.88860
S         -2.70030       -1.64430       -0.86790
C         -5.81210        1.91200       -3.41340
C         -5.78460        2.75020       -4.52460
C         -6.93790        3.49670       -4.65130
Cl        -7.19280        4.58720       -5.94390
C         -7.88970        3.28720       -3.63470
S         -7.28090        2.09790       -2.50810
C         -9.11000        3.95200       -3.57720
C        -10.13670        3.94490       -2.65300
C        -10.13710        3.14770       -1.45500
O         -9.28370        2.31000       -1.18280
N        -11.17850        3.36660       -0.56420
C        -11.13360        2.62950        0.69330
C        -11.95830        1.35150        0.62720
C        -12.22970        4.20920       -0.80420
S        -13.43620        4.38440        0.31120
N        -12.26240        4.88680       -1.98530
C        -13.37760        5.78440       -2.26460
C        -13.13810        7.16720       -1.67330
C        -11.25410        4.83650       -2.94460
O        -11.33700        5.50590       -3.95510
H          8.44280       -3.70780        1.37080
H          7.36550        0.08840        6.20910
H         11.79740       -2.23250        5.41170
H         11.81620       -0.60140        8.43520
H         13.38160        0.91680        7.23450
H         12.27840        1.45050        4.92440
H          9.97020        2.68550        5.37020
H          9.65170        2.91680        7.95640
H         12.28150        3.22310        7.93100
H         11.87580        2.01590        9.17660
H          9.57410        0.60180        8.87250
H          5.07890       -3.10760        3.19930
H          3.41840       -4.64390        3.77410
H         -0.57240       -4.36330        7.53580
H         -1.97380       -3.32960        7.65250
H         -1.01060       -4.71790        5.11050
H         -2.40990       -3.65380        5.20520
H         -2.40470       -5.18760        6.08150
H          1.46110       -2.30970        8.42530
H          0.23980       -1.10440        8.74330
H          1.37120        0.46810        7.16300
H          2.46640       -0.05550        8.44110
H          2.59270       -0.75610        6.82770
H         -0.55650        0.05070        5.35460
H         -1.70160       -1.15490        4.82550
H         -2.92890       -0.97240        6.97840
H         -2.82640        0.58430        6.16840
H         -1.77440        0.23610        7.54010
H          3.42860       -1.07840       -8.54040
H          5.04190       -0.83200       -7.92080
H          3.47370        0.93460       -7.14530
H          2.49520       -0.27940       -6.32830
H          4.14550        0.02940       -5.79090
H          2.25120       -4.07280       -8.21330
H          2.26970       -4.63130       -6.55810
H          1.12020       -1.96850       -7.50360
H          0.19140       -3.39310       -7.03600
H          1.14070       -2.52420       -5.83270
H          5.35600       -4.96400       -7.27540
H          6.37860       -3.55370       -7.38970
H          6.14590       -4.62430       -9.59750
H          5.41150       -3.02260       -9.62990
H          4.39420       -4.45650       -9.52280
H          6.03010       -1.77440       -2.35790
H          1.28840       -2.10380       -2.73460
H          1.19050        2.48690       -4.04440
H          1.22090        3.05900       -6.44020
H         -0.65170        0.84480      -10.66950
H         -1.78930        0.58540       -9.33020
H         -0.28350       -0.38390       -9.43980
H         -1.19770       -0.36850       -7.28110
H         -1.18960       -0.95380       -4.92340
H          0.00330        0.98990       -0.38830
H          1.92180        1.00160        1.10000
H          3.86560        1.32360        2.57310
H          3.31700       -0.35590        2.27220
H          4.96720       -0.05090        2.84500
H          4.50890        0.31960       -2.23330
H          2.56640        0.24310       -3.73010
H         -8.17230       -0.44150       -0.22950
H        -10.31870       -0.79910       -1.32560
H        -11.68120        0.62340       -2.83020
H        -12.46130       -0.89800       -2.28530
H        -13.00730       -0.09830       -3.77300
H         -8.32650       -1.41180       -5.05640
H         -6.15330       -1.12740       -3.93760
H         -4.45510        0.88930        0.42760
H         -3.95730        0.17250        2.73370
H         -6.47490       -3.57370        4.40090
H         -4.99740       -4.42700        3.84210
H         -5.16280       -3.93910        5.54210
H         -6.18340       -3.42230        2.07960
H         -6.64420       -2.72440       -0.20800
H         -4.96120        2.79200       -5.21520
H         -9.28790        4.63390       -4.40550
H        -10.08460        2.39040        0.87700
H        -11.51050        3.28300        1.48220
H        -11.88460        0.82320        1.57340
H        -11.58480        0.70850       -0.16530
H        -13.00360        1.58230        0.43720
H        -14.28440        5.34150       -1.84980
H        -13.45800        5.85070       -3.35100
H        -12.22780        7.59700       -2.08440
H        -13.97380        7.81550       -1.91920
H        -13.04920        7.10850       -0.59100
