182

C         -2.59930       -7.15610       -2.02130
C         -2.24980       -7.84440       -3.13040
C         -1.19120       -7.40710       -4.08480
O         -0.38600       -6.51380       -3.91710
C         -1.21280       -8.37790       -5.18430
C         -0.45050       -8.33790       -6.35080
C         -0.65030       -9.41010       -7.18500
C         -1.54280      -10.44930       -6.88410
C         -2.30900      -10.49540       -5.74450
C         -2.12210       -9.41350       -4.87750
C         -2.76070       -9.12390       -3.59830
C         -3.70530       -9.89640       -2.97890
C         -4.35130       -9.57780       -1.76460
N         -4.92630       -9.39780       -0.78740
C         -4.17380      -11.13510       -3.46710
N         -4.59850      -12.14910       -3.79750
C         -1.21660      -11.20200       -8.14930
C         -0.28010      -12.43070       -8.03270
C          0.58550      -12.19750       -6.81930
C          1.42710      -11.21330       -7.10590
C          1.14580      -10.76280       -8.51820
C          0.72340      -12.09930       -9.14890
C         -0.22570      -10.04320       -8.48580
C         -2.18050       -5.80430       -1.75120
N         -2.02610       -5.44900       -0.45950
N         -1.59070       -4.31090       -0.11270
C         -1.27410       -3.33590       -0.99410
C         -1.69040       -3.52060       -2.32800
C         -2.01890       -2.58150       -3.41620
O         -2.03520       -1.37430       -3.41670
N         -2.43800       -3.38290       -4.47400
C         -2.86920       -2.85150       -5.74870
C         -4.34300       -2.46220       -5.72420
C         -2.57180       -4.70970       -4.12410
O         -2.99890       -5.57830       -4.84530
C         -2.10230       -4.79140       -2.71290
C         -0.64150       -2.19380       -0.45110
C          0.07090       -1.15690       -1.06220
N          0.46240       -1.07050       -2.37470
C          0.68810        0.22920       -2.87730
C          1.89010        0.55800       -3.50020
C          2.16030        1.87120       -3.81810
C          1.24450        2.87470       -3.50660
S          1.74940        4.54490       -3.76670
C          0.66240        5.47840       -2.65150
C          0.00160        2.53250       -2.99050
C         -0.27420        1.21560       -2.68340
C          0.79510       -2.17220       -3.16550
C          0.65070       -2.08620       -4.55400
C          1.01700       -3.13740       -5.36110
C          1.54500       -4.30390       -4.80890
S          2.02500       -5.55730       -5.94210
C          2.63460       -6.89990       -4.88660
C          1.68700       -4.39850       -3.43080
C          1.31290       -3.34590       -2.62030
C          0.39960       -0.16430       -0.10390
S          1.29850        1.31990       -0.18350
C          0.93920        1.62660        1.49950
C          0.35350        0.53030        2.13910
N          0.25120        0.38600        3.50190
C          1.19750        0.99400        4.34460
C          2.53960        1.07440        3.96920
C          3.44000        1.75760        4.75320
C          3.02880        2.36730        5.93820
S          4.25770        3.26690        6.82710
C          3.31330        4.13630        8.11040
C          1.70850        2.23560        6.34690
C          0.80360        1.55450        5.55610
C         -0.76970       -0.40390        4.04680
C         -2.04900       -0.37270        3.49920
C         -3.04920       -1.17900        4.00450
C         -2.78500       -2.02710        5.07170
S         -3.98340       -3.10470        5.78570
C         -5.27410       -3.19970        4.51210
C         -1.51370       -2.03390        5.64460
C         -0.51490       -1.23470        5.13820
C          0.00870       -0.46750        1.19280
S         -0.77140       -2.00870        1.29450
C          1.21620        2.92960        2.00560
C          0.50420        3.55370        3.02290
F         -0.58880        2.96690        3.54920
C          0.82480        4.83300        3.47120
F          0.10410        5.32500        4.50030
C          1.84920        5.59070        2.92280
C          2.55600        5.00980        1.83340
N          3.48440        5.73170        1.18570
C          4.06680        5.22660        0.12460
C          5.01720        6.13020       -0.59750
C          4.26730        6.89550       -1.69210
C          3.74360        3.91820       -0.33290
N          2.84150        3.20910        0.30160
C          2.22080        3.71830        1.37120
C          4.41760        3.24690       -1.48670
C          5.70550        2.56270       -1.02020
C          2.20230        6.90850        3.37820
C          1.37380        7.89100        3.79590
C          1.90050        9.04290        4.58490
O          3.06000        9.35710        4.71970
C          0.71290        9.66290        5.20120
C          0.69360       10.69400        6.13930
C         -0.56650       11.04760        6.55750
C         -1.72830       10.42100        6.08430
C         -1.72720        9.40960        5.15390
C         -0.45430        9.03800        4.71040
C         -0.06760        8.04030        3.71890
C         -0.88000        7.52500        2.74420
C         -2.26430        7.78200        2.65240
N         -3.39380        7.94660        2.53160
C         -0.42870        6.75570        1.65300
N         -0.12680        6.17290        0.70970
C         -2.63180       11.26700        6.94640
C         -3.19880       10.59910        8.21710
C         -3.62430       11.76530        9.07970
C         -2.52490       12.35940        9.52600
C         -1.33780       11.60480        8.97220
C         -1.91600       10.18390        8.94910
C         -1.33740       11.96720        7.47160
H         -3.23540       -7.59410       -1.26460
H          0.21730       -7.51490       -6.55260
H         -2.99480      -11.29840       -5.53200
H         -2.04820      -11.37770       -8.82850
H         -0.78700      -13.39050       -8.08260
H          0.46270      -12.71770       -5.88720
H          2.14880      -10.74780       -6.45990
H          1.93710      -10.20390       -9.01090
H          0.26160      -11.98970      -10.12920
H          1.54160      -12.81570       -9.20560
H         -0.40940       -9.45870       -9.38500
H         -2.68960       -3.62730       -6.49690
H         -2.24840       -1.97850       -5.96230
H         -4.51630       -1.70050       -4.96750
H         -4.63480       -2.06640       -6.69280
H         -4.95790       -3.33130       -5.50120
H          2.62280       -0.21100       -3.69530
H          3.09790        2.13930       -4.28040
H          0.66670        5.02200       -1.66640
H          1.08080        6.47840       -2.59610
H         -0.34330        5.52930       -3.05780
H         -0.74870        3.28400       -2.80710
H         -1.23260        0.93960       -2.27260
H          0.24580       -1.18310       -4.98530
H          0.90250       -3.06800       -6.43230
H          2.89590       -7.71200       -5.55840
H          1.83890       -7.20810       -4.21510
H          3.51560       -6.57280       -4.34200
H          2.08720       -5.28680       -2.97230
H          1.45110       -3.42920       -1.55260
H          2.87130        0.61000        3.05280
H          4.47510        1.83180        4.45710
H          2.52200        4.72100        7.65030
H          4.02380        4.79570        8.59930
H          2.91510        3.42690        8.83040
H          1.36400        2.67170        7.27030
H         -0.22880        1.48330        5.86310
H         -2.26270        0.30180        2.68410
H         -4.03130       -1.12950        3.56340
H         -5.93020       -4.00890        4.81750
H         -5.83480       -2.27000        4.47060
H         -4.81830       -3.43200        3.55440
H         -1.31940       -2.68690        6.48130
H          0.47350       -1.25940        5.57240
H          5.42040        6.84320        0.12220
H          5.83730        5.56310       -1.03640
H          3.83920        6.21320       -2.42330
H          3.46300        7.47740       -1.24860
H          4.94590        7.57250       -2.20470
H          3.73440        2.49020       -1.87350
H          4.63820        3.96410       -2.27630
H          6.18870        2.06910       -1.85940
H          5.47610        1.81660       -0.26340
H          6.40140        3.28170       -0.59320
H          3.26470        7.12280        3.40960
H          1.60980       11.15130        6.47870
H         -2.62460        8.92940        4.80010
H         -3.36920       11.86500        6.41470
H         -3.94300        9.82910        8.03300
H         -4.64630       12.06160        9.22650
H         -2.44510       13.25100       10.11980
H         -0.38640       11.75100        9.47660
H         -2.11780        9.80580        9.95000
H         -1.30690        9.46490        8.40430
H         -1.21160       13.03290        7.29080
