
  xtb     02082222263D
 energy: -364.484876229506 gnorm: 0.000462453659 xtb: 6.4.1 (unknown)
218240  0     0  0            999 V2000
    4.9295    5.9433   -5.3518 C   0  0  0  0  0  0  0  0  0  0  0  0
    5.6757    6.3558   -4.2802 C   0  0  0  0  0  0  0  0  0  0  0  0
    5.8799    5.5913   -3.0454 C   0  0  0  0  0  0  0  0  0  0  0  0
    5.5264    4.4470   -2.8132 O   0  0  0  0  0  0  0  0  0  0  0  0
    6.6461    6.4623   -2.1401 C   0  0  0  0  0  0  0  0  0  0  0  0
    7.0384    6.1767   -0.8335 C   0  0  0  0  0  0  0  0  0  0  0  0
    7.7391    7.1903   -0.2257 C   0  0  0  0  0  0  0  0  0  0  0  0
    8.0332    8.3983   -0.8725 C   0  0  0  0  0  0  0  0  0  0  0  0
    7.6513    8.6930   -2.1602 C   0  0  0  0  0  0  0  0  0  0  0  0
    6.9312    7.6765   -2.7974 C   0  0  0  0  0  0  0  0  0  0  0  0
    6.3526    7.6290   -4.1415 C   0  0  0  0  0  0  0  0  0  0  0  0
    6.4154    8.6401   -5.0655 C   0  0  0  0  0  0  0  0  0  0  0  0
    5.8766    8.5991   -6.3685 C   0  0  0  0  0  0  0  0  0  0  0  0
    5.4858    8.6503   -7.4475 N   0  0  0  0  0  0  0  0  0  0  0  0
    7.0368    9.8860   -4.8432 C   0  0  0  0  0  0  0  0  0  0  0  0
    7.5146   10.9238   -4.7256 N   0  0  0  0  0  0  0  0  0  0  0  0
    8.7757    8.9487    0.3195 C   0  0  0  0  0  0  0  0  0  0  0  0
   10.3168    8.9263    0.2407 C   0  0  0  0  0  0  0  0  0  0  0  0
   10.7543    9.0593    1.6816 C   0  0  0  0  0  0  0  0  0  0  0  0
   10.4747    7.9166    2.2954 C   0  0  0  0  0  0  0  0  0  0  0  0
    9.8437    6.9918    1.2795 C   0  0  0  0  0  0  0  0  0  0  0  0
   10.5955    7.4343    0.0175 C   0  0  0  0  0  0  0  0  0  0  0  0
    8.4463    7.6025    1.0415 C   0  0  0  0  0  0  0  0  0  0  0  0
    4.0557    4.8496   -5.4515 C   0  0  0  0  0  0  0  0  0  0  0  0
    3.2137    4.6620   -6.5371 C   0  0  0  0  0  0  0  0  0  0  0  0
    2.2376    3.6834   -6.3511 C   0  0  0  0  0  0  0  0  0  0  0  0
    1.2570    3.3717   -7.3879 C   0  0  0  0  0  0  0  0  0  0  0  0
    0.5149    2.4154   -7.4037 O   0  0  0  0  0  0  0  0  0  0  0  0
    1.2581    4.2681   -8.3856 O   0  0  0  0  0  0  0  0  0  0  0  0
    2.2916    3.1156   -5.0658 C   0  0  0  0  0  0  0  0  0  0  0  0
    3.6795    3.6949   -4.1979 S   0  0  0  0  0  0  0  0  0  0  0  0
    1.3828    2.2507   -4.4062 C   0  0  0  0  0  0  0  0  0  0  0  0
    1.1321    2.1985   -3.0262 C   0  0  0  0  0  0  0  0  0  0  0  0
    1.5387    3.0812   -2.0438 N   0  0  0  0  0  0  0  0  0  0  0  0
    1.7573    2.5596   -0.7509 C   0  0  0  0  0  0  0  0  0  0  0  0
    1.2028    3.1898    0.3623 C   0  0  0  0  0  0  0  0  0  0  0  0
    1.4308    2.6907    1.6243 C   0  0  0  0  0  0  0  0  0  0  0  0
    2.2210    1.5555    1.8057 C   0  0  0  0  0  0  0  0  0  0  0  0
    2.4643    1.0262    3.4684 S   0  0  0  0  0  0  0  0  0  0  0  0
    3.7099   -0.2834    3.3402 C   0  0  0  0  0  0  0  0  0  0  0  0
    2.7674    0.9226    0.6971 C   0  0  0  0  0  0  0  0  0  0  0  0
    2.5349    1.4205   -0.5708 C   0  0  0  0  0  0  0  0  0  0  0  0
    1.7590    4.4410   -2.2611 C   0  0  0  0  0  0  0  0  0  0  0  0
    1.0603    5.1500   -3.2419 C   0  0  0  0  0  0  0  0  0  0  0  0
    1.4042    6.4501   -3.5360 C   0  0  0  0  0  0  0  0  0  0  0  0
    2.4282    7.0887   -2.8377 C   0  0  0  0  0  0  0  0  0  0  0  0
    2.8925    8.7020   -3.3858 S   0  0  0  0  0  0  0  0  0  0  0  0
    3.8114    9.3896   -1.9771 C   0  0  0  0  0  0  0  0  0  0  0  0
    3.0614    6.4203   -1.7993 C   0  0  0  0  0  0  0  0  0  0  0  0
    2.7333    5.1104   -1.5194 C   0  0  0  0  0  0  0  0  0  0  0  0
    0.2934    1.1053   -2.7161 C   0  0  0  0  0  0  0  0  0  0  0  0
   -0.4060    0.5202   -1.2504 S   0  0  0  0  0  0  0  0  0  0  0  0
   -1.2257   -0.7744   -2.1321 C   0  0  0  0  0  0  0  0  0  0  0  0
   -0.9639   -0.7316   -3.4865 C   0  0  0  0  0  0  0  0  0  0  0  0
   -1.3779   -1.6763   -4.4082 N   0  0  0  0  0  0  0  0  0  0  0  0
   -2.6812   -2.1991   -4.3270 C   0  0  0  0  0  0  0  0  0  0  0  0
   -2.8871   -3.5736   -4.2686 C   0  0  0  0  0  0  0  0  0  0  0  0
   -4.1655   -4.0883   -4.1995 C   0  0  0  0  0  0  0  0  0  0  0  0
   -5.2594   -3.2319   -4.1936 C   0  0  0  0  0  0  0  0  0  0  0  0
   -6.9269   -3.8090   -4.1506 S   0  0  0  0  0  0  0  0  0  0  0  0
   -6.7728   -5.4581   -3.3982 C   0  0  0  0  0  0  0  0  0  0  0  0
   -5.0598   -1.8558   -4.2655 C   0  0  0  0  0  0  0  0  0  0  0  0
   -3.7813   -1.3428   -4.3259 C   0  0  0  0  0  0  0  0  0  0  0  0
   -0.4923   -2.1441   -5.3817 C   0  0  0  0  0  0  0  0  0  0  0  0
   -0.9759   -2.7108   -6.5627 C   0  0  0  0  0  0  0  0  0  0  0  0
   -0.1041   -3.1850   -7.5172 C   0  0  0  0  0  0  0  0  0  0  0  0
    1.2734   -3.0806   -7.3354 C   0  0  0  0  0  0  0  0  0  0  0  0
    2.3024   -3.7484   -8.6078 S   0  0  0  0  0  0  0  0  0  0  0  0
    3.9796   -3.2857   -8.0897 C   0  0  0  0  0  0  0  0  0  0  0  0
    1.7599   -2.4968   -6.1751 C   0  0  0  0  0  0  0  0  0  0  0  0
    0.8861   -2.0559   -5.2017 C   0  0  0  0  0  0  0  0  0  0  0  0
   -0.1028    0.3545   -3.8084 C   0  0  0  0  0  0  0  0  0  0  0  0
    0.4835    1.0173   -5.2905 S   0  0  0  0  0  0  0  0  0  0  0  0
   -1.9882   -1.6487   -1.2836 C   0  0  0  0  0  0  0  0  0  0  0  0
   -1.4367   -2.2300   -0.1539 C   0  0  0  0  0  0  0  0  0  0  0  0
   -0.0651   -2.3504    0.0300 N   0  0  0  0  0  0  0  0  0  0  0  0
    0.4186   -2.3180    1.3438 C   0  0  0  0  0  0  0  0  0  0  0  0
   -0.1119   -1.3903    2.2379 C   0  0  0  0  0  0  0  0  0  0  0  0
    0.2427   -1.4193    3.5701 C   0  0  0  0  0  0  0  0  0  0  0  0
    1.1411   -2.3737    4.0252 C   0  0  0  0  0  0  0  0  0  0  0  0
    1.5852   -2.4968    5.7336 S   0  0  0  0  0  0  0  0  0  0  0  0
   -0.0188   -2.1653    6.5216 C   0  0  0  0  0  0  0  0  0  0  0  0
    1.7286   -3.2550    3.1248 C   0  0  0  0  0  0  0  0  0  0  0  0
    1.3698   -3.2322    1.7940 C   0  0  0  0  0  0  0  0  0  0  0  0
    0.7218   -2.8469   -1.0180 C   0  0  0  0  0  0  0  0  0  0  0  0
    2.0549   -2.4548   -1.1364 C   0  0  0  0  0  0  0  0  0  0  0  0
    2.8557   -2.9912   -2.1204 C   0  0  0  0  0  0  0  0  0  0  0  0
    2.3441   -3.9271   -3.0175 C   0  0  0  0  0  0  0  0  0  0  0  0
    3.4685   -4.5844   -4.2095 S   0  0  0  0  0  0  0  0  0  0  0  0
    2.4777   -5.7807   -5.1460 C   0  0  0  0  0  0  0  0  0  0  0  0
    1.0074   -4.2892   -2.9311 C   0  0  0  0  0  0  0  0  0  0  0  0
    0.2078   -3.7551   -1.9401 C   0  0  0  0  0  0  0  0  0  0  0  0
   -2.4252   -2.7258    0.7242 C   0  0  0  0  0  0  0  0  0  0  0  0
   -2.3826   -3.4348    2.2956 S   0  0  0  0  0  0  0  0  0  0  0  0
   -4.1473   -3.5376    2.3061 C   0  0  0  0  0  0  0  0  0  0  0  0
   -4.7094   -3.0921    1.0807 C   0  0  0  0  0  0  0  0  0  0  0  0
   -6.0417   -3.1292    0.7504 N   0  0  0  0  0  0  0  0  0  0  0  0
   -6.5530   -2.1008   -0.0626 C   0  0  0  0  0  0  0  0  0  0  0  0
   -6.1846   -0.7803    0.1777 C   0  0  0  0  0  0  0  0  0  0  0  0
   -6.6343    0.2377   -0.6396 C   0  0  0  0  0  0  0  0  0  0  0  0
   -7.4726   -0.0510   -1.7081 C   0  0  0  0  0  0  0  0  0  0  0  0
   -8.0822    1.1487   -2.8463 S   0  0  0  0  0  0  0  0  0  0  0  0
   -7.3749    2.7141   -2.2590 C   0  0  0  0  0  0  0  0  0  0  0  0
   -7.8738   -1.3679   -1.9279 C   0  0  0  0  0  0  0  0  0  0  0  0
   -7.4188   -2.3819   -1.1179 C   0  0  0  0  0  0  0  0  0  0  0  0
   -6.8517   -4.2355    1.0517 C   0  0  0  0  0  0  0  0  0  0  0  0
   -8.2170   -4.0652    1.2863 C   0  0  0  0  0  0  0  0  0  0  0  0
   -9.0112   -5.1546    1.5649 C   0  0  0  0  0  0  0  0  0  0  0  0
   -8.4641   -6.4344    1.6299 C   0  0  0  0  0  0  0  0  0  0  0  0
   -9.5776   -7.7488    2.0078 S   0  0  0  0  0  0  0  0  0  0  0  0
   -8.4902   -9.1766    2.2874 C   0  0  0  0  0  0  0  0  0  0  0  0
   -7.1079   -6.6094    1.3835 C   0  0  0  0  0  0  0  0  0  0  0  0
   -6.3128   -5.5196    1.0901 C   0  0  0  0  0  0  0  0  0  0  0  0
   -3.7155   -2.5746    0.2327 C   0  0  0  0  0  0  0  0  0  0  0  0
   -3.7361   -1.8106   -1.3281 S   0  0  0  0  0  0  0  0  0  0  0  0
   -4.9165   -3.8838    3.4150 C   0  0  0  0  0  0  0  0  0  0  0  0
   -4.5406   -4.2436    4.6915 C   0  0  0  0  0  0  0  0  0  0  0  0
   -3.1757   -4.4252    5.1831 C   0  0  0  0  0  0  0  0  0  0  0  0
   -2.1275   -4.2180    4.5892 O   0  0  0  0  0  0  0  0  0  0  0  0
   -3.2901   -4.9045    6.5706 C   0  0  0  0  0  0  0  0  0  0  0  0
   -2.2469   -5.2195    7.4374 C   0  0  0  0  0  0  0  0  0  0  0  0
   -2.6611   -5.6418    8.6779 C   0  0  0  0  0  0  0  0  0  0  0  0
   -4.0133   -5.7445    9.0276 C   0  0  0  0  0  0  0  0  0  0  0  0
   -5.0517   -5.4342    8.1805 C   0  0  0  0  0  0  0  0  0  0  0  0
   -4.6530   -5.0013    6.9138 C   0  0  0  0  0  0  0  0  0  0  0  0
   -5.4502   -4.5549    5.7696 C   0  0  0  0  0  0  0  0  0  0  0  0
   -6.8183   -4.4185    5.7679 C   0  0  0  0  0  0  0  0  0  0  0  0
   -7.6601   -4.8110    6.8277 C   0  0  0  0  0  0  0  0  0  0  0  0
   -8.4109   -5.1249    7.6385 N   0  0  0  0  0  0  0  0  0  0  0  0
   -7.5824   -3.8259    4.7450 C   0  0  0  0  0  0  0  0  0  0  0  0
   -8.2754   -3.3131    3.9835 N   0  0  0  0  0  0  0  0  0  0  0  0
   -3.6987   -6.2418   10.4162 C   0  0  0  0  0  0  0  0  0  0  0  0
   -3.8639   -7.7562   10.6951 C   0  0  0  0  0  0  0  0  0  0  0  0
   -3.6718   -8.4594    9.3745 C   0  0  0  0  0  0  0  0  0  0  0  0
   -2.3908   -8.3601    9.0452 C   0  0  0  0  0  0  0  0  0  0  0  0
   -1.6936   -7.5874   10.1373 C   0  0  0  0  0  0  0  0  0  0  0  0
   -2.5077   -8.0478   11.3570 C   0  0  0  0  0  0  0  0  0  0  0  0
   -2.1911   -6.1250   10.0272 C   0  0  0  0  0  0  0  0  0  0  0  0
    4.9237    6.5755   -6.2308 H   0  0  0  0  0  0  0  0  0  0  0  0
    6.7892    5.2321   -0.3758 H   0  0  0  0  0  0  0  0  0  0  0  0
    7.8842    9.6288   -2.6393 H   0  0  0  0  0  0  0  0  0  0  0  0
    8.3845    9.8745    0.7372 H   0  0  0  0  0  0  0  0  0  0  0  0
   10.7460    9.6287   -0.4684 H   0  0  0  0  0  0  0  0  0  0  0  0
   11.1584    9.9600    2.1051 H   0  0  0  0  0  0  0  0  0  0  0  0
   10.5984    7.6718    3.3340 H   0  0  0  0  0  0  0  0  0  0  0  0
    9.8428    5.9314    1.5170 H   0  0  0  0  0  0  0  0  0  0  0  0
   11.6579    7.2024    0.0692 H   0  0  0  0  0  0  0  0  0  0  0  0
   10.1817    7.0383   -0.9082 H   0  0  0  0  0  0  0  0  0  0  0  0
    7.8346    7.6299    1.9416 H   0  0  0  0  0  0  0  0  0  0  0  0
    3.2802    5.2545   -7.4319 H   0  0  0  0  0  0  0  0  0  0  0  0
    0.6100    4.0070   -9.0586 H   0  0  0  0  0  0  0  0  0  0  0  0
    0.5965    4.0729    0.2255 H   0  0  0  0  0  0  0  0  0  0  0  0
    1.0033    3.1737    2.4893 H   0  0  0  0  0  0  0  0  0  0  0  0
    3.3177   -1.1177    2.7663 H   0  0  0  0  0  0  0  0  0  0  0  0
    3.8978   -0.6060    4.3598 H   0  0  0  0  0  0  0  0  0  0  0  0
    4.6189    0.1165    2.9003 H   0  0  0  0  0  0  0  0  0  0  0  0
    3.3898    0.0498    0.8125 H   0  0  0  0  0  0  0  0  0  0  0  0
    2.9694    0.9328   -1.4312 H   0  0  0  0  0  0  0  0  0  0  0  0
    0.2670    4.6666   -3.7918 H   0  0  0  0  0  0  0  0  0  0  0  0
    0.8899    6.9857   -4.3190 H   0  0  0  0  0  0  0  0  0  0  0  0
    3.9793   10.4341   -2.2212 H   0  0  0  0  0  0  0  0  0  0  0  0
    3.2087    9.3093   -1.0776 H   0  0  0  0  0  0  0  0  0  0  0  0
    4.7667    8.8863   -1.8552 H   0  0  0  0  0  0  0  0  0  0  0  0
    3.8387    6.8968   -1.2231 H   0  0  0  0  0  0  0  0  0  0  0  0
    3.2741    4.5818   -0.7504 H   0  0  0  0  0  0  0  0  0  0  0  0
   -2.0352   -4.2374   -4.2833 H   0  0  0  0  0  0  0  0  0  0  0  0
   -4.2996   -5.1575   -4.1577 H   0  0  0  0  0  0  0  0  0  0  0  0
   -6.1464   -5.3948   -2.5133 H   0  0  0  0  0  0  0  0  0  0  0  0
   -6.3723   -6.1696   -4.1146 H   0  0  0  0  0  0  0  0  0  0  0  0
   -7.7802   -5.7521   -3.1201 H   0  0  0  0  0  0  0  0  0  0  0  0
   -5.9154   -1.1989   -4.2706 H   0  0  0  0  0  0  0  0  0  0  0  0
   -3.6225   -0.2761   -4.3763 H   0  0  0  0  0  0  0  0  0  0  0  0
   -2.0403   -2.7752   -6.7303 H   0  0  0  0  0  0  0  0  0  0  0  0
   -0.4820   -3.6323   -8.4238 H   0  0  0  0  0  0  0  0  0  0  0  0
    4.6369   -3.6449   -8.8755 H   0  0  0  0  0  0  0  0  0  0  0  0
    4.2306   -3.7675   -7.1489 H   0  0  0  0  0  0  0  0  0  0  0  0
    4.0531   -2.2050   -8.0108 H   0  0  0  0  0  0  0  0  0  0  0  0
    2.8177   -2.3955   -5.9998 H   0  0  0  0  0  0  0  0  0  0  0  0
    1.2896   -1.6502   -4.2874 H   0  0  0  0  0  0  0  0  0  0  0  0
   -0.8104   -0.6484    1.8793 H   0  0  0  0  0  0  0  0  0  0  0  0
   -0.1825   -0.6969    4.2479 H   0  0  0  0  0  0  0  0  0  0  0  0
   -0.2061   -1.0962    6.5652 H   0  0  0  0  0  0  0  0  0  0  0  0
   -0.7889   -2.6773    5.9522 H   0  0  0  0  0  0  0  0  0  0  0  0
    0.0426   -2.5670    7.5283 H   0  0  0  0  0  0  0  0  0  0  0  0
    2.4449   -3.9779    3.4844 H   0  0  0  0  0  0  0  0  0  0  0  0
    1.7972   -3.9469    1.1065 H   0  0  0  0  0  0  0  0  0  0  0  0
    2.4532   -1.7326   -0.4410 H   0  0  0  0  0  0  0  0  0  0  0  0
    3.8903   -2.6945   -2.2049 H   0  0  0  0  0  0  0  0  0  0  0  0
    2.1116   -6.5576   -4.4810 H   0  0  0  0  0  0  0  0  0  0  0  0
    1.6630   -5.2721   -5.6544 H   0  0  0  0  0  0  0  0  0  0  0  0
    3.1533   -6.2136   -5.8776 H   0  0  0  0  0  0  0  0  0  0  0  0
    0.5790   -4.9983   -3.6211 H   0  0  0  0  0  0  0  0  0  0  0  0
   -0.8251   -4.0628   -1.8691 H   0  0  0  0  0  0  0  0  0  0  0  0
   -5.5385   -0.5499    1.0121 H   0  0  0  0  0  0  0  0  0  0  0  0
   -6.3237    1.2479   -0.4284 H   0  0  0  0  0  0  0  0  0  0  0  0
   -7.7307    2.9294   -1.2557 H   0  0  0  0  0  0  0  0  0  0  0  0
   -7.7348    3.4726   -2.9472 H   0  0  0  0  0  0  0  0  0  0  0  0
   -6.2904    2.6687   -2.2943 H   0  0  0  0  0  0  0  0  0  0  0  0
   -8.5306   -1.5886   -2.7546 H   0  0  0  0  0  0  0  0  0  0  0  0
   -7.7247   -3.3988   -1.3066 H   0  0  0  0  0  0  0  0  0  0  0  0
   -8.6458   -3.0767    1.2624 H   0  0  0  0  0  0  0  0  0  0  0  0
  -10.0638   -5.0223    1.7576 H   0  0  0  0  0  0  0  0  0  0  0  0
   -8.0139   -9.4772    1.3585 H   0  0  0  0  0  0  0  0  0  0  0  0
   -9.1393   -9.9720    2.6399 H   0  0  0  0  0  0  0  0  0  0  0  0
   -7.7551   -8.9349    3.0494 H   0  0  0  0  0  0  0  0  0  0  0  0
   -6.6584   -7.5892    1.4050 H   0  0  0  0  0  0  0  0  0  0  0  0
   -5.2606   -5.6660    0.8922 H   0  0  0  0  0  0  0  0  0  0  0  0
   -5.9834   -3.8385    3.2362 H   0  0  0  0  0  0  0  0  0  0  0  0
   -1.2180   -5.1301    7.1253 H   0  0  0  0  0  0  0  0  0  0  0  0
   -6.0861   -5.5176    8.4686 H   0  0  0  0  0  0  0  0  0  0  0  0
   -4.0630   -5.6274   11.2372 H   0  0  0  0  0  0  0  0  0  0  0  0
   -4.7600   -8.0172   11.2516 H   0  0  0  0  0  0  0  0  0  0  0  0
   -4.4733   -8.8924    8.8050 H   0  0  0  0  0  0  0  0  0  0  0  0
   -1.9076   -8.6932    8.1453 H   0  0  0  0  0  0  0  0  0  0  0  0
   -0.6131   -7.6945   10.1869 H   0  0  0  0  0  0  0  0  0  0  0  0
   -2.3244   -7.4529   12.2507 H   0  0  0  0  0  0  0  0  0  0  0  0
   -2.3674   -9.1038   11.5830 H   0  0  0  0  0  0  0  0  0  0  0  0
   -1.5716   -5.4322   10.5936 H   0  0  0  0  0  0  0  0  0  0  0  0
  1  2  2  0  0  0  0
  2  3  1  0  0  0  0
  3  4  2  0  0  0  0
  3  5  1  0  0  0  0
  5  6  2  0  0  0  0
  6  7  1  0  0  0  0
  7  8  2  0  0  0  0
  8  9  1  0  0  0  0
  9 10  2  0  0  0  0
 10 11  1  0  0  0  0
 11 12  2  0  0  0  0
 12 13  1  0  0  0  0
 13 14  3  0  0  0  0
 12 15  1  0  0  0  0
 15 16  3  0  0  0  0
  8 17  1  0  0  0  0
 17 18  1  0  0  0  0
 18 19  1  0  0  0  0
 19 20  2  0  0  0  0
 20 21  1  0  0  0  0
 21 22  1  0  0  0  0
 21 23  1  0  0  0  0
  1 24  1  0  0  0  0
 24 25  2  0  0  0  0
 25 26  1  0  0  0  0
 26 27  1  0  0  0  0
 27 28  2  0  0  0  0
 27 29  1  0  0  0  0
 26 30  2  0  0  0  0
 30 31  1  0  0  0  0
 30 32  1  0  0  0  0
 32 33  2  0  0  0  0
 33 34  1  0  0  0  0
 34 35  1  0  0  0  0
 35 36  2  0  0  0  0
 36 37  1  0  0  0  0
 37 38  2  0  0  0  0
 38 39  1  0  0  0  0
 39 40  1  0  0  0  0
 38 41  1  0  0  0  0
 41 42  2  0  0  0  0
 34 43  1  0  0  0  0
 43 44  2  0  0  0  0
 44 45  1  0  0  0  0
 45 46  2  0  0  0  0
 46 47  1  0  0  0  0
 47 48  1  0  0  0  0
 46 49  1  0  0  0  0
 49 50  2  0  0  0  0
 33 51  1  0  0  0  0
 51 52  1  0  0  0  0
 52 53  1  0  0  0  0
 53 54  2  0  0  0  0
 54 55  1  0  0  0  0
 55 56  1  0  0  0  0
 56 57  2  0  0  0  0
 57 58  1  0  0  0  0
 58 59  2  0  0  0  0
 59 60  1  0  0  0  0
 60 61  1  0  0  0  0
 59 62  1  0  0  0  0
 62 63  2  0  0  0  0
 55 64  1  0  0  0  0
 64 65  2  0  0  0  0
 65 66  1  0  0  0  0
 66 67  2  0  0  0  0
 67 68  1  0  0  0  0
 68 69  1  0  0  0  0
 67 70  1  0  0  0  0
 70 71  2  0  0  0  0
 54 72  1  0  0  0  0
 72 73  1  0  0  0  0
 53 74  1  0  0  0  0
 74 75  2  0  0  0  0
 75 76  1  0  0  0  0
 76 77  1  0  0  0  0
 77 78  2  0  0  0  0
 78 79  1  0  0  0  0
 79 80  2  0  0  0  0
 80 81  1  0  0  0  0
 81 82  1  0  0  0  0
 80 83  1  0  0  0  0
 83 84  2  0  0  0  0
 76 85  1  0  0  0  0
 85 86  2  0  0  0  0
 86 87  1  0  0  0  0
 87 88  2  0  0  0  0
 88 89  1  0  0  0  0
 89 90  1  0  0  0  0
 88 91  1  0  0  0  0
 91 92  2  0  0  0  0
 75 93  1  0  0  0  0
 93 94  1  0  0  0  0
 94 95  1  0  0  0  0
 95 96  2  0  0  0  0
 96 97  1  0  0  0  0
 97 98  1  0  0  0  0
 98 99  2  0  0  0  0
 99100  1  0  0  0  0
100101  2  0  0  0  0
101102  1  0  0  0  0
102103  1  0  0  0  0
101104  1  0  0  0  0
104105  2  0  0  0  0
 97106  1  0  0  0  0
106107  2  0  0  0  0
107108  1  0  0  0  0
108109  2  0  0  0  0
109110  1  0  0  0  0
110111  1  0  0  0  0
109112  1  0  0  0  0
112113  2  0  0  0  0
 96114  1  0  0  0  0
114115  1  0  0  0  0
 95116  1  0  0  0  0
116117  2  0  0  0  0
117118  1  0  0  0  0
118119  2  0  0  0  0
118120  1  0  0  0  0
120121  2  0  0  0  0
121122  1  0  0  0  0
122123  2  0  0  0  0
123124  1  0  0  0  0
124125  2  0  0  0  0
125126  1  0  0  0  0
126127  2  0  0  0  0
127128  1  0  0  0  0
128129  3  0  0  0  0
127130  1  0  0  0  0
130131  3  0  0  0  0
123132  1  0  0  0  0
132133  1  0  0  0  0
133134  1  0  0  0  0
134135  2  0  0  0  0
135136  1  0  0  0  0
136137  1  0  0  0  0
136138  1  0  0  0  0
 11  2  1  0  0  0  0
 23 17  1  0  0  0  0
 31 24  1  0  0  0  0
 73 32  1  0  0  0  0
115 74  1  0  0  0  0
126117  1  0  0  0  0
138132  1  0  0  0  0
 10  5  1  0  0  0  0
 22 18  1  0  0  0  0
 42 35  1  0  0  0  0
 50 43  1  0  0  0  0
 72 51  2  0  0  0  0
 84 77  1  0  0  0  0
 92 85  1  0  0  0  0
114 93  2  0  0  0  0
125120  1  0  0  0  0
137133  1  0  0  0  0
 23  7  1  0  0  0  0
 63 56  1  0  0  0  0
 71 64  1  0  0  0  0
105 98  1  0  0  0  0
113106  1  0  0  0  0
138122  1  0  0  0  0
  1139  1  0  0  0  0
  6140  1  0  0  0  0
  9141  1  0  0  0  0
 17142  1  0  0  0  0
 18143  1  0  0  0  0
 19144  1  0  0  0  0
 20145  1  0  0  0  0
 21146  1  0  0  0  0
 22147  1  0  0  0  0
 22148  1  0  0  0  0
 23149  1  0  0  0  0
 25150  1  0  0  0  0
 29151  1  0  0  0  0
 36152  1  0  0  0  0
 37153  1  0  0  0  0
 40154  1  0  0  0  0
 40155  1  0  0  0  0
 40156  1  0  0  0  0
 41157  1  0  0  0  0
 42158  1  0  0  0  0
 44159  1  0  0  0  0
 45160  1  0  0  0  0
 48161  1  0  0  0  0
 48162  1  0  0  0  0
 48163  1  0  0  0  0
 49164  1  0  0  0  0
 50165  1  0  0  0  0
 57166  1  0  0  0  0
 58167  1  0  0  0  0
 61168  1  0  0  0  0
 61169  1  0  0  0  0
 61170  1  0  0  0  0
 62171  1  0  0  0  0
 63172  1  0  0  0  0
 65173  1  0  0  0  0
 66174  1  0  0  0  0
 69175  1  0  0  0  0
 69176  1  0  0  0  0
 69177  1  0  0  0  0
 70178  1  0  0  0  0
 71179  1  0  0  0  0
 78180  1  0  0  0  0
 79181  1  0  0  0  0
 82182  1  0  0  0  0
 82183  1  0  0  0  0
 82184  1  0  0  0  0
 83185  1  0  0  0  0
 84186  1  0  0  0  0
 86187  1  0  0  0  0
 87188  1  0  0  0  0
 90189  1  0  0  0  0
 90190  1  0  0  0  0
 90191  1  0  0  0  0
 91192  1  0  0  0  0
 92193  1  0  0  0  0
 99194  1  0  0  0  0
100195  1  0  0  0  0
103196  1  0  0  0  0
103197  1  0  0  0  0
103198  1  0  0  0  0
104199  1  0  0  0  0
105200  1  0  0  0  0
107201  1  0  0  0  0
108202  1  0  0  0  0
111203  1  0  0  0  0
111204  1  0  0  0  0
111205  1  0  0  0  0
112206  1  0  0  0  0
113207  1  0  0  0  0
116208  1  0  0  0  0
121209  1  0  0  0  0
124210  1  0  0  0  0
132211  1  0  0  0  0
133212  1  0  0  0  0
134213  1  0  0  0  0
135214  1  0  0  0  0
136215  1  0  0  0  0
137216  1  0  0  0  0
137217  1  0  0  0  0
138218  1  0  0  0  0
M  END
