226

C          1.42380       -9.26900       -1.96160
C          2.71200       -9.45280       -2.32390
C          3.63200       -8.37610       -2.78550
O          3.40450       -7.18430       -2.88280
C          4.91840       -9.03350       -3.05000
C          6.07630       -8.42780       -3.53810
C          7.14070       -9.28350       -3.67800
C          7.06160      -10.64660       -3.35920
C          5.92660      -11.25800       -2.88410
C          4.82940      -10.40330       -2.72860
C          3.48120      -10.68960       -2.25420
C          3.02350      -11.90670       -1.83420
C          3.80610      -13.08100       -1.77940
N          4.37920      -14.07270       -1.70470
C          1.71210      -12.18600       -1.38940
N          0.67580      -12.51250       -1.01890
C          8.50140      -10.89850       -3.73300
C          9.50110      -11.03760       -2.56530
C         10.84670      -10.78860       -3.20740
C         10.91990       -9.49730       -3.50410
C          9.62430       -8.85180       -3.06830
C          9.30810       -9.70380       -1.83220
C          8.58930       -9.37870       -4.08560
C          0.73820       -8.00750       -2.08980
N         -0.03650       -7.63290       -1.05810
N         -0.48720       -6.45100       -0.94480
C         -0.27000       -5.48290       -1.86600
C          0.25830       -5.87970       -3.10060
C          0.46050       -5.20250       -4.39800
O          0.16800       -4.07890       -4.73510
N          1.11440       -6.12190       -5.19780
C          1.44440       -5.87220       -6.58440
C          0.28260       -6.23110       -7.50380
C          1.31420       -7.34480       -4.57570
O          1.80880       -8.31330       -5.09390
C          0.79270       -7.16170       -3.19870
C         -0.61110       -4.15540       -1.46790
C         -0.57720       -3.67460       -0.16100
N         -0.15670       -4.36360        0.96060
C         -0.87240       -4.15520        2.14570
C         -2.25240       -3.94330        2.09210
C         -2.95690       -3.63930        3.23320
C         -2.30440       -3.55740        4.46110
S         -3.29780       -3.10070        5.84950
C         -2.22620       -3.40310        7.28050
C         -0.94180       -3.81330        4.52910
C         -0.23220       -4.10810        3.37990
C          0.91390       -5.25790        0.87620
C          1.98690       -4.95700        0.03690
C          3.01180       -5.85700       -0.15290
C          2.98910       -7.07570        0.51280
S          4.23260       -8.30890        0.26020
C          5.68950       -7.31770       -0.18560
C          1.94850       -7.36330        1.39230
C          0.92370       -6.46100        1.58230
C         -1.00800       -2.33170       -0.11760
S         -1.12870       -1.17530        1.15490
C         -1.74330        0.01500        0.02060
C         -1.93100       -0.49600       -1.24670
N         -2.75030        0.14430       -2.19340
C         -4.11950        0.21520       -1.92870
C         -4.66940       -0.28530       -0.74600
C         -6.02820       -0.23880       -0.50570
C         -6.88690        0.30180       -1.44950
S         -8.63530        0.44150       -1.20530
C         -8.99050       -0.92060       -0.05510
C         -6.35820        0.77290       -2.64650
C         -5.00300        0.72200       -2.88780
C         -2.17740        0.80310       -3.30170
C         -1.35550        0.12930       -4.20150
C         -0.76440        0.81190       -5.24400
C         -0.97530        2.17990       -5.40770
S         -0.10740        2.97330       -6.72470
C         -0.43360        4.73780       -6.45610
C         -1.82980        2.84590       -4.53920
C         -2.42130        2.15820       -3.49870
C         -1.42990       -1.81970       -1.33660
S         -1.16230       -2.95100       -2.61400
C         -2.02320        1.33030        0.53250
C         -1.44830        2.54450        0.19270
N         -0.47880        2.72440       -0.77880
C          0.42740        1.68300       -1.04420
C          0.78780        1.37210       -2.35130
C          1.57570        0.27290       -2.62600
C          2.02940       -0.53100       -1.59040
S          2.98100       -1.99770       -1.83920
C          2.70660       -2.40760       -3.58480
C          1.75110       -0.17230       -0.27440
C          0.96410        0.92550       -0.00300
C         -0.40020        3.92580       -1.49160
C         -1.53960        4.68650       -1.75840
C         -1.44730        5.85150       -2.48630
C         -0.21870        6.28600       -2.97430
S         -0.22530        7.75790       -3.95540
C          1.52430        8.24200       -4.00450
C          0.92110        5.54120       -2.70340
C          0.82970        4.38160       -1.96050
C         -1.92400        3.58250        1.03820
S         -1.53970        5.26140        1.19470
C         -2.64140        5.39480        2.57190
C         -3.20050        4.14300        2.92860
N         -3.99430        3.87690        4.01130
C         -3.90820        4.53600        5.24790
C         -5.05520        4.66820        6.03000
C         -5.00220        5.33710        7.23310
C         -3.80970        5.90430        7.67200
S         -3.85040        6.79640        9.19400
C         -2.44520        7.93750        9.03810
C         -2.65400        5.73370        6.91790
C         -2.70040        5.04310        5.72460
C         -4.81840        2.72950        3.93030
C         -5.71320        2.59170        2.87050
C         -6.44910        1.43630        2.73590
C         -6.29480        0.39440        3.64980
S         -7.20180       -1.08210        3.32680
C         -6.90830       -2.12040        4.78300
C         -5.43730        0.54840        4.73210
C         -4.71090        1.71420        4.87360
C         -2.80140        3.14430        2.01960
S         -3.07790        1.43820        1.92840
C         -2.97990        6.59030        3.20380
C         -2.43410        7.84820        3.09550
C         -1.30020        8.23550        2.25370
O         -0.73030        7.56090        1.41200
C         -0.96070        9.61970        2.63090
C          0.04940       10.41360        2.09360
C          0.12450       11.67110        2.64340
C         -0.74820       12.11030        3.64690
C         -1.75300       11.33860        4.18170
C         -1.83900       10.05100        3.64500
C         -2.78290        8.97080        3.93260
C         -3.79850        9.03060        4.85860
C         -3.95290       10.06890        5.79710
N         -4.09940       10.84910        6.62810
C         -4.82680        8.08020        5.00640
N         -5.72830        7.38240        5.15780
C         -0.10340       13.47220        3.72390
C          0.84100       13.72200        4.91850
C          1.67250       14.90600        4.48100
C          2.50170       14.48860        3.53290
C          2.24400       13.01530        3.31330
C          1.86940       12.59740        4.74110
C          0.87220       12.98120        2.60660
H          0.86230      -10.05220       -1.47300
H          6.09300       -7.37720       -3.78530
H          5.88160      -12.30820       -2.65050
H          8.66570      -11.62760       -4.52370
H          9.39680      -11.94910       -1.98350
H         11.56070      -11.56140       -3.42290
H         11.70660       -8.97620       -4.01720
H          9.63310       -7.77200       -2.94440
H         10.03740       -9.56150       -1.03640
H          8.30400       -9.55940       -1.43700
H          8.81660       -9.09310       -5.11090
H          1.68830       -4.81080       -6.67540
H          2.32150       -6.47870       -6.82200
H         -0.59160       -5.63340       -7.25570
H          0.03330       -7.28480       -7.40070
H          0.55740       -6.03660       -8.53660
H         -2.76770       -4.02180        1.14690
H         -4.02060       -3.46450        3.18440
H         -2.85150       -3.24980        8.15470
H         -1.40310       -2.69440        7.28840
H         -1.86770       -4.42780        7.25670
H         -0.41280       -3.76720        5.46760
H          0.83180       -4.28380        3.43710
H          2.01090       -4.01380       -0.48690
H          3.80730       -5.60420       -0.83340
H          6.53710       -7.99470       -0.14130
H          5.81010       -6.51730        0.53770
H          5.58440       -6.92360       -1.19150
H          1.94160       -8.31050        1.90850
H          0.10300       -6.70270        2.23870
H         -4.04510       -0.72990        0.01240
H         -6.40050       -0.63250        0.42690
H         -8.49230       -1.81980       -0.40280
H        -10.06700       -1.05600       -0.08010
H         -8.67570       -0.66940        0.95360
H         -7.02410        1.17190       -3.39630
H         -4.62890        1.05870       -3.84190
H         -1.17950       -0.92830       -4.08780
H         -0.12560        0.29220       -5.94160
H          0.18060        5.26250       -7.18130
H         -1.48110        4.95980       -6.63640
H         -0.14180        5.01740       -5.44810
H         -2.03310        3.89840       -4.64860
H         -3.08190        2.67900       -2.82380
H          0.43770        1.99140       -3.16040
H          1.81390        0.04780       -3.65250
H          1.64210       -2.42260       -3.80100
H          3.12340       -3.40250       -3.71600
H          3.23170       -1.70310       -4.22360
H          2.14800       -0.77040        0.53200
H          0.74850        1.19290        1.02090
H         -2.50370        4.36210       -1.40000
H         -2.33100        6.43600       -2.69160
H          1.91860        8.27320       -2.99330
H          1.54200        9.23540       -4.44190
H          2.09080        7.55720       -4.62910
H          1.88910        5.85420       -3.06100
H          1.72570        3.81980       -1.74300
H         -5.99200        4.26860        5.67480
H         -5.89310        5.45820        7.82790
H         -2.57030        8.66720        9.83180
H         -2.48890        8.43400        8.07340
H         -1.50510        7.40970        9.17020
H         -1.70900        6.12690        7.25840
H         -1.79580        4.90930        5.14960
H         -5.81720        3.39030        2.15150
H         -7.13900        1.32960        1.91400
H         -7.25790       -1.60710        5.67370
H         -7.49460       -3.01990        4.62160
H         -5.85510       -2.37520        4.86220
H         -5.30520       -0.23860        5.45640
H         -4.03200        1.82860        5.70560
H         -3.78660        6.49080        3.91800
H          0.69090       10.03880        1.31140
H         -2.42310       11.69660        4.94540
H         -0.75440       14.31810        3.51160
H          0.34510       13.80080        5.88210
H          1.53770       15.90440        4.85380
H          3.19780       15.06860        2.95570
H          3.02780       12.45050        2.81530
H          2.70650       12.69240        5.43090
H          1.44870       11.59620        4.81410
H          0.87290       13.50180        1.65060
