
  xtb     02112222003D
 energy: -423.766398877898 gnorm: 0.000410869948 xtb: 6.4.1 (unknown)
238263  0     0  0            999 V2000
   -5.4263   -4.7816   -9.2593 C   0  0  0  0  0  0  0  0  0  0  0  0
   -5.0868   -5.9139   -9.9366 C   0  0  0  0  0  0  0  0  0  0  0  0
   -3.8741   -6.7433   -9.7073 C   0  0  0  0  0  0  0  0  0  0  0  0
   -3.1158   -6.7251   -8.7610 O   0  0  0  0  0  0  0  0  0  0  0  0
   -3.7201   -7.5600  -10.9241 C   0  0  0  0  0  0  0  0  0  0  0  0
   -2.6752   -8.4393  -11.2046 C   0  0  0  0  0  0  0  0  0  0  0  0
   -2.7791   -9.0575  -12.4269 C   0  0  0  0  0  0  0  0  0  0  0  0
   -3.8436   -8.8207  -13.3084 C   0  0  0  0  0  0  0  0  0  0  0  0
   -4.8836   -7.9628  -13.0418 C   0  0  0  0  0  0  0  0  0  0  0  0
   -4.7970   -7.3215  -11.8017 C   0  0  0  0  0  0  0  0  0  0  0  0
   -5.6945   -6.3548  -11.1809 C   0  0  0  0  0  0  0  0  0  0  0  0
   -6.9310   -5.9899  -11.6427 C   0  0  0  0  0  0  0  0  0  0  0  0
   -7.8233   -5.1366  -10.9582 C   0  0  0  0  0  0  0  0  0  0  0  0
   -8.6102   -4.4728  -10.4500 N   0  0  0  0  0  0  0  0  0  0  0  0
   -7.5017   -6.4547  -12.8459 C   0  0  0  0  0  0  0  0  0  0  0  0
   -8.0187   -6.7880  -13.8152 N   0  0  0  0  0  0  0  0  0  0  0  0
   -3.2938   -9.7605  -14.3519 C   0  0  0  0  0  0  0  0  0  0  0  0
   -2.5938   -9.1092  -15.5636 C   0  0  0  0  0  0  0  0  0  0  0  0
   -1.7588  -10.2282  -16.1433 C   0  0  0  0  0  0  0  0  0  0  0  0
   -0.7522  -10.4544  -15.3088 C   0  0  0  0  0  0  0  0  0  0  0  0
   -0.8898   -9.4920  -14.1511 C   0  0  0  0  0  0  0  0  0  0  0  0
   -1.4935   -8.2856  -14.8819 C   0  0  0  0  0  0  0  0  0  0  0  0
   -2.1088  -10.0263  -13.3689 C   0  0  0  0  0  0  0  0  0  0  0  0
   -4.8834   -4.3290   -8.0302 C   0  0  0  0  0  0  0  0  0  0  0  0
   -4.3503   -5.0379   -6.9872 C   0  0  0  0  0  0  0  0  0  0  0  0
   -3.8610   -4.2268   -5.9415 C   0  0  0  0  0  0  0  0  0  0  0  0
   -3.2227   -4.6433   -4.7590 C   0  0  0  0  0  0  0  0  0  0  0  0
   -3.0352   -6.0640   -4.4381 C   0  0  0  0  0  0  0  0  0  0  0  0
   -2.4413   -6.9435   -5.3415 C   0  0  0  0  0  0  0  0  0  0  0  0
   -2.2788   -8.2630   -4.9895 C   0  0  0  0  0  0  0  0  0  0  0  0
   -1.6744   -9.0958   -5.8596 F   0  0  0  0  0  0  0  0  0  0  0  0
   -2.7035   -8.8102   -3.7649 C   0  0  0  0  0  0  0  0  0  0  0  0
   -2.4421  -10.1192   -3.5939 O   0  0  0  0  0  0  0  0  0  0  0  0
   -2.9035  -10.8334   -2.4564 C   0  0  0  0  0  0  0  0  0  0  0  0
   -4.3875  -11.1679   -2.5453 C   0  0  0  0  0  0  0  0  0  0  0  0
   -3.3063   -7.8973   -2.8958 C   0  0  0  0  0  0  0  0  0  0  0  0
   -3.7934   -8.2883   -1.6943 F   0  0  0  0  0  0  0  0  0  0  0  0
   -3.4543   -6.5599   -3.2107 C   0  0  0  0  0  0  0  0  0  0  0  0
   -2.7687   -3.6418   -3.9200 C   0  0  0  0  0  0  0  0  0  0  0  0
   -2.9274   -2.2585   -4.1918 C   0  0  0  0  0  0  0  0  0  0  0  0
   -3.6431   -1.8415   -5.3287 C   0  0  0  0  0  0  0  0  0  0  0  0
   -3.9777   -0.4311   -5.5688 C   0  0  0  0  0  0  0  0  0  0  0  0
   -3.0399    0.5968   -5.4867 C   0  0  0  0  0  0  0  0  0  0  0  0
   -3.4432    1.8993   -5.6726 C   0  0  0  0  0  0  0  0  0  0  0  0
   -4.7651    2.2805   -5.9596 C   0  0  0  0  0  0  0  0  0  0  0  0
   -4.9816    3.6059   -6.0781 O   0  0  0  0  0  0  0  0  0  0  0  0
   -6.1852    4.1136   -6.6354 C   0  0  0  0  0  0  0  0  0  0  0  0
   -6.2935    3.8435   -8.1310 C   0  0  0  0  0  0  0  0  0  0  0  0
   -5.6727    1.2225   -6.0388 C   0  0  0  0  0  0  0  0  0  0  0  0
   -5.2962   -0.0928   -5.8508 C   0  0  0  0  0  0  0  0  0  0  0  0
   -6.9848    1.4470   -6.2898 F   0  0  0  0  0  0  0  0  0  0  0  0
   -2.5337    2.8848   -5.5614 F   0  0  0  0  0  0  0  0  0  0  0  0
   -4.0781   -2.8442   -6.1844 C   0  0  0  0  0  0  0  0  0  0  0  0
   -4.8869   -2.5983   -7.7060 S   0  0  0  0  0  0  0  0  0  0  0  0
   -2.3003   -1.4674   -3.2020 C   0  0  0  0  0  0  0  0  0  0  0  0
   -1.6741   -2.1837   -2.2186 C   0  0  0  0  0  0  0  0  0  0  0  0
   -1.8769   -3.9089   -2.4439 S   0  0  0  0  0  0  0  0  0  0  0  0
   -0.8902   -1.5642   -1.1927 C   0  0  0  0  0  0  0  0  0  0  0  0
   -0.7536   -1.7817    0.1707 C   0  0  0  0  0  0  0  0  0  0  0  0
   -1.2331   -2.8737    0.8733 N   0  0  0  0  0  0  0  0  0  0  0  0
   -1.6350   -2.6883    2.2056 C   0  0  0  0  0  0  0  0  0  0  0  0
   -1.2560   -3.5885    3.2014 C   0  0  0  0  0  0  0  0  0  0  0  0
   -1.5941   -3.3498    4.5139 C   0  0  0  0  0  0  0  0  0  0  0  0
   -2.3073   -2.2059    4.8644 C   0  0  0  0  0  0  0  0  0  0  0  0
   -2.6363   -1.9499    6.5794 S   0  0  0  0  0  0  0  0  0  0  0  0
   -2.7426   -0.1394    6.6864 C   0  0  0  0  0  0  0  0  0  0  0  0
   -2.7275   -1.3320    3.8704 C   0  0  0  0  0  0  0  0  0  0  0  0
   -2.3957   -1.5742    2.5520 C   0  0  0  0  0  0  0  0  0  0  0  0
   -1.0037   -4.1686    0.3872 C   0  0  0  0  0  0  0  0  0  0  0  0
   -1.9225   -5.1862    0.6480 C   0  0  0  0  0  0  0  0  0  0  0  0
   -1.7175   -6.4500    0.1432 C   0  0  0  0  0  0  0  0  0  0  0  0
   -0.5905   -6.7260   -0.6281 C   0  0  0  0  0  0  0  0  0  0  0  0
   -0.4132   -8.3658   -1.2616 S   0  0  0  0  0  0  0  0  0  0  0  0
    0.5762   -8.1102   -2.7632 C   0  0  0  0  0  0  0  0  0  0  0  0
    0.3498   -5.7316   -0.8512 C   0  0  0  0  0  0  0  0  0  0  0  0
    0.1425   -4.4616   -0.3489 C   0  0  0  0  0  0  0  0  0  0  0  0
   -0.0403   -0.7124    0.7771 C   0  0  0  0  0  0  0  0  0  0  0  0
    0.3411   -0.3000    2.4101 S   0  0  0  0  0  0  0  0  0  0  0  0
    1.1793    1.1561    1.8749 C   0  0  0  0  0  0  0  0  0  0  0  0
    1.2466    1.2477    0.4863 C   0  0  0  0  0  0  0  0  0  0  0  0
    2.0153    2.1287   -0.2436 N   0  0  0  0  0  0  0  0  0  0  0  0
    1.7050    2.2851   -1.6166 C   0  0  0  0  0  0  0  0  0  0  0  0
    0.4578    2.7642   -2.0124 C   0  0  0  0  0  0  0  0  0  0  0  0
    0.1519    2.8700   -3.3529 C   0  0  0  0  0  0  0  0  0  0  0  0
    1.0835    2.4990   -4.3219 C   0  0  0  0  0  0  0  0  0  0  0  0
    0.5693    2.6210   -6.0016 S   0  0  0  0  0  0  0  0  0  0  0  0
    2.0706    2.2317   -6.9487 C   0  0  0  0  0  0  0  0  0  0  0  0
    2.3357    2.0429   -3.9272 C   0  0  0  0  0  0  0  0  0  0  0  0
    2.6405    1.9384   -2.5859 C   0  0  0  0  0  0  0  0  0  0  0  0
    3.2889    2.5455    0.1736 C   0  0  0  0  0  0  0  0  0  0  0  0
    3.8307    3.7006   -0.3870 C   0  0  0  0  0  0  0  0  0  0  0  0
    5.0932    4.1364   -0.0390 C   0  0  0  0  0  0  0  0  0  0  0  0
    5.8286    3.4454    0.9155 C   0  0  0  0  0  0  0  0  0  0  0  0
    7.4201    3.9453    1.4895 S   0  0  0  0  0  0  0  0  0  0  0  0
    7.7460    5.4847    0.5848 C   0  0  0  0  0  0  0  0  0  0  0  0
    5.2954    2.2854    1.4742 C   0  0  0  0  0  0  0  0  0  0  0  0
    4.0503    1.8320    1.0996 C   0  0  0  0  0  0  0  0  0  0  0  0
    0.4709    0.2194   -0.1109 C   0  0  0  0  0  0  0  0  0  0  0  0
    0.0002   -0.1428   -1.7310 S   0  0  0  0  0  0  0  0  0  0  0  0
    1.6023    2.0727    2.8769 C   0  0  0  0  0  0  0  0  0  0  0  0
    1.9106    3.4031    2.7728 C   0  0  0  0  0  0  0  0  0  0  0  0
    2.2012    4.0172    4.0142 C   0  0  0  0  0  0  0  0  0  0  0  0
    2.5154    5.3620    4.2663 C   0  0  0  0  0  0  0  0  0  0  0  0
    2.6048    6.3758    3.2037 C   0  0  0  0  0  0  0  0  0  0  0  0
    3.5263    6.2608    2.1680 C   0  0  0  0  0  0  0  0  0  0  0  0
    3.6200    7.2677    1.2357 C   0  0  0  0  0  0  0  0  0  0  0  0
    4.5435    7.1653    0.2566 F   0  0  0  0  0  0  0  0  0  0  0  0
    2.8204    8.4229    1.2409 C   0  0  0  0  0  0  0  0  0  0  0  0
    3.0741    9.3101    0.2586 O   0  0  0  0  0  0  0  0  0  0  0  0
    2.2346   10.4327    0.0297 C   0  0  0  0  0  0  0  0  0  0  0  0
    0.9096   10.0454   -0.6157 C   0  0  0  0  0  0  0  0  0  0  0  0
    1.9035    8.4934    2.2924 C   0  0  0  0  0  0  0  0  0  0  0  0
    1.0664    9.5498    2.4176 F   0  0  0  0  0  0  0  0  0  0  0  0
    1.7997    7.5049    3.2528 C   0  0  0  0  0  0  0  0  0  0  0  0
    2.7352    5.7213    5.5866 C   0  0  0  0  0  0  0  0  0  0  0  0
    2.6636    4.8008    6.6655 C   0  0  0  0  0  0  0  0  0  0  0  0
    2.3244    3.4560    6.4174 C   0  0  0  0  0  0  0  0  0  0  0  0
    2.2080    2.4955    7.5221 C   0  0  0  0  0  0  0  0  0  0  0  0
    1.0440    1.7497    7.6912 C   0  0  0  0  0  0  0  0  0  0  0  0
    0.9327    0.8925    8.7604 C   0  0  0  0  0  0  0  0  0  0  0  0
    1.9519    0.6959    9.7073 C   0  0  0  0  0  0  0  0  0  0  0  0
    1.6855   -0.1746   10.6972 O   0  0  0  0  0  0  0  0  0  0  0  0
    2.6187   -0.3851   11.7478 C   0  0  0  0  0  0  0  0  0  0  0  0
    1.9721   -1.3449   12.7322 C   0  0  0  0  0  0  0  0  0  0  0  0
    3.1141    1.4404    9.4866 C   0  0  0  0  0  0  0  0  0  0  0  0
    3.2414    2.3261    8.4337 C   0  0  0  0  0  0  0  0  0  0  0  0
    4.1814    1.3151   10.3106 F   0  0  0  0  0  0  0  0  0  0  0  0
   -0.2169    0.2111    8.9261 F   0  0  0  0  0  0  0  0  0  0  0  0
    2.0945    3.1058    5.1005 C   0  0  0  0  0  0  0  0  0  0  0  0
    1.6634    1.5128    4.5402 S   0  0  0  0  0  0  0  0  0  0  0  0
    2.9257    5.4106    7.9082 C   0  0  0  0  0  0  0  0  0  0  0  0
    3.2304    6.7453    7.8162 C   0  0  0  0  0  0  0  0  0  0  0  0
    3.1575    7.3114    6.1444 S   0  0  0  0  0  0  0  0  0  0  0  0
    3.5593    7.7148    8.7931 C   0  0  0  0  0  0  0  0  0  0  0  0
    3.8650    7.5843   10.1162 C   0  0  0  0  0  0  0  0  0  0  0  0
    4.0782    6.3470   10.9090 C   0  0  0  0  0  0  0  0  0  0  0  0
    3.7812    5.2034   10.6304 O   0  0  0  0  0  0  0  0  0  0  0  0
    4.7465    6.7774   12.1499 C   0  0  0  0  0  0  0  0  0  0  0  0
    5.2334    5.9498   13.1597 C   0  0  0  0  0  0  0  0  0  0  0  0
    5.8206    6.6256   14.2015 C   0  0  0  0  0  0  0  0  0  0  0  0
    5.9273    8.0233   14.2324 C   0  0  0  0  0  0  0  0  0  0  0  0
    5.4519    8.8507   13.2436 C   0  0  0  0  0  0  0  0  0  0  0  0
    4.8379    8.1828   12.1798 C   0  0  0  0  0  0  0  0  0  0  0  0
    4.2122    8.7109   10.9729 C   0  0  0  0  0  0  0  0  0  0  0  0
    3.9297   10.0305   10.7398 C   0  0  0  0  0  0  0  0  0  0  0  0
    4.2593   11.0815   11.6223 C   0  0  0  0  0  0  0  0  0  0  0  0
    4.4950   11.9848   12.2903 N   0  0  0  0  0  0  0  0  0  0  0  0
    3.2245   10.5388    9.6271 C   0  0  0  0  0  0  0  0  0  0  0  0
    2.6398   11.0368    8.7732 N   0  0  0  0  0  0  0  0  0  0  0  0
    6.6306    8.0199   15.5661 C   0  0  0  0  0  0  0  0  0  0  0  0
    5.8028    8.4062   16.8167 C   0  0  0  0  0  0  0  0  0  0  0  0
    4.3669    8.0675   16.5010 C   0  0  0  0  0  0  0  0  0  0  0  0
    4.2597    6.7458   16.4736 C   0  0  0  0  0  0  0  0  0  0  0  0
    5.6210    6.1669   16.7705 C   0  0  0  0  0  0  0  0  0  0  0  0
    6.1620    7.2305   17.7393 C   0  0  0  0  0  0  0  0  0  0  0  0
    6.5066    6.4638   15.5346 C   0  0  0  0  0  0  0  0  0  0  0  0
   -6.1353   -4.1038   -9.7204 H   0  0  0  0  0  0  0  0  0  0  0  0
   -1.8777   -8.5949  -10.4951 H   0  0  0  0  0  0  0  0  0  0  0  0
   -5.6947   -7.7893  -13.7291 H   0  0  0  0  0  0  0  0  0  0  0  0
   -3.9388  -10.5919  -14.6291 H   0  0  0  0  0  0  0  0  0  0  0  0
   -3.2588   -8.5894  -16.2478 H   0  0  0  0  0  0  0  0  0  0  0  0
   -2.0093  -10.7594  -17.0426 H   0  0  0  0  0  0  0  0  0  0  0  0
    0.0062  -11.2124  -15.3718 H   0  0  0  0  0  0  0  0  0  0  0  0
   -0.0018   -9.3206  -13.5489 H   0  0  0  0  0  0  0  0  0  0  0  0
   -1.8671   -7.5066  -14.2198 H   0  0  0  0  0  0  0  0  0  0  0  0
   -0.8006   -7.8509  -15.6004 H   0  0  0  0  0  0  0  0  0  0  0  0
   -1.9624  -11.0356  -12.9892 H   0  0  0  0  0  0  0  0  0  0  0  0
   -4.3343   -6.1097   -6.9552 H   0  0  0  0  0  0  0  0  0  0  0  0
   -2.0958   -6.6139   -6.3086 H   0  0  0  0  0  0  0  0  0  0  0  0
   -2.6708  -10.2920   -1.5357 H   0  0  0  0  0  0  0  0  0  0  0  0
   -2.3125  -11.7528   -2.4772 H   0  0  0  0  0  0  0  0  0  0  0  0
   -4.6598  -11.8168   -1.7182 H   0  0  0  0  0  0  0  0  0  0  0  0
   -4.5969  -11.6801   -3.4817 H   0  0  0  0  0  0  0  0  0  0  0  0
   -4.9965  -10.2693   -2.4941 H   0  0  0  0  0  0  0  0  0  0  0  0
   -3.9281   -5.9185   -2.4845 H   0  0  0  0  0  0  0  0  0  0  0  0
   -1.9955    0.3986   -5.3073 H   0  0  0  0  0  0  0  0  0  0  0  0
   -7.0600    3.7274   -6.1039 H   0  0  0  0  0  0  0  0  0  0  0  0
   -6.1129    5.1889   -6.4527 H   0  0  0  0  0  0  0  0  0  0  0  0
   -6.4051    2.7809   -8.3309 H   0  0  0  0  0  0  0  0  0  0  0  0
   -7.1611    4.3618   -8.5285 H   0  0  0  0  0  0  0  0  0  0  0  0
   -5.4013    4.2037   -8.6382 H   0  0  0  0  0  0  0  0  0  0  0  0
   -6.0653   -0.8470   -5.9018 H   0  0  0  0  0  0  0  0  0  0  0  0
   -2.3193   -0.3931   -3.1989 H   0  0  0  0  0  0  0  0  0  0  0  0
   -0.6726   -4.4592    2.9430 H   0  0  0  0  0  0  0  0  0  0  0  0
   -1.2857   -4.0334    5.2893 H   0  0  0  0  0  0  0  0  0  0  0  0
   -1.9685    0.2941    6.0609 H   0  0  0  0  0  0  0  0  0  0  0  0
   -2.5615    0.1055    7.7280 H   0  0  0  0  0  0  0  0  0  0  0  0
   -3.7291    0.2047    6.3883 H   0  0  0  0  0  0  0  0  0  0  0  0
   -3.3155   -0.4613    4.1135 H   0  0  0  0  0  0  0  0  0  0  0  0
   -2.7231   -0.8919    1.7807 H   0  0  0  0  0  0  0  0  0  0  0  0
   -2.8037   -4.9693    1.2326 H   0  0  0  0  0  0  0  0  0  0  0  0
   -2.4357   -7.2333    0.3271 H   0  0  0  0  0  0  0  0  0  0  0  0
    0.4356   -8.9992   -3.3705 H   0  0  0  0  0  0  0  0  0  0  0  0
    0.2031   -7.2364   -3.2896 H   0  0  0  0  0  0  0  0  0  0  0  0
    1.6273   -8.0012   -2.5114 H   0  0  0  0  0  0  0  0  0  0  0  0
    1.2481   -5.9345   -1.4123 H   0  0  0  0  0  0  0  0  0  0  0  0
    0.8780   -3.6907   -0.5260 H   0  0  0  0  0  0  0  0  0  0  0  0
   -0.2671    3.0452   -1.2628 H   0  0  0  0  0  0  0  0  0  0  0  0
   -0.8114    3.2371   -3.6695 H   0  0  0  0  0  0  0  0  0  0  0  0
    2.8675    2.9192   -6.6815 H   0  0  0  0  0  0  0  0  0  0  0  0
    1.7988    2.3713   -7.9904 H   0  0  0  0  0  0  0  0  0  0  0  0
    2.3653    1.1996   -6.7827 H   0  0  0  0  0  0  0  0  0  0  0  0
    3.0774    1.7505   -4.6521 H   0  0  0  0  0  0  0  0  0  0  0  0
    3.6097    1.5706   -2.2820 H   0  0  0  0  0  0  0  0  0  0  0  0
    3.2592    4.2614   -1.1115 H   0  0  0  0  0  0  0  0  0  0  0  0
    5.4809    5.0239   -0.5086 H   0  0  0  0  0  0  0  0  0  0  0  0
    7.8182    5.2812   -0.4796 H   0  0  0  0  0  0  0  0  0  0  0  0
    6.9703    6.2147    0.7939 H   0  0  0  0  0  0  0  0  0  0  0  0
    8.7009    5.8427    0.9569 H   0  0  0  0  0  0  0  0  0  0  0  0
    5.8765    1.7364    2.1991 H   0  0  0  0  0  0  0  0  0  0  0  0
    3.6773    0.9101    1.5168 H   0  0  0  0  0  0  0  0  0  0  0  0
    1.8931    3.9455    1.8460 H   0  0  0  0  0  0  0  0  0  0  0  0
    4.1792    5.4055    2.0993 H   0  0  0  0  0  0  0  0  0  0  0  0
    2.8192   11.0489   -0.6585 H   0  0  0  0  0  0  0  0  0  0  0  0
    2.0722   10.9979    0.9517 H   0  0  0  0  0  0  0  0  0  0  0  0
    0.2975    9.4601    0.0655 H   0  0  0  0  0  0  0  0  0  0  0  0
    1.0911    9.4608   -1.5147 H   0  0  0  0  0  0  0  0  0  0  0  0
    0.3636   10.9453   -0.8827 H   0  0  0  0  0  0  0  0  0  0  0  0
    1.0713    7.6341    4.0378 H   0  0  0  0  0  0  0  0  0  0  0  0
    0.2113    1.8549    7.0148 H   0  0  0  0  0  0  0  0  0  0  0  0
    3.5451   -0.8150   11.3489 H   0  0  0  0  0  0  0  0  0  0  0  0
    2.8532    0.5665   12.2391 H   0  0  0  0  0  0  0  0  0  0  0  0
    1.7237   -2.2770   12.2325 H   0  0  0  0  0  0  0  0  0  0  0  0
    2.6574   -1.5479   13.5499 H   0  0  0  0  0  0  0  0  0  0  0  0
    1.0580   -0.9122   13.1294 H   0  0  0  0  0  0  0  0  0  0  0  0
    4.1686    2.8669    8.3331 H   0  0  0  0  0  0  0  0  0  0  0  0
    2.8860    4.8898    8.8461 H   0  0  0  0  0  0  0  0  0  0  0  0
    3.6130    8.7184    8.3865 H   0  0  0  0  0  0  0  0  0  0  0  0
    5.1395    4.8774   13.0891 H   0  0  0  0  0  0  0  0  0  0  0  0
    5.5501    9.9228   13.2783 H   0  0  0  0  0  0  0  0  0  0  0  0
    7.6292    8.4518   15.5791 H   0  0  0  0  0  0  0  0  0  0  0  0
    5.9885    9.4103   17.1881 H   0  0  0  0  0  0  0  0  0  0  0  0
    3.6138    8.8010   16.2803 H   0  0  0  0  0  0  0  0  0  0  0  0
    3.3983    6.1539   16.2250 H   0  0  0  0  0  0  0  0  0  0  0  0
    5.6409    5.1318   17.1013 H   0  0  0  0  0  0  0  0  0  0  0  0
    7.2303    7.1399   17.9309 H   0  0  0  0  0  0  0  0  0  0  0  0
    5.6196    7.2551   18.6831 H   0  0  0  0  0  0  0  0  0  0  0  0
    7.4240    5.8783   15.5318 H   0  0  0  0  0  0  0  0  0  0  0  0
  1  2  2  0  0  0  0
  2  3  1  0  0  0  0
  3  4  2  0  0  0  0
  3  5  1  0  0  0  0
  5  6  2  0  0  0  0
  6  7  1  0  0  0  0
  7  8  2  0  0  0  0
  8  9  1  0  0  0  0
  9 10  2  0  0  0  0
 10 11  1  0  0  0  0
 11 12  2  0  0  0  0
 12 13  1  0  0  0  0
 13 14  3  0  0  0  0
 12 15  1  0  0  0  0
 15 16  3  0  0  0  0
  8 17  1  0  0  0  0
 17 18  1  0  0  0  0
 18 19  1  0  0  0  0
 19 20  2  0  0  0  0
 20 21  1  0  0  0  0
 21 22  1  0  0  0  0
 21 23  1  0  0  0  0
  1 24  1  0  0  0  0
 24 25  2  0  0  0  0
 25 26  1  0  0  0  0
 26 27  2  0  0  0  0
 27 28  1  0  0  0  0
 28 29  2  0  0  0  0
 29 30  1  0  0  0  0
 30 31  1  0  0  0  0
 30 32  2  0  0  0  0
 32 33  1  0  0  0  0
 33 34  1  0  0  0  0
 34 35  1  0  0  0  0
 32 36  1  0  0  0  0
 36 37  1  0  0  0  0
 36 38  2  0  0  0  0
 27 39  1  0  0  0  0
 39 40  2  0  0  0  0
 40 41  1  0  0  0  0
 41 42  1  0  0  0  0
 42 43  2  0  0  0  0
 43 44  1  0  0  0  0
 44 45  2  0  0  0  0
 45 46  1  0  0  0  0
 46 47  1  0  0  0  0
 47 48  1  0  0  0  0
 45 49  1  0  0  0  0
 49 50  2  0  0  0  0
 49 51  1  0  0  0  0
 44 52  1  0  0  0  0
 41 53  2  0  0  0  0
 53 54  1  0  0  0  0
 40 55  1  0  0  0  0
 55 56  2  0  0  0  0
 56 57  1  0  0  0  0
 56 58  1  0  0  0  0
 58 59  2  0  0  0  0
 59 60  1  0  0  0  0
 60 61  1  0  0  0  0
 61 62  2  0  0  0  0
 62 63  1  0  0  0  0
 63 64  2  0  0  0  0
 64 65  1  0  0  0  0
 65 66  1  0  0  0  0
 64 67  1  0  0  0  0
 67 68  2  0  0  0  0
 60 69  1  0  0  0  0
 69 70  2  0  0  0  0
 70 71  1  0  0  0  0
 71 72  2  0  0  0  0
 72 73  1  0  0  0  0
 73 74  1  0  0  0  0
 72 75  1  0  0  0  0
 75 76  2  0  0  0  0
 59 77  1  0  0  0  0
 77 78  1  0  0  0  0
 78 79  1  0  0  0  0
 79 80  2  0  0  0  0
 80 81  1  0  0  0  0
 81 82  1  0  0  0  0
 82 83  2  0  0  0  0
 83 84  1  0  0  0  0
 84 85  2  0  0  0  0
 85 86  1  0  0  0  0
 86 87  1  0  0  0  0
 85 88  1  0  0  0  0
 88 89  2  0  0  0  0
 81 90  1  0  0  0  0
 90 91  2  0  0  0  0
 91 92  1  0  0  0  0
 92 93  2  0  0  0  0
 93 94  1  0  0  0  0
 94 95  1  0  0  0  0
 93 96  1  0  0  0  0
 96 97  2  0  0  0  0
 80 98  1  0  0  0  0
 98 99  1  0  0  0  0
 79100  1  0  0  0  0
100101  2  0  0  0  0
101102  1  0  0  0  0
102103  2  0  0  0  0
103104  1  0  0  0  0
104105  2  0  0  0  0
105106  1  0  0  0  0
106107  1  0  0  0  0
106108  2  0  0  0  0
108109  1  0  0  0  0
109110  1  0  0  0  0
110111  1  0  0  0  0
108112  1  0  0  0  0
112113  1  0  0  0  0
112114  2  0  0  0  0
103115  1  0  0  0  0
115116  2  0  0  0  0
116117  1  0  0  0  0
117118  1  0  0  0  0
118119  2  0  0  0  0
119120  1  0  0  0  0
120121  2  0  0  0  0
121122  1  0  0  0  0
122123  1  0  0  0  0
123124  1  0  0  0  0
121125  1  0  0  0  0
125126  2  0  0  0  0
125127  1  0  0  0  0
120128  1  0  0  0  0
117129  2  0  0  0  0
129130  1  0  0  0  0
116131  1  0  0  0  0
131132  2  0  0  0  0
132133  1  0  0  0  0
132134  1  0  0  0  0
134135  2  0  0  0  0
135136  1  0  0  0  0
136137  2  0  0  0  0
136138  1  0  0  0  0
138139  2  0  0  0  0
139140  1  0  0  0  0
140141  2  0  0  0  0
141142  1  0  0  0  0
142143  2  0  0  0  0
143144  1  0  0  0  0
144145  2  0  0  0  0
145146  1  0  0  0  0
146147  3  0  0  0  0
145148  1  0  0  0  0
148149  3  0  0  0  0
141150  1  0  0  0  0
150151  1  0  0  0  0
151152  1  0  0  0  0
152153  2  0  0  0  0
153154  1  0  0  0  0
154155  1  0  0  0  0
154156  1  0  0  0  0
 11  2  1  0  0  0  0
 23 17  1  0  0  0  0
 54 24  1  0  0  0  0
 99 58  1  0  0  0  0
130100  1  0  0  0  0
144135  1  0  0  0  0
156150  1  0  0  0  0
 10  5  1  0  0  0  0
 22 18  1  0  0  0  0
 53 26  1  0  0  0  0
 68 61  1  0  0  0  0
 76 69  1  0  0  0  0
 98 77  2  0  0  0  0
129102  1  0  0  0  0
143138  1  0  0  0  0
155151  1  0  0  0  0
 23  7  1  0  0  0  0
 38 28  1  0  0  0  0
 57 39  1  0  0  0  0
 89 82  1  0  0  0  0
 97 90  1  0  0  0  0
114104  1  0  0  0  0
133115  1  0  0  0  0
156140  1  0  0  0  0
 50 42  1  0  0  0  0
126118  1  0  0  0  0
  1157  1  0  0  0  0
  6158  1  0  0  0  0
  9159  1  0  0  0  0
 17160  1  0  0  0  0
 18161  1  0  0  0  0
 19162  1  0  0  0  0
 20163  1  0  0  0  0
 21164  1  0  0  0  0
 22165  1  0  0  0  0
 22166  1  0  0  0  0
 23167  1  0  0  0  0
 25168  1  0  0  0  0
 29169  1  0  0  0  0
 34170  1  0  0  0  0
 34171  1  0  0  0  0
 35172  1  0  0  0  0
 35173  1  0  0  0  0
 35174  1  0  0  0  0
 38175  1  0  0  0  0
 43176  1  0  0  0  0
 47177  1  0  0  0  0
 47178  1  0  0  0  0
 48179  1  0  0  0  0
 48180  1  0  0  0  0
 48181  1  0  0  0  0
 50182  1  0  0  0  0
 55183  1  0  0  0  0
 62184  1  0  0  0  0
 63185  1  0  0  0  0
 66186  1  0  0  0  0
 66187  1  0  0  0  0
 66188  1  0  0  0  0
 67189  1  0  0  0  0
 68190  1  0  0  0  0
 70191  1  0  0  0  0
 71192  1  0  0  0  0
 74193  1  0  0  0  0
 74194  1  0  0  0  0
 74195  1  0  0  0  0
 75196  1  0  0  0  0
 76197  1  0  0  0  0
 83198  1  0  0  0  0
 84199  1  0  0  0  0
 87200  1  0  0  0  0
 87201  1  0  0  0  0
 87202  1  0  0  0  0
 88203  1  0  0  0  0
 89204  1  0  0  0  0
 91205  1  0  0  0  0
 92206  1  0  0  0  0
 95207  1  0  0  0  0
 95208  1  0  0  0  0
 95209  1  0  0  0  0
 96210  1  0  0  0  0
 97211  1  0  0  0  0
101212  1  0  0  0  0
105213  1  0  0  0  0
110214  1  0  0  0  0
110215  1  0  0  0  0
111216  1  0  0  0  0
111217  1  0  0  0  0
111218  1  0  0  0  0
114219  1  0  0  0  0
119220  1  0  0  0  0
123221  1  0  0  0  0
123222  1  0  0  0  0
124223  1  0  0  0  0
124224  1  0  0  0  0
124225  1  0  0  0  0
126226  1  0  0  0  0
131227  1  0  0  0  0
134228  1  0  0  0  0
139229  1  0  0  0  0
142230  1  0  0  0  0
150231  1  0  0  0  0
151232  1  0  0  0  0
152233  1  0  0  0  0
153234  1  0  0  0  0
154235  1  0  0  0  0
155236  1  0  0  0  0
155237  1  0  0  0  0
156238  1  0  0  0  0
M  END
