174

C         10.02050        3.53530       -0.14830
C         11.14620        2.86690        0.25070
C         11.22400        1.44550        0.61700
O         10.33280        0.61640        0.56890
C         12.60430        1.21160        1.07290
C         13.13720        0.01610        1.55090
C         14.45890        0.10030        1.91650
C         15.19630        1.28790        1.81880
C         14.68250        2.47380        1.35060
C         13.33910        2.40970        0.96690
C         12.46300        3.45030        0.43120
C         12.84950        4.73070        0.13010
C         12.02540        5.73910       -0.41280
N         11.43530        6.61990       -0.85550
C         14.15670        5.23340        0.30200
N         15.19290        5.71650        0.40860
C         16.45180        0.64710        2.35610
C         17.54120        0.29250        1.32210
C         18.40040       -0.72560        2.03670
C         17.70260       -1.85070        2.12630
C         16.35990       -1.61190        1.47410
C         16.77440       -0.63270        0.36820
C         15.63020       -0.67760        2.46280
C          8.71140        3.07470       -0.37060
S          8.14640        1.41310       -0.24440
C          6.56220        1.90590       -0.71790
C          5.34800        1.24800       -0.90070
C          4.32680        2.11140       -1.24610
S          4.89090        3.77290       -1.38210
C          6.48540        3.29210       -0.93950
C          7.68990        3.94510       -0.75310
C          2.93320        1.79750       -1.40330
C          2.00440        2.76190       -1.78020
F          2.40670        3.99030       -2.14780
C          0.62760        2.54700       -1.75680
F         -0.17430        3.56500       -2.11530
C          0.07570        1.33980       -1.36880
C          0.99020        0.27470       -1.14610
N          0.49310       -0.94440       -0.90520
C          1.29790       -1.94410       -0.63810
C          0.63290       -3.26740       -0.40970
C          0.47870       -3.56000        1.08400
C          2.69830       -1.72010       -0.56610
N          3.19530       -0.52960       -0.81320
C          2.39240        0.49820       -1.12590
C          3.70220       -2.77770       -0.21010
C          4.33120       -2.49980        1.15710
C         -1.32940        1.18600       -1.10900
C         -2.13330        2.09100       -0.42360
N         -1.67540        3.21840        0.23070
C         -2.48540        4.35930        0.29870
C         -2.47560        5.15950        1.43700
C         -3.27230        6.28470        1.51320
C         -4.10040        6.62390        0.45120
S         -5.16700        8.02890        0.43410
C         -4.79280        8.88440        1.99140
C         -4.11190        5.82410       -0.69030
C         -3.31140        4.70750       -0.77030
C         -0.39100        3.22160        0.79540
C          0.43920        4.33760        0.68060
C          1.74420        4.28110        1.11990
C          2.25170        3.11260        1.68350
S          3.95930        3.11060        2.13130
C          4.33160        1.34780        2.35720
C          1.40770        2.02410        1.86700
C          0.09980        2.08250        1.43140
C         -3.47230        1.63180       -0.38870
S         -4.95590        2.24680        0.24700
C         -5.81270        0.79510       -0.25600
C         -4.97190       -0.11390       -0.89810
N         -5.36650       -1.24800       -1.59150
C         -5.93960       -2.34810       -0.92620
C         -7.15090       -2.88180       -1.36010
C         -7.71210       -3.94580       -0.69100
C         -7.06480       -4.50710        0.41030
S         -7.89050       -5.85950        1.18760
C         -6.79160       -6.31870        2.55790
C         -5.84760       -3.99230        0.82870
C         -5.29210       -2.91250        0.16570
C         -5.04110       -1.34840       -2.94530
C         -4.84580       -2.59240       -3.54070
C         -4.53240       -2.69350       -4.88190
C         -4.39960       -1.54880       -5.65540
S         -3.98580       -1.55070       -7.37130
C         -4.05340       -3.30500       -7.83490
C         -4.59380       -0.30140       -5.06470
C         -4.91610       -0.20010       -3.73150
C         -3.65050        0.38880       -0.97500
S         -2.16790       -0.27340       -1.57190
C         -7.23240        0.80180       -0.19890
C         -8.02080       -0.21050        0.26120
C         -7.58590       -1.17240        1.29660
O         -6.47320       -1.28290        1.77080
C         -8.81080       -1.86750        1.73190
C         -8.91490       -2.84670        2.71710
C        -10.19010       -3.32210        2.90690
C        -11.29190       -2.83870        2.18880
C        -11.20840       -1.86420        1.22320
C         -9.91500       -1.38300        1.00130
C         -9.44260       -0.37390        0.06110
C        -10.17170        0.22540       -0.93340
C         -9.60720        1.08200       -1.90170
N         -9.19730        1.75500       -2.73700
C        -11.54940        0.02350       -1.14720
N        -12.67040       -0.09780       -1.36450
C        -12.26110       -3.74280        2.90900
C        -12.75490       -4.98210        2.13400
C        -13.27200       -5.90390        3.21440
C        -12.22420       -6.37120        3.88120
C        -10.98200       -5.77190        3.26300
C        -11.43200       -5.68180        1.79980
C        -11.03050       -4.29210        3.69980
H         10.12280        4.59920       -0.32560
H         12.53050       -0.87350        1.61560
H         15.26250        3.37910        1.28950
H         16.85540        1.08500        3.26690
H         18.05280        1.14740        0.88870
H         19.37340       -0.51300        2.43890
H         17.97620       -2.76550        2.61860
H         15.79570       -2.49240        1.17860
H         15.93800       -0.15390       -0.13750
H         17.42780       -1.09680       -0.36860
H         15.48770       -1.12480        3.44490
H          5.19720        0.19190       -0.79090
H          7.84490        5.00110       -0.88150
H          1.19990       -4.06610       -0.89060
H         -0.35600       -3.21500       -0.86730
H         -0.09810       -2.77040        1.55960
H         -0.04330       -4.50310        1.22540
H          1.44720       -3.62550        1.57360
H          4.49140       -2.76510       -0.96470
H          3.23870       -3.76270       -0.20990
H          3.57060       -2.47360        1.93510
H          5.04950       -3.27800        1.40160
H          4.84670       -1.54330        1.14800
H         -1.84000        4.89600        2.26950
H         -3.24190        6.88140        2.41030
H         -3.74080        9.15210        2.02350
H         -5.06960        8.26120        2.83680
H         -5.40150        9.78320        1.98310
H         -4.74910        6.09840       -1.51660
H         -3.30220        4.11180       -1.67000
H          0.06590        5.23190        0.20550
H          2.39580        5.13250        0.99880
H          5.41430        1.27900        2.39840
H          3.95660        0.78910        1.50500
H          3.90540        0.98750        3.28940
H          1.75730        1.12520        2.34920
H         -0.54530        1.22690        1.56750
H         -7.64870       -2.44500       -2.21360
H         -8.66060       -4.35360       -1.00710
H         -5.82790       -6.63760        2.17190
H         -7.27870       -7.15070        3.05710
H         -6.68480       -5.48560        3.24630
H         -5.32490       -4.40640        1.67490
H         -4.35260       -2.49990        0.49890
H         -4.93460       -3.48990       -2.94700
H         -4.38450       -3.67360       -5.30590
H         -3.89990       -3.32880       -8.90920
H         -3.25990       -3.85620       -7.33840
H         -5.03030       -3.71220       -7.59200
H         -4.50060        0.58650       -5.67050
H         -5.09000        0.77220       -3.29670
H         -7.69980        1.71750       -0.54520
H         -8.04420       -3.17290        3.26400
H        -12.06490       -1.48940        0.68740
H        -13.05280       -3.24140        3.46260
H        -13.43050       -4.76430        1.31130
H        -14.31450       -6.07260        3.41150
H        -12.21780       -7.00760        4.74690
H        -10.04130       -6.27640        3.46310
H        -11.58220       -6.66430        1.35640
H        -10.76450       -5.09890        1.16940
H        -11.00750       -4.16710        4.78110
