241

C         -3.94060        8.58710        0.24880
C         -4.39820        9.11370        1.42110
C         -3.95850        8.82980        2.81020
O         -3.21760        7.95760        3.21430
C         -4.60230        9.85320        3.65280
C         -4.43060       10.02000        5.02610
C         -5.13830       11.07190        5.55410
C         -5.95860       11.89840        4.77320
C         -6.14380       11.73910        3.42100
C         -5.43220       10.67130        2.86260
C         -5.38070       10.18900        1.48620
C         -6.17640       10.63800        0.46520
C         -6.22010       10.12680       -0.85050
N         -6.34870        9.77480       -1.93650
C         -7.12430       11.67630        0.59230
N         -7.90880       12.51440        0.61290
C         -6.34980       12.75700        5.95000
C         -5.65460       14.13040        6.06310
C         -5.85670       14.51950        7.50980
C         -5.08260       13.73630        8.25010
C         -4.34420       12.80470        7.31620
C         -4.17470       13.72780        6.10260
C         -5.43770       11.83440        6.82080
C         -3.00670        7.55890       -0.01660
C         -2.32420        6.68920        0.79500
C         -1.50610        5.78660        0.09060
C         -0.67730        4.78640        0.63330
C         -0.58030        4.45610        2.03740
C          0.53690        3.99340        2.68290
C          0.23970        3.48030        3.95680
Cl         1.44770        2.81230        4.97460
C         -1.08010        3.52270        4.31080
Si        -1.88500        2.71010        5.82180
C         -3.78090        2.89740        5.65090
C         -4.39040        2.10430        4.49820
C         -1.25940        3.67220        7.35260
C         -1.74350        3.11520        8.68660
C         -1.35410        0.86740        5.75940
C         -2.15550       -0.06190        6.66650
S         -1.97990        4.28460        3.05140
C         -0.01890        3.97580       -0.28130
C         -0.13580        4.09820       -1.68490
C         -0.87260        5.17210       -2.22730
C         -0.89400        5.40850       -3.65260
S         -2.27930        6.07550       -4.46330
C         -1.49530        6.07110       -5.99980
Si        -2.34560        6.76720       -7.54130
C         -4.12240        7.25200       -7.02650
C         -4.21650        8.50080       -6.15380
C         -2.40450        5.38130       -8.85730
C         -3.00670        5.84970      -10.17690
C         -1.31780        8.26020       -8.16220
C         -0.63540        9.05380       -7.05020
C         -0.22760        5.58200       -5.85370
C          0.12480        5.20050       -4.54610
Cl         0.86280        5.45380       -7.17560
C         -1.56790        5.96950       -1.31790
S         -2.63730        7.27460       -1.71700
C          0.37060        2.94990       -2.35680
C          0.82980        1.99230       -1.50870
S          0.84330        2.53780        0.16170
C          1.10280        0.59230       -1.67290
C          0.47660       -0.35790       -0.88220
N         -0.59490       -0.14490       -0.03070
C         -0.59450       -0.85100        1.18820
C         -1.73670       -1.50860        1.63200
C         -1.71220       -2.24370        2.80180
C         -0.54120       -2.33250        3.54400
S         -0.38790       -3.25070        5.04360
C         -1.81950       -4.36740        5.01950
C          0.59580       -1.64940        3.11610
C          0.57060       -0.91590        1.95180
C         -1.59620        0.79110       -0.30650
C         -2.22300        1.47880        0.73560
C         -3.15630        2.45070        0.46070
C         -3.47990        2.78030       -0.85360
S         -4.61030        4.12010       -1.05580
C         -4.95000        4.14790       -2.83710
C         -2.89390        2.07180       -1.89180
C         -1.97090        1.08010       -1.61680
C          1.06200       -1.62870       -1.07220
S          0.78170       -3.16330       -0.35600
C          2.09470       -3.86930       -1.29720
C          2.66840       -2.95130       -2.18010
N          3.66980       -3.17530       -3.10010
C          4.53770       -2.09860       -3.38590
C          4.80290       -1.73350       -4.70080
C          5.63830       -0.66960       -4.97940
C          6.21850        0.04900       -3.94150
S          7.28630        1.43190       -4.16730
C          7.38770        1.62430       -5.96940
C          5.96030       -0.32170       -2.62220
C          5.13160       -1.38520       -2.34550
C          3.83310       -4.37470       -3.79580
C          5.10720       -4.76030       -4.21550
C          5.30670       -5.96260       -4.86160
C          4.23450       -6.81430       -5.09290
S          4.40450       -8.40740       -5.83360
C          6.00330       -8.30850       -6.69120
C          2.95640       -6.42390       -4.70140
C          2.75330       -5.21670       -4.06870
C          2.08070       -1.66600       -2.00790
S          2.32640       -0.09890       -2.71990
C          2.37510       -5.22430       -0.97630
C          3.39440       -6.07060       -1.31990
C          3.27000       -7.36650       -0.77190
C          4.11240       -8.47900       -0.97940
C          5.27710       -8.44250       -1.83650
C          5.72060       -9.45190       -2.64610
C          6.93880       -9.16480       -3.30420
O          7.61340       -9.94190       -4.18470
C          7.25910      -11.31210       -4.26670
C          7.61310      -12.09640       -3.00790
C          7.40660       -7.91630       -2.97730
Cl         8.82040       -7.17980       -3.59800
S          6.36910       -7.08930       -1.86910
C          3.77290       -9.64120       -0.29670
C          2.69060       -9.74150        0.61610
C          1.83040       -8.63450        0.80270
C          0.72940       -8.62110        1.73910
C         -0.45150       -7.93760        1.60170
C         -1.27310       -7.97490        2.74920
O         -2.47590       -7.37990        2.91870
C         -2.97010       -6.59310        1.84600
C         -4.30900       -6.01590        2.27540
C         -0.69720       -8.70270        3.76370
S          0.83850       -9.35690        3.31300
Cl        -1.37240       -8.97610        5.30730
C          2.13100       -7.49650        0.06180
S          1.22960       -6.01210        0.09680
C          2.62040      -11.01540        1.21210
C          3.62380      -11.87240        0.82810
S          4.66370      -11.13010       -0.37670
C          3.76430      -13.22430        1.21840
C          4.82770      -14.05210        1.01600
C          4.64000      -15.52510        1.00300
O          3.69360      -16.14970        1.41960
C          5.83500      -16.05040        0.29770
C          6.10700      -17.34280       -0.10070
C          7.28740      -17.58860       -0.79470
Cl         7.65620      -19.18670       -1.30880
C          8.16410      -16.53690       -1.07360
Br         9.75000      -16.86550       -2.04960
C          7.90100      -15.23770       -0.65720
C          6.72820      -14.99500        0.03550
C          6.19370      -13.77230        0.62750
C          6.93270      -12.68140        1.00210
C          6.43810      -11.68530        1.87280
N          6.08580      -10.89810        2.62950
C          8.27910      -12.48820        0.63630
N          9.36640      -12.28600        0.32930
H         -4.33580        9.03030       -0.65800
H         -3.78940        9.35780        5.58660
H         -6.77910       12.38400        2.83790
H         -7.41410       12.79930        6.17310
H         -5.95730       14.85660        5.31370
H         -6.55980       15.26200        7.83860
H         -5.01000       13.69400        9.32100
H         -3.45230       12.32400        7.70900
H         -3.82790       13.22060        5.20410
H         -3.52410       14.57400        6.31710
H         -5.89370       11.26010        7.62500
H         -2.41260        6.70210        1.86520
H          1.53220        4.03870        2.27990
H         -4.25710        2.58490        6.58110
H         -4.02810        3.95160        5.51670
H         -5.46770        2.25530        4.45590
H         -4.20080        1.04010        4.61160
H         -3.96760        2.42210        3.54940
H         -0.16930        3.68470        7.35380
H         -1.57790        4.71300        7.26860
H         -1.40220        3.73940        9.51060
H         -1.35830        2.11160        8.84430
H         -2.82950        3.07470        8.71900
H         -1.43220        0.50620        4.73070
H         -0.30070        0.78230        6.02690
H         -1.79330       -1.08380        6.57080
H         -2.05900        0.23360        7.70730
H         -3.21160       -0.04580        6.40990
H         -4.72420        7.40990       -7.92240
H         -4.58040        6.41740       -6.49200
H         -3.83930        9.37050       -6.68540
H         -3.64220        8.37830       -5.23890
H         -5.24990        8.69630       -5.87510
H         -2.98510        4.53750       -8.48210
H         -1.39920        5.00460       -9.04450
H         -2.43270        6.67630      -10.58760
H         -3.01250        5.04310      -10.90790
H         -4.03080        6.18500      -10.03500
H         -1.96710        8.93000       -8.72800
H         -0.55430        7.91150       -8.85930
H         -1.36240        9.42730       -6.33400
H         -0.09460        9.90330       -7.46330
H          0.07460        8.42850       -6.51460
H          1.09930        4.83690       -4.27680
H          0.28020        2.79440       -3.41640
H         -2.64590       -1.44520        1.05230
H         -2.61060       -2.74700        3.12150
H         -1.83230       -4.92240        4.08720
H         -1.67170       -5.05150        5.84940
H         -2.74030       -3.80970        5.16600
H          1.49540       -1.70360        3.70910
H          1.45180       -0.38570        1.62180
H         -1.95330        1.26250        1.75860
H         -3.63570        2.99230        1.26070
H         -4.03950        4.36260       -3.38840
H         -5.38840        3.20250       -3.14300
H         -5.66150        4.95430       -2.98450
H         -3.13960        2.28290       -2.92020
H         -1.52620        0.52990       -2.43280
H          4.34620       -2.28560       -5.50900
H          5.81960       -0.40750       -6.00890
H          6.40300        1.83300       -6.37730
H          7.82280        0.73470       -6.41540
H          8.04170        2.47500       -6.13420
H          6.42190        0.23440       -1.82110
H          4.93800       -1.67360       -1.32300
H          5.95390       -4.12340       -4.00910
H          6.30700       -6.23560       -5.15490
H          6.04000       -7.39580       -7.27780
H          6.03680       -9.17260       -7.34760
H          6.82370       -8.35870       -5.98190
H          2.12310       -7.07990       -4.89990
H          1.75550       -4.92020       -3.78430
H          4.22920       -5.77710       -1.92220
H          5.15440      -10.34860       -2.81390
H          7.84050      -11.68200       -5.11480
H          6.19230      -11.41350       -4.50240
H          7.03070      -11.75050       -2.15650
H          8.66820      -11.97250       -2.77630
H          7.40590      -13.15090       -3.17030
H         -0.74130       -7.45860        0.68600
H         -3.09770       -7.21760        0.95200
H         -2.25750       -5.78910        1.61120
H         -5.01040       -6.81970        2.48070
H         -4.19100       -5.42580        3.18000
H         -4.70760       -5.38600        1.48540
H          1.86920      -11.30070        1.92580
H          2.87970      -13.68730        1.64310
H          5.41920      -18.14360        0.12000
H          8.60000      -14.44990       -0.88870
