178

C         -6.22800        6.74500       -5.10360
C         -7.30710        6.16590       -5.71860
C         -7.98590        4.90310       -5.35390
O         -7.98390        4.31150       -4.29190
C         -8.67360        4.45520       -6.58130
C         -9.32670        3.24020       -6.77260
C         -9.84260        3.07560       -8.03540
C         -9.71980        4.04820       -9.03650
C         -9.08290        5.25380       -8.85920
C         -8.55090        5.43980       -7.58060
C         -7.79170        6.55780       -7.02890
C         -7.63580        7.78790       -7.61290
C         -6.99540        8.88780       -7.00350
N         -6.51500        9.83290       -6.56190
C         -8.15430        8.13720       -8.87610
N         -8.54820        8.48150       -9.89840
C        -10.45810        3.21100      -10.05100
C        -11.93110        3.57740      -10.35700
C        -12.46960        4.25490       -9.12140
C        -12.58730        3.33450       -8.17370
C        -12.12960        2.01800       -8.75120
C        -12.57920        2.19120      -10.21070
C        -10.59590        2.12790       -8.93500
C         -5.62160        6.41850       -3.87770
S         -3.92060        6.89180       -3.68530
C         -3.85160        6.07550       -2.17600
C         -2.96090        5.68640       -1.18090
C         -3.70290        4.93340       -0.24030
N         -5.00920        4.85640       -0.63250
C         -6.08490        4.20720        0.07130
C         -6.77550        5.16410        1.04060
C         -5.11660        5.53700       -1.81800
C         -6.10390        5.73390       -2.77280
C         -2.91730        4.37930        0.77030
C         -1.57910        4.68230        0.60500
S         -1.28050        5.72370       -0.78450
C         -0.50960        4.05240        1.29070
C          0.86100        4.24170        1.15110
N          1.46080        5.32260        0.52780
C          1.06020        6.63180        0.81590
C          0.47630        6.95040        2.03840
C          0.06760        8.24100        2.31370
C          0.24400        9.24350        1.37060
S         -0.22940       10.92730        1.60480
C         -0.95910       10.95290        3.26720
C          0.83340        8.93070        0.14620
C          1.23210        7.64410       -0.13150
C          2.59710        5.07240       -0.25610
C          2.60580        3.98360       -1.12330
C          3.72020        3.69720       -1.88720
C          4.84420        4.50680       -1.80290
S          6.32730        4.23860       -2.72280
C          5.85460        2.98720       -3.95150
C          4.83880        5.59900       -0.93660
C          3.73190        5.87850       -0.16810
C          1.58210        3.16850        1.73250
S          3.24600        2.69100        1.73360
C          2.84050        1.20160        2.57930
C          1.48080        1.08400        2.82750
N          0.83190       -0.02830        3.34490
C          1.20660       -1.32130        2.95800
C          1.14860       -2.37710        3.86600
C          1.61980       -3.62970        3.52700
C          2.16040       -3.85200        2.26730
S          2.87510       -5.38220        1.74980
C          2.42610       -6.54410        3.06730
C          2.17580       -2.81310        1.33960
C          1.69810       -1.56590        1.67480
C         -0.27070        0.18430        4.18110
C         -0.26050        1.23540        5.09410
C         -1.35190        1.47970        5.90480
C         -2.47190        0.66480        5.82360
S         -3.92890        0.87820        6.79850
C         -3.49560        2.21500        7.94800
C         -2.48260       -0.39500        4.91780
C         -1.39960       -0.63200        4.10280
C          0.78610        2.22230        2.35430
S         -0.88910        2.63390        2.26820
C          3.82500        0.17710        2.74300
S          3.86660       -0.79960        4.20380
C          4.88460       -1.94300        3.40800
C          5.35840       -3.24260        3.54080
C          6.01800       -3.55850        2.32100
N          5.95830       -2.48080        1.47570
C          6.53040       -2.41190        0.15620
C          7.97820       -1.92830        0.19800
C          5.26090       -1.49910        2.11900
C          4.67410       -0.27990        1.76210
C          6.43560       -4.87610        2.23100
C          6.10370       -5.60170        3.36720
S          5.29620       -4.59460        4.59180
C          6.16730       -6.97300        3.64820
C          6.65410       -8.02740        2.91490
C          7.52370       -8.00750        1.72140
O          7.89460       -7.05720        1.05790
C          7.91300       -9.41090        1.48150
C          8.75460       -9.87880        0.47550
C          8.94120      -11.23990        0.49030
C          8.33830      -12.07540        1.43960
C          7.50300      -11.62670        2.43500
C          7.29650      -10.24450        2.43390
C          6.45680       -9.41340        3.29240
C          5.54780       -9.89030        4.20500
C          5.38910      -11.25100        4.53750
N          5.20760      -12.33620        4.86730
C          4.58860       -9.11430        4.88700
N          3.74040       -8.56790        5.43820
C          8.96980      -13.31830        0.86430
C         10.18580      -13.92310        1.60840
C         10.84560      -12.78550        2.34720
C         11.41540      -11.99470        1.44770
C         11.15100      -12.58340        0.08400
C         11.15920      -14.08120        0.42930
C          9.64030      -12.38750       -0.19480
H         -5.69160        7.49650       -5.67250
H         -9.39280        2.51480       -5.97670
H         -8.98520        5.98900       -9.64070
H         -9.90070        2.94960      -10.94840
H        -12.07930        4.10360      -11.29610
H        -12.64830        5.31160       -9.04850
H        -12.88430        3.46850       -7.15000
H        -12.45890        1.12350       -8.22870
H        -13.66250        2.21900      -10.31750
H        -12.16210        1.44400      -10.88460
H        -10.12820        1.15970       -9.10460
H         -5.67210        3.35320        0.61500
H         -6.80030        3.83950       -0.66870
H         -7.58040        4.65140        1.55930
H         -7.19110        6.01180        0.50100
H         -6.06500        5.53500        1.77600
H         -7.11900        5.39540       -2.70010
H         -3.27330        3.75560        1.57040
H          0.34240        6.18310        2.78670
H         -0.37980        8.44830        3.27240
H         -0.21510       10.66880        4.00570
H         -1.26800       11.98030        3.43320
H         -1.82470       10.29790        3.30380
H          0.96270        9.71090       -0.58770
H          1.66890        7.40830       -1.08950
H          1.72750        3.35930       -1.20040
H          3.69480        2.84390       -2.54570
H          4.98510        3.32810       -4.50550
H          6.70610        2.89680       -4.61870
H          5.66600        2.03330       -3.46720
H          5.71930        6.21920       -0.87000
H          3.73940        6.71970        0.50810
H          0.76290       -2.20270        4.85900
H          1.58660       -4.41520        4.26380
H          1.34810       -6.55180        3.19570
H          2.93330       -6.29090        3.99330
H          2.76270       -7.51830        2.72670
H          2.57140       -2.99820        0.35250
H          1.71140       -0.76950        0.94550
H          0.61410        1.86450        5.17300
H         -1.30970        2.30480        6.59720
H         -2.62250        1.93360        8.52930
H         -3.32770        3.13900        7.40240
H         -4.35430        2.32590        8.60290
H         -3.35810       -1.02300        4.85720
H         -1.42150       -1.44630        3.39450
H          6.48090       -3.40990       -0.28660
H          5.92120       -1.73070       -0.44370
H          8.38360       -1.88060       -0.80870
H          8.03470       -0.93870        0.64590
H          8.58490       -2.61260        0.78590
H          4.77860        0.21460        0.81340
H          6.93700       -5.32610        1.39470
H          5.71690       -7.23100        4.60000
H          9.19700       -9.19970       -0.23660
H          7.04770      -12.28250        3.15810
H          8.28010      -14.08130        0.50880
H          9.96050      -14.80990        2.19470
H         10.78250      -12.64570        3.41050
H         11.92320      -11.06190        1.60930
H         11.80530      -12.25090       -0.71780
H         10.77350      -14.71270       -0.36990
H         12.14100      -14.43700        0.73810
H          9.38780      -12.54350       -1.24200
