
  xtb     02142206143D
 energy: -309.487402108829 gnorm: 0.000809195225 xtb: 6.4.1 (unknown)
184204  0     0  0            999 V2000
   -0.4395    3.2841  -10.7142 C   0  0  0  0  0  0  0  0  0  0  0  0
   -1.3877    3.5242  -11.6759 C   0  0  0  0  0  0  0  0  0  0  0  0
   -2.8615    3.5067  -11.5575 C   0  0  0  0  0  0  0  0  0  0  0  0
   -3.5546    3.1193  -10.6351 O   0  0  0  0  0  0  0  0  0  0  0  0
   -3.3778    4.0730  -12.8166 C   0  0  0  0  0  0  0  0  0  0  0  0
   -4.7143    4.3050  -13.1332 C   0  0  0  0  0  0  0  0  0  0  0  0
   -4.9060    4.8623  -14.3738 C   0  0  0  0  0  0  0  0  0  0  0  0
   -3.8449    5.1665  -15.2369 C   0  0  0  0  0  0  0  0  0  0  0  0
   -2.5232    4.9333  -14.9397 C   0  0  0  0  0  0  0  0  0  0  0  0
   -2.3062    4.3648  -13.6810 C   0  0  0  0  0  0  0  0  0  0  0  0
   -1.0634    3.9695  -13.0219 C   0  0  0  0  0  0  0  0  0  0  0  0
    0.1709    3.9649  -13.6195 C   0  0  0  0  0  0  0  0  0  0  0  0
    0.4198    4.4017  -14.9378 C   0  0  0  0  0  0  0  0  0  0  0  0
    0.7060    4.7423  -15.9966 N   0  0  0  0  0  0  0  0  0  0  0  0
    1.3731    3.4895  -13.0530 C   0  0  0  0  0  0  0  0  0  0  0  0
    2.3956    3.1069  -12.6951 N   0  0  0  0  0  0  0  0  0  0  0  0
   -4.7625    5.7189  -16.2987 C   0  0  0  0  0  0  0  0  0  0  0  0
   -4.8655    7.2584  -16.4343 C   0  0  0  0  0  0  0  0  0  0  0  0
   -4.5389    7.8321  -15.0779 C   0  0  0  0  0  0  0  0  0  0  0  0
   -5.5441    7.5419  -14.2627 C   0  0  0  0  0  0  0  0  0  0  0  0
   -6.5684    6.7660  -15.0532 C   0  0  0  0  0  0  0  0  0  0  0  0
   -6.3944    7.4174  -16.4345 C   0  0  0  0  0  0  0  0  0  0  0  0
   -5.9450    5.3771  -15.3383 C   0  0  0  0  0  0  0  0  0  0  0  0
   -0.5508    2.8669   -9.3771 C   0  0  0  0  0  0  0  0  0  0  0  0
    0.9654    2.8200   -8.4512 S   0  0  0  0  0  0  0  0  0  0  0  0
    0.1160    2.2921   -7.0563 C   0  0  0  0  0  0  0  0  0  0  0  0
    0.3043    1.9520   -5.7184 C   0  0  0  0  0  0  0  0  0  0  0  0
   -0.9701    1.6136   -5.2061 C   0  0  0  0  0  0  0  0  0  0  0  0
   -1.9151    1.7160   -6.1869 N   0  0  0  0  0  0  0  0  0  0  0  0
   -3.3282    1.4978   -6.0120 C   0  0  0  0  0  0  0  0  0  0  0  0
   -3.9864    2.6646   -5.2796 C   0  0  0  0  0  0  0  0  0  0  0  0
   -1.2759    2.1488   -7.3182 C   0  0  0  0  0  0  0  0  0  0  0  0
   -1.6413    2.4690   -8.6165 C   0  0  0  0  0  0  0  0  0  0  0  0
   -0.9548    1.2570   -3.8589 C   0  0  0  0  0  0  0  0  0  0  0  0
    0.3168    1.3070   -3.3311 C   0  0  0  0  0  0  0  0  0  0  0  0
    1.5292    1.7909   -4.5135 S   0  0  0  0  0  0  0  0  0  0  0  0
    0.6700    0.9640   -1.9812 C   0  0  0  0  0  0  0  0  0  0  0  0
    1.9281    0.5029   -1.6252 C   0  0  0  0  0  0  0  0  0  0  0  0
    2.9146    0.4532   -2.5394 F   0  0  0  0  0  0  0  0  0  0  0  0
    2.2050   -0.0111   -0.3579 C   0  0  0  0  0  0  0  0  0  0  0  0
    3.4435   -0.4845   -0.1250 F   0  0  0  0  0  0  0  0  0  0  0  0
    1.2476   -0.0787    0.6384 C   0  0  0  0  0  0  0  0  0  0  0  0
   -0.0066    0.5279    0.3620 C   0  0  0  0  0  0  0  0  0  0  0  0
   -0.9390    0.5556    1.3261 N   0  0  0  0  0  0  0  0  0  0  0  0
   -2.1195    1.0636    1.0719 C   0  0  0  0  0  0  0  0  0  0  0  0
   -3.0821    1.1108    2.2161 C   0  0  0  0  0  0  0  0  0  0  0  0
   -2.9623    2.4585    2.9312 C   0  0  0  0  0  0  0  0  0  0  0  0
   -2.4065    1.5950   -0.2147 C   0  0  0  0  0  0  0  0  0  0  0  0
   -1.5050    1.5668   -1.1658 N   0  0  0  0  0  0  0  0  0  0  0  0
   -0.2982    1.0295   -0.9315 C   0  0  0  0  0  0  0  0  0  0  0  0
   -3.7388    2.1649   -0.6015 C   0  0  0  0  0  0  0  0  0  0  0  0
   -4.6355    1.0612   -1.1693 C   0  0  0  0  0  0  0  0  0  0  0  0
    1.4546   -0.8474    1.8411 C   0  0  0  0  0  0  0  0  0  0  0  0
    1.9687   -2.1351    1.8917 C   0  0  0  0  0  0  0  0  0  0  0  0
    2.2939   -2.9117    0.7947 N   0  0  0  0  0  0  0  0  0  0  0  0
    1.5732   -2.7878   -0.4002 C   0  0  0  0  0  0  0  0  0  0  0  0
    0.1916   -2.5815   -0.3797 C   0  0  0  0  0  0  0  0  0  0  0  0
   -0.4928   -2.3518   -1.5510 C   0  0  0  0  0  0  0  0  0  0  0  0
    0.1775   -2.3395   -2.7735 C   0  0  0  0  0  0  0  0  0  0  0  0
   -0.7922   -1.9814   -4.2054 S   0  0  0  0  0  0  0  0  0  0  0  0
    0.4429   -1.7468   -5.5138 C   0  0  0  0  0  0  0  0  0  0  0  0
    1.5385   -2.6087   -2.8056 C   0  0  0  0  0  0  0  0  0  0  0  0
    2.2287   -2.8251   -1.6283 C   0  0  0  0  0  0  0  0  0  0  0  0
    3.3633   -3.8130    0.8858 C   0  0  0  0  0  0  0  0  0  0  0  0
    3.2893   -5.0611    0.2670 C   0  0  0  0  0  0  0  0  0  0  0  0
    4.3343   -5.9492    0.3763 C   0  0  0  0  0  0  0  0  0  0  0  0
    5.4732   -5.6178    1.1095 C   0  0  0  0  0  0  0  0  0  0  0  0
    6.7408   -6.8434    1.1845 S   0  0  0  0  0  0  0  0  0  0  0  0
    7.9426   -6.1559    2.3588 C   0  0  0  0  0  0  0  0  0  0  0  0
    5.5553   -4.3724    1.7158 C   0  0  0  0  0  0  0  0  0  0  0  0
    4.5093   -3.4775    1.6002 C   0  0  0  0  0  0  0  0  0  0  0  0
    2.0221   -2.5942    3.2290 C   0  0  0  0  0  0  0  0  0  0  0  0
    2.5937   -4.0412    3.9595 S   0  0  0  0  0  0  0  0  0  0  0  0
    2.0860   -3.4683    5.5513 C   0  0  0  0  0  0  0  0  0  0  0  0
    1.5836   -2.1536    5.4996 C   0  0  0  0  0  0  0  0  0  0  0  0
    1.3003   -1.3582    6.5848 N   0  0  0  0  0  0  0  0  0  0  0  0
    0.4356   -0.2482    6.4502 C   0  0  0  0  0  0  0  0  0  0  0  0
   -0.8234   -0.3768    5.8661 C   0  0  0  0  0  0  0  0  0  0  0  0
   -1.6857    0.6967    5.8468 C   0  0  0  0  0  0  0  0  0  0  0  0
   -1.3093    1.9221    6.3934 C   0  0  0  0  0  0  0  0  0  0  0  0
   -2.5125    3.2094    6.3593 S   0  0  0  0  0  0  0  0  0  0  0  0
   -1.7114    4.5887    7.2253 C   0  0  0  0  0  0  0  0  0  0  0  0
   -0.0384    2.0645    6.9348 C   0  0  0  0  0  0  0  0  0  0  0  0
    0.8223    0.9861    6.9627 C   0  0  0  0  0  0  0  0  0  0  0  0
    1.9942   -1.4817    7.7988 C   0  0  0  0  0  0  0  0  0  0  0  0
    1.3525   -1.1731    9.0014 C   0  0  0  0  0  0  0  0  0  0  0  0
    1.9970   -1.3574   10.2039 C   0  0  0  0  0  0  0  0  0  0  0  0
    3.2883   -1.8778   10.2398 C   0  0  0  0  0  0  0  0  0  0  0  0
    3.9859   -2.2194   11.8194 S   0  0  0  0  0  0  0  0  0  0  0  0
    5.2882   -3.4250   11.4269 C   0  0  0  0  0  0  0  0  0  0  0  0
    3.9609   -2.1061    9.0451 C   0  0  0  0  0  0  0  0  0  0  0  0
    3.3223   -1.8992    7.8403 C   0  0  0  0  0  0  0  0  0  0  0  0
    1.5225   -1.6942    4.1620 C   0  0  0  0  0  0  0  0  0  0  0  0
    0.9389   -0.2506    3.3984 S   0  0  0  0  0  0  0  0  0  0  0  0
    2.2916   -4.3693    6.6079 C   0  0  0  0  0  0  0  0  0  0  0  0
    1.7245   -4.4347    7.8552 C   0  0  0  0  0  0  0  0  0  0  0  0
    2.4552   -5.0959    8.9592 C   0  0  0  0  0  0  0  0  0  0  0  0
    3.5107   -5.6929    8.8848 O   0  0  0  0  0  0  0  0  0  0  0  0
    1.6989   -4.7756   10.1850 C   0  0  0  0  0  0  0  0  0  0  0  0
    2.0338   -5.1116   11.4948 C   0  0  0  0  0  0  0  0  0  0  0  0
    1.1543   -4.6381   12.4379 C   0  0  0  0  0  0  0  0  0  0  0  0
    0.0147   -3.8952   12.1048 C   0  0  0  0  0  0  0  0  0  0  0  0
   -0.3355   -3.5675   10.8164 C   0  0  0  0  0  0  0  0  0  0  0  0
    0.5562   -4.0253    9.8442 C   0  0  0  0  0  0  0  0  0  0  0  0
    0.5182   -3.8713    8.3911 C   0  0  0  0  0  0  0  0  0  0  0  0
   -0.5716   -3.4604    7.6547 C   0  0  0  0  0  0  0  0  0  0  0  0
   -1.7032   -2.8247    8.1935 C   0  0  0  0  0  0  0  0  0  0  0  0
   -2.6252   -2.2464    8.5635 N   0  0  0  0  0  0  0  0  0  0  0  0
   -0.6965   -3.6922    6.2758 C   0  0  0  0  0  0  0  0  0  0  0  0
   -0.8687   -3.9013    5.1584 N   0  0  0  0  0  0  0  0  0  0  0  0
   -0.4088   -3.7482   13.5452 C   0  0  0  0  0  0  0  0  0  0  0  0
   -1.5606   -4.6577   14.0224 C   0  0  0  0  0  0  0  0  0  0  0  0
   -1.4311   -4.6452   15.5284 C   0  0  0  0  0  0  0  0  0  0  0  0
   -0.3507   -5.3469   15.8461 C   0  0  0  0  0  0  0  0  0  0  0  0
    0.2676   -5.8464   14.5602 C   0  0  0  0  0  0  0  0  0  0  0  0
   -1.0001   -6.0537   13.7213 C   0  0  0  0  0  0  0  0  0  0  0  0
    0.8630   -4.5764   13.9169 C   0  0  0  0  0  0  0  0  0  0  0  0
    0.5867    3.4706  -11.0086 H   0  0  0  0  0  0  0  0  0  0  0  0
   -5.4994    4.0562  -12.4363 H   0  0  0  0  0  0  0  0  0  0  0  0
   -1.7210    5.1745  -15.6166 H   0  0  0  0  0  0  0  0  0  0  0  0
   -4.7290    5.2194  -17.2649 H   0  0  0  0  0  0  0  0  0  0  0  0
   -4.3182    7.6747  -17.2758 H   0  0  0  0  0  0  0  0  0  0  0  0
   -3.6134    8.3245  -14.8431 H   0  0  0  0  0  0  0  0  0  0  0  0
   -5.6259    7.7432  -13.2105 H   0  0  0  0  0  0  0  0  0  0  0  0
   -7.5723    6.7341  -14.6377 H   0  0  0  0  0  0  0  0  0  0  0  0
   -6.8873    6.8706  -17.2372 H   0  0  0  0  0  0  0  0  0  0  0  0
   -6.7097    8.4596  -16.4515 H   0  0  0  0  0  0  0  0  0  0  0  0
   -6.6830    4.6525  -15.6772 H   0  0  0  0  0  0  0  0  0  0  0  0
   -3.4632    0.5726   -5.4426 H   0  0  0  0  0  0  0  0  0  0  0  0
   -3.7747    1.3711   -7.0001 H   0  0  0  0  0  0  0  0  0  0  0  0
   -3.8726    3.5815   -5.8529 H   0  0  0  0  0  0  0  0  0  0  0  0
   -3.5267    2.8038   -4.3042 H   0  0  0  0  0  0  0  0  0  0  0  0
   -5.0459    2.4669   -5.1439 H   0  0  0  0  0  0  0  0  0  0  0  0
   -2.6367    2.4376   -9.0182 H   0  0  0  0  0  0  0  0  0  0  0  0
   -1.8064    0.9587   -3.2815 H   0  0  0  0  0  0  0  0  0  0  0  0
   -4.1042    0.9586    1.8693 H   0  0  0  0  0  0  0  0  0  0  0  0
   -2.8175    0.3140    2.9113 H   0  0  0  0  0  0  0  0  0  0  0  0
   -3.1683    3.2830    2.2519 H   0  0  0  0  0  0  0  0  0  0  0  0
   -3.6621    2.5102    3.7606 H   0  0  0  0  0  0  0  0  0  0  0  0
   -1.9550    2.5781    3.3215 H   0  0  0  0  0  0  0  0  0  0  0  0
   -3.5726    2.9209   -1.3704 H   0  0  0  0  0  0  0  0  0  0  0  0
   -4.2252    2.6327    0.2531 H   0  0  0  0  0  0  0  0  0  0  0  0
   -5.5938    1.4759   -1.4716 H   0  0  0  0  0  0  0  0  0  0  0  0
   -4.1657    0.6032   -2.0366 H   0  0  0  0  0  0  0  0  0  0  0  0
   -4.8117    0.2851   -0.4277 H   0  0  0  0  0  0  0  0  0  0  0  0
   -0.3374   -2.5884    0.5614 H   0  0  0  0  0  0  0  0  0  0  0  0
   -1.5583   -2.1792   -1.5340 H   0  0  0  0  0  0  0  0  0  0  0  0
    1.1889   -1.0276   -5.1894 H   0  0  0  0  0  0  0  0  0  0  0  0
    0.8987   -2.6981   -5.7726 H   0  0  0  0  0  0  0  0  0  0  0  0
   -0.1007   -1.3557   -6.3685 H   0  0  0  0  0  0  0  0  0  0  0  0
    2.0817   -2.6323   -3.7360 H   0  0  0  0  0  0  0  0  0  0  0  0
    3.2939   -2.9985   -1.6576 H   0  0  0  0  0  0  0  0  0  0  0  0
    2.4044   -5.3289   -0.2904 H   0  0  0  0  0  0  0  0  0  0  0  0
    4.2788   -6.9179   -0.0961 H   0  0  0  0  0  0  0  0  0  0  0  0
    8.4027   -5.2629    1.9454 H   0  0  0  0  0  0  0  0  0  0  0  0
    8.6946   -6.9274    2.4923 H   0  0  0  0  0  0  0  0  0  0  0  0
    7.4535   -5.9484    3.3060 H   0  0  0  0  0  0  0  0  0  0  0  0
    6.4302   -4.0789    2.2726 H   0  0  0  0  0  0  0  0  0  0  0  0
    4.5882   -2.5006    2.0530 H   0  0  0  0  0  0  0  0  0  0  0  0
   -1.1336   -1.3218    5.4498 H   0  0  0  0  0  0  0  0  0  0  0  0
   -2.6736    0.5891    5.4289 H   0  0  0  0  0  0  0  0  0  0  0  0
   -1.4510    4.2912    8.2369 H   0  0  0  0  0  0  0  0  0  0  0  0
   -2.4511    5.3826    7.2540 H   0  0  0  0  0  0  0  0  0  0  0  0
   -0.8380    4.9207    6.6715 H   0  0  0  0  0  0  0  0  0  0  0  0
    0.2950    3.0043    7.3435 H   0  0  0  0  0  0  0  0  0  0  0  0
    1.8049    1.0994    7.3969 H   0  0  0  0  0  0  0  0  0  0  0  0
    0.3349   -0.8115    8.9882 H   0  0  0  0  0  0  0  0  0  0  0  0
    1.4914   -1.1392   11.1315 H   0  0  0  0  0  0  0  0  0  0  0  0
    6.1587   -2.9208   11.0168 H   0  0  0  0  0  0  0  0  0  0  0  0
    5.5502   -3.8944   12.3700 H   0  0  0  0  0  0  0  0  0  0  0  0
    4.8990   -4.1654   10.7342 H   0  0  0  0  0  0  0  0  0  0  0  0
    4.9834   -2.4464    9.0406 H   0  0  0  0  0  0  0  0  0  0  0  0
    3.8611   -2.0728    6.9214 H   0  0  0  0  0  0  0  0  0  0  0  0
    3.0623   -5.1140    6.4277 H   0  0  0  0  0  0  0  0  0  0  0  0
    2.9152   -5.6945   11.7128 H   0  0  0  0  0  0  0  0  0  0  0  0
   -1.2107   -2.9885   10.5712 H   0  0  0  0  0  0  0  0  0  0  0  0
   -0.4912   -2.7275   13.9140 H   0  0  0  0  0  0  0  0  0  0  0  0
   -2.5360   -4.4103   13.6124 H   0  0  0  0  0  0  0  0  0  0  0  0
   -2.0849   -4.0986   16.1825 H   0  0  0  0  0  0  0  0  0  0  0  0
    0.0781   -5.5034   16.8186 H   0  0  0  0  0  0  0  0  0  0  0  0
    0.9567   -6.6827   14.6418 H   0  0  0  0  0  0  0  0  0  0  0  0
   -0.8086   -6.2363   12.6655 H   0  0  0  0  0  0  0  0  0  0  0  0
   -1.6323   -6.8459   14.1191 H   0  0  0  0  0  0  0  0  0  0  0  0
    1.6293   -4.1040   14.5285 H   0  0  0  0  0  0  0  0  0  0  0  0
  1  2  2  0  0  0  0
  2  3  1  0  0  0  0
  3  4  2  0  0  0  0
  3  5  1  0  0  0  0
  5  6  2  0  0  0  0
  6  7  1  0  0  0  0
  7  8  2  0  0  0  0
  8  9  1  0  0  0  0
  9 10  2  0  0  0  0
 10 11  1  0  0  0  0
 11 12  2  0  0  0  0
 12 13  1  0  0  0  0
 13 14  3  0  0  0  0
 12 15  1  0  0  0  0
 15 16  3  0  0  0  0
  8 17  1  0  0  0  0
 17 18  1  0  0  0  0
 18 19  1  0  0  0  0
 19 20  2  0  0  0  0
 20 21  1  0  0  0  0
 21 22  1  0  0  0  0
 21 23  1  0  0  0  0
  1 24  1  0  0  0  0
 24 25  1  0  0  0  0
 25 26  1  0  0  0  0
 26 27  1  0  0  0  0
 27 28  2  0  0  0  0
 28 29  1  0  0  0  0
 29 30  1  0  0  0  0
 30 31  1  0  0  0  0
 29 32  1  0  0  0  0
 32 33  1  0  0  0  0
 28 34  1  0  0  0  0
 34 35  2  0  0  0  0
 35 36  1  0  0  0  0
 35 37  1  0  0  0  0
 37 38  2  0  0  0  0
 38 39  1  0  0  0  0
 38 40  1  0  0  0  0
 40 41  1  0  0  0  0
 40 42  2  0  0  0  0
 42 43  1  0  0  0  0
 43 44  2  0  0  0  0
 44 45  1  0  0  0  0
 45 46  1  0  0  0  0
 46 47  1  0  0  0  0
 45 48  2  0  0  0  0
 48 49  1  0  0  0  0
 49 50  2  0  0  0  0
 48 51  1  0  0  0  0
 51 52  1  0  0  0  0
 42 53  1  0  0  0  0
 53 54  2  0  0  0  0
 54 55  1  0  0  0  0
 55 56  1  0  0  0  0
 56 57  2  0  0  0  0
 57 58  1  0  0  0  0
 58 59  2  0  0  0  0
 59 60  1  0  0  0  0
 60 61  1  0  0  0  0
 59 62  1  0  0  0  0
 62 63  2  0  0  0  0
 55 64  1  0  0  0  0
 64 65  2  0  0  0  0
 65 66  1  0  0  0  0
 66 67  2  0  0  0  0
 67 68  1  0  0  0  0
 68 69  1  0  0  0  0
 67 70  1  0  0  0  0
 70 71  2  0  0  0  0
 54 72  1  0  0  0  0
 72 73  1  0  0  0  0
 73 74  1  0  0  0  0
 74 75  2  0  0  0  0
 75 76  1  0  0  0  0
 76 77  1  0  0  0  0
 77 78  2  0  0  0  0
 78 79  1  0  0  0  0
 79 80  2  0  0  0  0
 80 81  1  0  0  0  0
 81 82  1  0  0  0  0
 80 83  1  0  0  0  0
 83 84  2  0  0  0  0
 76 85  1  0  0  0  0
 85 86  2  0  0  0  0
 86 87  1  0  0  0  0
 87 88  2  0  0  0  0
 88 89  1  0  0  0  0
 89 90  1  0  0  0  0
 88 91  1  0  0  0  0
 91 92  2  0  0  0  0
 75 93  1  0  0  0  0
 93 94  1  0  0  0  0
 74 95  1  0  0  0  0
 95 96  2  0  0  0  0
 96 97  1  0  0  0  0
 97 98  2  0  0  0  0
 97 99  1  0  0  0  0
 99100  2  0  0  0  0
100101  1  0  0  0  0
101102  2  0  0  0  0
102103  1  0  0  0  0
103104  2  0  0  0  0
104105  1  0  0  0  0
105106  2  0  0  0  0
106107  1  0  0  0  0
107108  3  0  0  0  0
106109  1  0  0  0  0
109110  3  0  0  0  0
102111  1  0  0  0  0
111112  1  0  0  0  0
112113  1  0  0  0  0
113114  2  0  0  0  0
114115  1  0  0  0  0
115116  1  0  0  0  0
115117  1  0  0  0  0
 11  2  1  0  0  0  0
 23 17  1  0  0  0  0
 33 24  2  0  0  0  0
 50 37  1  0  0  0  0
 94 53  1  0  0  0  0
105 96  1  0  0  0  0
117111  1  0  0  0  0
 10  5  1  0  0  0  0
 22 18  1  0  0  0  0
 32 26  2  0  0  0  0
 50 43  1  0  0  0  0
 63 56  1  0  0  0  0
 71 64  1  0  0  0  0
 93 72  2  0  0  0  0
104 99  1  0  0  0  0
116112  1  0  0  0  0
 23  7  1  0  0  0  0
 36 27  1  0  0  0  0
 84 77  1  0  0  0  0
 92 85  1  0  0  0  0
117101  1  0  0  0  0
  1118  1  0  0  0  0
  6119  1  0  0  0  0
  9120  1  0  0  0  0
 17121  1  0  0  0  0
 18122  1  0  0  0  0
 19123  1  0  0  0  0
 20124  1  0  0  0  0
 21125  1  0  0  0  0
 22126  1  0  0  0  0
 22127  1  0  0  0  0
 23128  1  0  0  0  0
 30129  1  0  0  0  0
 30130  1  0  0  0  0
 31131  1  0  0  0  0
 31132  1  0  0  0  0
 31133  1  0  0  0  0
 33134  1  0  0  0  0
 34135  1  0  0  0  0
 46136  1  0  0  0  0
 46137  1  0  0  0  0
 47138  1  0  0  0  0
 47139  1  0  0  0  0
 47140  1  0  0  0  0
 51141  1  0  0  0  0
 51142  1  0  0  0  0
 52143  1  0  0  0  0
 52144  1  0  0  0  0
 52145  1  0  0  0  0
 57146  1  0  0  0  0
 58147  1  0  0  0  0
 61148  1  0  0  0  0
 61149  1  0  0  0  0
 61150  1  0  0  0  0
 62151  1  0  0  0  0
 63152  1  0  0  0  0
 65153  1  0  0  0  0
 66154  1  0  0  0  0
 69155  1  0  0  0  0
 69156  1  0  0  0  0
 69157  1  0  0  0  0
 70158  1  0  0  0  0
 71159  1  0  0  0  0
 78160  1  0  0  0  0
 79161  1  0  0  0  0
 82162  1  0  0  0  0
 82163  1  0  0  0  0
 82164  1  0  0  0  0
 83165  1  0  0  0  0
 84166  1  0  0  0  0
 86167  1  0  0  0  0
 87168  1  0  0  0  0
 90169  1  0  0  0  0
 90170  1  0  0  0  0
 90171  1  0  0  0  0
 91172  1  0  0  0  0
 92173  1  0  0  0  0
 95174  1  0  0  0  0
100175  1  0  0  0  0
103176  1  0  0  0  0
111177  1  0  0  0  0
112178  1  0  0  0  0
113179  1  0  0  0  0
114180  1  0  0  0  0
115181  1  0  0  0  0
116182  1  0  0  0  0
116183  1  0  0  0  0
117184  1  0  0  0  0
M  END
