224

C         -5.07110       -4.06870       -9.59070
C         -4.47420       -4.96200      -10.44550
C         -3.28620       -5.77010      -10.15310
O         -2.63240       -5.78680       -9.12470
C         -3.02570       -6.57480      -11.36060
C         -1.99540       -7.49260      -11.55090
C         -2.00470       -8.09470      -12.78640
C         -2.96650       -7.80210      -13.76170
C         -3.98600       -6.89630      -13.58740
C         -3.99780       -6.27450      -12.33530
C         -4.91220       -5.27080      -11.78960
C         -5.98360       -4.73330      -12.46040
C         -6.86930       -3.75780      -11.96000
N         -7.64020       -2.96720      -11.63930
C         -6.36390       -5.08090      -13.77270
N         -6.74120       -5.30700      -14.83400
C         -2.37680       -8.77580      -14.75140
C         -3.11520      -10.12080      -14.91770
C         -2.08230      -11.02430      -15.55130
C         -1.16920      -11.30160      -14.62940
C         -1.57020      -10.59090      -13.35680
C         -3.09730      -10.66500      -13.48340
C         -1.30330       -9.10210      -13.66410
C         -4.73650       -3.68320       -8.28730
S         -3.37640       -4.28050       -7.33260
C         -3.83660       -3.24780       -6.03580
C         -3.45510       -2.87950       -4.74850
C         -4.37910       -1.90920       -4.29790
N         -5.30200       -1.65930       -5.27700
C         -6.45110       -0.79830       -5.17090
C         -7.66520       -1.54520       -4.62190
C         -4.99510       -2.47870       -6.33640
C         -5.49490       -2.72860       -7.59800
C         -4.11590       -1.44640       -3.00910
C         -3.00240       -2.05710       -2.46240
S         -2.25160       -3.21020       -3.55810
C         -2.40750       -1.72190       -1.21720
C         -1.44400       -2.39290       -0.47180
N         -0.99770       -3.68270       -0.71490
C          0.35670       -3.97030       -0.51030
C          1.32760       -3.01270       -0.80920
C          2.65820       -3.27150       -0.57240
C          3.05770       -4.50160       -0.05530
S          4.78780       -4.71220        0.23130
C          4.94940       -6.46830        0.66420
C          2.10010       -5.46850        0.21530
C          0.76300       -5.19890        0.00170
C         -1.91390       -4.69980       -1.01240
C         -3.20160       -4.67260       -0.48550
C         -4.11920       -5.65500       -0.80470
C         -3.76100       -6.69230       -1.65380
S         -4.84030       -8.00220       -2.13810
C         -6.41180       -7.60350       -1.32080
C         -2.46850       -6.73120       -2.17550
C         -1.55790       -5.74870       -1.86410
C         -0.98090       -1.58990        0.60050
S          0.22060       -1.79640        1.83250
C         -0.08880       -0.17310        2.43170
C         -1.12550        0.44420        1.75130
N         -1.63580        1.68540        2.11170
C         -1.96950        2.59240        1.10600
C         -3.06940        3.44230        1.22870
C         -3.41180        4.28440        0.19520
C         -2.67490        4.29340       -0.98730
S         -3.21770        5.40930       -2.24790
C         -2.25580        4.91220       -3.70480
C         -1.56750        3.46620       -1.10610
C         -1.21680        2.63030       -0.06560
C         -1.91950        1.92880        3.46230
C         -1.74160        3.19950        4.00840
C         -2.04400        3.43620        5.33090
C         -2.52700        2.41050        6.14250
S         -2.89990        2.83380        7.81530
C         -3.47900        1.27690        8.54630
C         -2.68230        1.13820        5.60950
C         -2.38000        0.90270        4.28300
C         -1.61390       -0.36190        0.70200
S         -2.81730       -0.15450       -0.51790
C          0.77870        0.55500        3.31530
C          1.26690        0.31500        4.58510
N          0.93760       -0.76370        5.38910
C          0.72710       -0.55140        6.75790
C          1.03770       -1.53670        7.69380
C          0.81860       -1.31410        9.03780
C          0.30800       -0.10490        9.49670
C          0.09870        0.13020       10.96140
C          0.01790        0.87870        8.56120
C          0.20980        0.66020        7.21090
C          1.00820       -2.07010        4.87920
C          0.02460       -3.00040        5.20490
C          0.13140       -4.30130        4.76110
C          1.21140       -4.70930        3.98440
C          1.32240       -6.13730        3.54770
C          2.17100       -3.76860        3.63740
C          2.07660       -2.46130        4.07750
C          2.11000        1.37440        5.01380
S          3.08740        1.61650        6.41250
C          3.67750        3.15710        5.76820
C          3.17190        3.41480        4.47810
N          3.56060        4.39930        3.61390
C          2.65020        4.85310        2.63410
C          3.07560        5.02450        1.32070
C          2.20330        5.52180        0.37310
C          0.89680        5.85930        0.70780
C         -0.01750        6.46820       -0.30830
C          0.47890        5.66540        2.01870
C          1.33900        5.16650        2.97760
C          4.83370        4.98190        3.64340
C          5.97060        4.22680        3.93190
C          7.20840        4.83060        3.99520
C          7.35870        6.19720        3.76970
C          8.70160        6.84410        3.89920
C          6.22990        6.93210        3.43460
C          4.98250        6.34090        3.37220
C          2.25810        2.40270        4.09870
S          1.36520        2.08740        2.65550
C          4.58700        3.86060        6.56420
C          4.86840        5.20610        6.47810
C          3.92110        6.21650        5.97920
O          2.79130        6.02840        5.56710
C          4.57140        7.52430        6.21040
C          4.06670        8.78150        5.89270
C          4.91450        9.81940        6.20110
C          6.16060        9.62430        6.80800
C          6.66550        8.38860        7.13780
C          5.82940        7.31950        6.80840
C          6.04160        5.88140        6.95740
C          7.22300        5.27570        7.31200
C          8.40380        5.96510        7.64110
N          9.40540        6.46870        7.89490
C          7.42930        3.88230        7.29990
N          7.67840        2.76070        7.28180
C          6.47440       11.10060        6.82610
C          7.47090       11.60320        5.76050
C          7.21390       13.09110        5.69390
C          6.03830       13.27160        5.10570
C          5.48040       11.90830        4.76620
C          6.78370       11.15790        4.46360
C          5.08860       11.31730        6.13760
H         -5.95060       -3.55880       -9.96500
H         -1.27340       -7.68340      -10.77230
H         -4.71380       -6.68110      -14.35150
H         -2.04780       -8.35110      -15.69800
H         -4.07830      -10.05240      -15.41610
H         -2.09150      -11.31290      -16.58610
H         -0.26320      -11.86840      -14.74030
H         -1.12560      -10.95270      -12.43350
H         -3.63230      -10.04480      -12.76660
H         -3.46610      -11.68790      -13.42670
H         -0.25810       -8.89370      -13.88570
H         -6.67290       -0.40110       -6.16510
H         -6.19270        0.03520       -4.51220
H         -7.44840       -1.93910       -3.63160
H         -8.51650       -0.87380       -4.55340
H         -7.92470       -2.37420       -5.27610
H         -6.36040       -2.26440       -8.03640
H         -4.69080       -0.71190       -2.47440
H          1.03110       -2.06580       -1.23470
H          3.40650       -2.52640       -0.79430
H          6.01610       -6.64920        0.75390
H          4.53550       -7.08390       -0.12890
H          4.46420       -6.67010        1.61510
H          2.37810       -6.43460        0.60340
H          0.02380       -5.95020        0.23670
H         -3.49100       -3.87400        0.18170
H         -5.10740       -5.59860       -0.37710
H         -7.10220       -8.38570       -1.62060
H         -6.77550       -6.63960       -1.66500
H         -6.28620       -7.61770       -0.24210
H         -2.19610       -7.53470       -2.84210
H         -0.56870       -5.77210       -2.29440
H         -3.66280        3.42530        2.13030
H         -4.26720        4.93670        0.28480
H         -2.66650        5.47840       -4.53490
H         -1.20840        5.16720       -3.57120
H         -2.38270        3.84830       -3.88180
H         -0.96350        3.46540       -1.99880
H         -0.34370        2.00160       -0.15770
H         -1.36050        3.99220        3.38450
H         -1.90370        4.41870        5.75510
H         -4.37460        0.93670        8.03450
H         -3.71440        1.51130        9.57990
H         -2.68740        0.53320        8.50750
H         -3.03940        0.32030        6.21390
H         -2.51200       -0.08980        3.87760
H          1.45900       -2.47470        7.36480
H          1.06330       -2.09100        9.74790
H          1.05740        0.28950       11.45530
H         -0.52020        1.00830       11.12930
H         -0.37580       -0.73170       11.42760
H         -0.36800        1.83340        8.88800
H         -0.04440        1.43470        6.50320
H         -0.81030       -2.69450        5.81830
H         -0.63210       -5.01860        5.02640
H          1.06410       -6.80910        4.36430
H          2.33310       -6.36090        3.21710
H          0.63790       -6.33240        2.72290
H          3.01240       -4.05810        3.02560
H          2.84000       -1.74270        3.81800
H          4.09180        4.77460        1.05210
H          2.54550        5.65780       -0.64270
H         -1.05900        6.29240       -0.05310
H          0.17950        6.06280       -1.29770
H          0.14320        7.54610       -0.35170
H         -0.53110        5.93530        2.29320
H          1.02530        5.05710        4.00410
H          5.88140        3.16570        4.11060
H          8.07640        4.23220        4.23140
H          9.44950        6.29300        3.33200
H          8.67590        7.87150        3.54480
H          9.01810        6.84860        4.94270
H          6.32070        7.98940        3.23130
H          4.11290        6.93160        3.12680
H          5.08770        3.27540        7.32640
H          3.09530        8.89090        5.43600
H          7.62140        8.25230        7.61580
H          6.64110       11.54030        7.80750
H          8.49970       11.28990        5.91580
H          7.86560       13.83230        6.11800
H          5.51180       14.19340        4.94070
H          4.69630       11.87420        4.01410
H          7.28510       11.54230        3.57660
H          6.66320       10.07950        4.37980
H          4.33560       11.90870        6.65540
