
  xtb     02132210313D
 energy: -375.789466168282 gnorm: 0.000429148887 xtb: 6.4.1 (unknown)
228252  0     0  0            999 V2000
    9.8072   -0.4365    5.9794 C   0  0  0  0  0  0  0  0  0  0  0  0
   10.9507    0.3221    6.0227 C   0  0  0  0  0  0  0  0  0  0  0  0
   11.4328    1.3289    5.0556 C   0  0  0  0  0  0  0  0  0  0  0  0
   10.9549    1.6561    3.9837 O   0  0  0  0  0  0  0  0  0  0  0  0
   12.6416    1.9246    5.6526 C   0  0  0  0  0  0  0  0  0  0  0  0
   13.4302    2.9300    5.0977 C   0  0  0  0  0  0  0  0  0  0  0  0
   14.5028    3.2929    5.8752 C   0  0  0  0  0  0  0  0  0  0  0  0
   14.7706    2.6978    7.1150 C   0  0  0  0  0  0  0  0  0  0  0  0
   14.0010    1.7045    7.6719 C   0  0  0  0  0  0  0  0  0  0  0  0
   12.9031    1.3203    6.8962 C   0  0  0  0  0  0  0  0  0  0  0  0
   11.8805    0.3045    7.1398 C   0  0  0  0  0  0  0  0  0  0  0  0
   11.8629   -0.5386    8.2222 C   0  0  0  0  0  0  0  0  0  0  0  0
   10.9486   -1.5864    8.4629 C   0  0  0  0  0  0  0  0  0  0  0  0
   10.2780   -2.4751    8.7482 N   0  0  0  0  0  0  0  0  0  0  0  0
   12.7975   -0.5018    9.2785 C   0  0  0  0  0  0  0  0  0  0  0  0
   13.5123   -0.5391   10.1768 N   0  0  0  0  0  0  0  0  0  0  0  0
   15.9940    3.5483    7.3488 C   0  0  0  0  0  0  0  0  0  0  0  0
   15.8709    4.7360    8.3348 C   0  0  0  0  0  0  0  0  0  0  0  0
   14.4203    5.1500    8.3281 C   0  0  0  0  0  0  0  0  0  0  0  0
   14.1657    5.7142    7.1551 C   0  0  0  0  0  0  0  0  0  0  0  0
   15.4397    5.6918    6.3472 C   0  0  0  0  0  0  0  0  0  0  0  0
   16.4757    5.8543    7.4710 C   0  0  0  0  0  0  0  0  0  0  0  0
   15.6952    4.2121    5.9676 C   0  0  0  0  0  0  0  0  0  0  0  0
    8.8341   -0.6011    4.9816 C   0  0  0  0  0  0  0  0  0  0  0  0
    7.4401   -1.6122    5.4174 S   0  0  0  0  0  0  0  0  0  0  0  0
    6.7638   -1.3758    3.8612 C   0  0  0  0  0  0  0  0  0  0  0  0
    5.6336   -1.6642    3.1012 C   0  0  0  0  0  0  0  0  0  0  0  0
    5.8027   -1.0262    1.8520 C   0  0  0  0  0  0  0  0  0  0  0  0
    6.9935   -0.3536    1.8308 N   0  0  0  0  0  0  0  0  0  0  0  0
    7.5640    0.3453    0.7077 C   0  0  0  0  0  0  0  0  0  0  0  0
    8.3316   -0.6016   -0.2119 C   0  0  0  0  0  0  0  0  0  0  0  0
    7.5979   -0.5623    3.0466 C   0  0  0  0  0  0  0  0  0  0  0  0
    8.7542   -0.1324    3.6767 C   0  0  0  0  0  0  0  0  0  0  0  0
    4.6856   -1.1335    1.0180 C   0  0  0  0  0  0  0  0  0  0  0  0
    3.6596   -1.8128    1.6339 C   0  0  0  0  0  0  0  0  0  0  0  0
    4.1042   -2.4526    3.2104 S   0  0  0  0  0  0  0  0  0  0  0  0
    2.3312   -1.9633    1.1292 C   0  0  0  0  0  0  0  0  0  0  0  0
    1.1256   -1.7317    1.7794 C   0  0  0  0  0  0  0  0  0  0  0  0
    0.9681   -1.2446    3.0619 N   0  0  0  0  0  0  0  0  0  0  0  0
   -0.2527   -1.4387    3.7243 C   0  0  0  0  0  0  0  0  0  0  0  0
   -0.8522   -0.3855    4.4090 C   0  0  0  0  0  0  0  0  0  0  0  0
   -2.0912   -0.5395    4.9974 C   0  0  0  0  0  0  0  0  0  0  0  0
   -2.7513   -1.7590    4.9198 C   0  0  0  0  0  0  0  0  0  0  0  0
   -4.3561   -2.0512    5.5884 S   0  0  0  0  0  0  0  0  0  0  0  0
   -4.7633   -0.5038    6.4433 C   0  0  0  0  0  0  0  0  0  0  0  0
   -2.1325   -2.8313    4.2821 C   0  0  0  0  0  0  0  0  0  0  0  0
   -0.8961   -2.6769    3.6937 C   0  0  0  0  0  0  0  0  0  0  0  0
    1.9410   -0.4146    3.6475 C   0  0  0  0  0  0  0  0  0  0  0  0
    2.6146    0.5427    2.8965 C   0  0  0  0  0  0  0  0  0  0  0  0
    3.6710    1.2485    3.4384 C   0  0  0  0  0  0  0  0  0  0  0  0
    4.0679    1.0081    4.7467 C   0  0  0  0  0  0  0  0  0  0  0  0
    5.4781    1.7502    5.5059 S   0  0  0  0  0  0  0  0  0  0  0  0
    6.2972    2.6227    4.1414 C   0  0  0  0  0  0  0  0  0  0  0  0
    3.3344    0.1183    5.5305 C   0  0  0  0  0  0  0  0  0  0  0  0
    2.2801   -0.5833    4.9905 C   0  0  0  0  0  0  0  0  0  0  0  0
    0.0403   -1.9363    0.8908 C   0  0  0  0  0  0  0  0  0  0  0  0
   -1.6704   -1.7952    1.0480 S   0  0  0  0  0  0  0  0  0  0  0  0
   -1.8763   -2.0452   -0.6773 C   0  0  0  0  0  0  0  0  0  0  0  0
   -0.6833   -2.3972   -1.2978 C   0  0  0  0  0  0  0  0  0  0  0  0
   -0.5551   -2.8253   -2.6174 N   0  0  0  0  0  0  0  0  0  0  0  0
   -1.1541   -4.0204   -3.0188 C   0  0  0  0  0  0  0  0  0  0  0  0
   -1.4258   -4.2480   -4.3702 C   0  0  0  0  0  0  0  0  0  0  0  0
   -2.0346   -5.4114   -4.7736 C   0  0  0  0  0  0  0  0  0  0  0  0
   -2.3977   -6.3824   -3.8408 C   0  0  0  0  0  0  0  0  0  0  0  0
   -3.1791   -7.8296   -4.4831 S   0  0  0  0  0  0  0  0  0  0  0  0
   -3.4312   -8.8781   -3.0235 C   0  0  0  0  0  0  0  0  0  0  0  0
   -2.1390   -6.1601   -2.4967 C   0  0  0  0  0  0  0  0  0  0  0  0
   -1.5197   -4.9926   -2.0918 C   0  0  0  0  0  0  0  0  0  0  0  0
    0.3687   -2.1613   -3.4343 C   0  0  0  0  0  0  0  0  0  0  0  0
    1.2651   -2.8609   -4.2413 C   0  0  0  0  0  0  0  0  0  0  0  0
    2.1376   -2.1778   -5.0583 C   0  0  0  0  0  0  0  0  0  0  0  0
    2.1357   -0.7861   -5.0851 C   0  0  0  0  0  0  0  0  0  0  0  0
    3.2674    0.0075   -6.1863 S   0  0  0  0  0  0  0  0  0  0  0  0
    2.4226    1.5739   -6.5534 C   0  0  0  0  0  0  0  0  0  0  0  0
    1.2739   -0.0859   -4.2524 C   0  0  0  0  0  0  0  0  0  0  0  0
    0.3964   -0.7697   -3.4355 C   0  0  0  0  0  0  0  0  0  0  0  0
    0.4039   -2.2717   -0.4036 C   0  0  0  0  0  0  0  0  0  0  0  0
    2.1202   -2.3557   -0.5782 S   0  0  0  0  0  0  0  0  0  0  0  0
   -3.1348   -1.7620   -1.2693 C   0  0  0  0  0  0  0  0  0  0  0  0
   -4.0898   -0.8735   -0.7774 C   0  0  0  0  0  0  0  0  0  0  0  0
   -3.8918   -0.0308    0.3228 N   0  0  0  0  0  0  0  0  0  0  0  0
   -4.8214   -0.0622    1.3662 C   0  0  0  0  0  0  0  0  0  0  0  0
   -5.1617    1.0903    2.0733 C   0  0  0  0  0  0  0  0  0  0  0  0
   -6.0794    1.0251    3.0979 C   0  0  0  0  0  0  0  0  0  0  0  0
   -6.6880   -0.1836    3.4311 C   0  0  0  0  0  0  0  0  0  0  0  0
   -7.8489   -0.1454    4.7631 S   0  0  0  0  0  0  0  0  0  0  0  0
   -8.2110   -1.8977    5.0685 C   0  0  0  0  0  0  0  0  0  0  0  0
   -6.3688   -1.3277    2.7148 C   0  0  0  0  0  0  0  0  0  0  0  0
   -5.4404   -1.2644    1.6953 C   0  0  0  0  0  0  0  0  0  0  0  0
   -2.7606    0.7829    0.3213 C   0  0  0  0  0  0  0  0  0  0  0  0
   -2.1716    1.1503   -0.8900 C   0  0  0  0  0  0  0  0  0  0  0  0
   -0.9473    1.7851   -0.9201 C   0  0  0  0  0  0  0  0  0  0  0  0
   -0.2811    2.0646    0.2640 C   0  0  0  0  0  0  0  0  0  0  0  0
    1.3440    2.7681    0.2981 S   0  0  0  0  0  0  0  0  0  0  0  0
    2.0711    2.1177   -1.2393 C   0  0  0  0  0  0  0  0  0  0  0  0
   -0.9013    1.7878    1.4776 C   0  0  0  0  0  0  0  0  0  0  0  0
   -2.1265    1.1595    1.5100 C   0  0  0  0  0  0  0  0  0  0  0  0
   -5.2090   -0.7892   -1.6299 C   0  0  0  0  0  0  0  0  0  0  0  0
   -6.6672    0.1309   -1.6204 S   0  0  0  0  0  0  0  0  0  0  0  0
   -7.0894   -0.4756   -3.2302 C   0  0  0  0  0  0  0  0  0  0  0  0
   -6.0828   -1.3268   -3.7418 C   0  0  0  0  0  0  0  0  0  0  0  0
   -5.9583   -1.7871   -5.0399 N   0  0  0  0  0  0  0  0  0  0  0  0
   -4.6900   -1.6474   -5.6288 C   0  0  0  0  0  0  0  0  0  0  0  0
   -3.9555   -0.4805   -5.4008 C   0  0  0  0  0  0  0  0  0  0  0  0
   -2.6882   -0.3419   -5.9144 C   0  0  0  0  0  0  0  0  0  0  0  0
   -2.1285   -1.3529   -6.6929 C   0  0  0  0  0  0  0  0  0  0  0  0
   -0.4938   -1.0553   -7.2880 S   0  0  0  0  0  0  0  0  0  0  0  0
    0.0228   -2.6361   -8.0091 C   0  0  0  0  0  0  0  0  0  0  0  0
   -2.8694   -2.4971   -6.9577 C   0  0  0  0  0  0  0  0  0  0  0  0
   -4.1344   -2.6471   -6.4206 C   0  0  0  0  0  0  0  0  0  0  0  0
   -6.9879   -2.4486   -5.7174 C   0  0  0  0  0  0  0  0  0  0  0  0
   -7.8535   -3.2955   -5.0294 C   0  0  0  0  0  0  0  0  0  0  0  0
   -8.8601   -3.9607   -5.6972 C   0  0  0  0  0  0  0  0  0  0  0  0
   -9.0226   -3.7837   -7.0668 C   0  0  0  0  0  0  0  0  0  0  0  0
  -10.2797   -4.5810   -8.0054 S   0  0  0  0  0  0  0  0  0  0  0  0
  -11.5135   -5.0124   -6.7452 C   0  0  0  0  0  0  0  0  0  0  0  0
   -8.1488   -2.9476   -7.7595 C   0  0  0  0  0  0  0  0  0  0  0  0
   -7.1416   -2.2856   -7.0949 C   0  0  0  0  0  0  0  0  0  0  0  0
   -5.0522   -1.5079   -2.8089 C   0  0  0  0  0  0  0  0  0  0  0  0
   -3.5635   -2.3947   -2.8469 S   0  0  0  0  0  0  0  0  0  0  0  0
   -8.2520   -0.1143   -3.9219 C   0  0  0  0  0  0  0  0  0  0  0  0
   -9.1136    0.9330   -3.6961 C   0  0  0  0  0  0  0  0  0  0  0  0
   -8.9360    2.0285   -2.7323 C   0  0  0  0  0  0  0  0  0  0  0  0
   -8.2227    2.0513   -1.7461 O   0  0  0  0  0  0  0  0  0  0  0  0
   -9.8114    3.1224   -3.1957 C   0  0  0  0  0  0  0  0  0  0  0  0
   -9.9039    4.4078   -2.6673 C   0  0  0  0  0  0  0  0  0  0  0  0
  -10.7937    5.2205   -3.3291 C   0  0  0  0  0  0  0  0  0  0  0  0
  -11.5374    4.7885   -4.4349 C   0  0  0  0  0  0  0  0  0  0  0  0
  -11.4636    3.5196   -4.9601 C   0  0  0  0  0  0  0  0  0  0  0  0
  -10.5655    2.6775   -4.2997 C   0  0  0  0  0  0  0  0  0  0  0  0
  -10.2339    1.2757   -4.5417 C   0  0  0  0  0  0  0  0  0  0  0  0
  -10.9515    0.4101   -5.3298 C   0  0  0  0  0  0  0  0  0  0  0  0
  -10.8103   -0.9878   -5.2923 C   0  0  0  0  0  0  0  0  0  0  0  0
  -10.8286   -2.1360   -5.2384 N   0  0  0  0  0  0  0  0  0  0  0  0
  -12.0195    0.7918   -6.1653 C   0  0  0  0  0  0  0  0  0  0  0  0
  -12.8847    1.0398   -6.8787 N   0  0  0  0  0  0  0  0  0  0  0  0
  -12.2202    6.1234   -4.5991 C   0  0  0  0  0  0  0  0  0  0  0  0
  -13.6757    6.2199   -4.0955 C   0  0  0  0  0  0  0  0  0  0  0  0
  -13.9062    7.7058   -3.9395 C   0  0  0  0  0  0  0  0  0  0  0  0
  -13.2040    8.1150   -2.8907 C   0  0  0  0  0  0  0  0  0  0  0  0
  -12.4872    6.9125   -2.3199 C   0  0  0  0  0  0  0  0  0  0  0  0
  -13.5215    5.8207   -2.6222 C   0  0  0  0  0  0  0  0  0  0  0  0
  -11.3930    6.6048   -3.3640 C   0  0  0  0  0  0  0  0  0  0  0  0
    9.5935   -1.0166    6.8691 H   0  0  0  0  0  0  0  0  0  0  0  0
   13.1868    3.3573    4.1373 H   0  0  0  0  0  0  0  0  0  0  0  0
   14.2245    1.2604    8.6270 H   0  0  0  0  0  0  0  0  0  0  0  0
   16.9330    3.0102    7.4631 H   0  0  0  0  0  0  0  0  0  0  0  0
   16.3154    4.5602    9.3107 H   0  0  0  0  0  0  0  0  0  0  0  0
   13.7352    4.9439    9.1295 H   0  0  0  0  0  0  0  0  0  0  0  0
   13.2250    6.0737    6.7807 H   0  0  0  0  0  0  0  0  0  0  0  0
   15.4921    6.3877    5.5137 H   0  0  0  0  0  0  0  0  0  0  0  0
   16.4270    6.8307    7.9510 H   0  0  0  0  0  0  0  0  0  0  0  0
   17.4973    5.6517    7.1519 H   0  0  0  0  0  0  0  0  0  0  0  0
   16.4404    4.1087    5.1810 H   0  0  0  0  0  0  0  0  0  0  0  0
    6.7517    0.8278    0.1561 H   0  0  0  0  0  0  0  0  0  0  0  0
    8.2343    1.1173    1.0943 H   0  0  0  0  0  0  0  0  0  0  0  0
    7.6703   -1.3759   -0.5941 H   0  0  0  0  0  0  0  0  0  0  0  0
    8.7468   -0.0501   -1.0506 H   0  0  0  0  0  0  0  0  0  0  0  0
    9.1449   -1.0754    0.3323 H   0  0  0  0  0  0  0  0  0  0  0  0
    9.5103    0.4976    3.2474 H   0  0  0  0  0  0  0  0  0  0  0  0
    4.5854   -0.6952    0.0415 H   0  0  0  0  0  0  0  0  0  0  0  0
   -0.3471    0.5671    4.4662 H   0  0  0  0  0  0  0  0  0  0  0  0
   -2.5357    0.3044    5.4998 H   0  0  0  0  0  0  0  0  0  0  0  0
   -4.0166   -0.2967    7.2042 H   0  0  0  0  0  0  0  0  0  0  0  0
   -4.8406    0.3067    5.7242 H   0  0  0  0  0  0  0  0  0  0  0  0
   -5.7297   -0.6671    6.9097 H   0  0  0  0  0  0  0  0  0  0  0  0
   -2.6353   -3.7856    4.2520 H   0  0  0  0  0  0  0  0  0  0  0  0
   -0.4182   -3.5151    3.2086 H   0  0  0  0  0  0  0  0  0  0  0  0
    2.3172    0.7319    1.8771 H   0  0  0  0  0  0  0  0  0  0  0  0
    4.1738    1.9785    2.8251 H   0  0  0  0  0  0  0  0  0  0  0  0
    7.2586    2.9421    4.5320 H   0  0  0  0  0  0  0  0  0  0  0  0
    6.4476    1.9414    3.3100 H   0  0  0  0  0  0  0  0  0  0  0  0
    5.7116    3.4878    3.8432 H   0  0  0  0  0  0  0  0  0  0  0  0
    3.6260   -0.0390    6.5572 H   0  0  0  0  0  0  0  0  0  0  0  0
    1.7377   -1.2985    5.5901 H   0  0  0  0  0  0  0  0  0  0  0  0
   -1.1766   -3.4854   -5.0902 H   0  0  0  0  0  0  0  0  0  0  0  0
   -2.2498   -5.5835   -5.8171 H   0  0  0  0  0  0  0  0  0  0  0  0
   -2.4756   -9.1016   -2.5583 H   0  0  0  0  0  0  0  0  0  0  0  0
   -4.1071   -8.3909   -2.3267 H   0  0  0  0  0  0  0  0  0  0  0  0
   -3.8826   -9.7924   -3.3959 H   0  0  0  0  0  0  0  0  0  0  0  0
   -2.4084   -6.8879   -1.7484 H   0  0  0  0  0  0  0  0  0  0  0  0
   -1.3188   -4.8382   -1.0420 H   0  0  0  0  0  0  0  0  0  0  0  0
    1.2683   -3.9405   -4.2242 H   0  0  0  0  0  0  0  0  0  0  0  0
    2.8300   -2.7145   -5.6885 H   0  0  0  0  0  0  0  0  0  0  0  0
    2.5368    2.2718   -5.7287 H   0  0  0  0  0  0  0  0  0  0  0  0
    1.3768    1.3678   -6.7597 H   0  0  0  0  0  0  0  0  0  0  0  0
    2.9073    1.9735   -7.4384 H   0  0  0  0  0  0  0  0  0  0  0  0
    1.2727    0.9926   -4.2465 H   0  0  0  0  0  0  0  0  0  0  0  0
   -0.2889   -0.2313   -2.7969 H   0  0  0  0  0  0  0  0  0  0  0  0
   -4.7120    2.0351    1.8086 H   0  0  0  0  0  0  0  0  0  0  0  0
   -6.3472    1.9159    3.6463 H   0  0  0  0  0  0  0  0  0  0  0  0
   -7.2843   -2.4373    5.2432 H   0  0  0  0  0  0  0  0  0  0  0  0
   -8.7628   -2.3159    4.2316 H   0  0  0  0  0  0  0  0  0  0  0  0
   -8.8290   -1.9181    5.9610 H   0  0  0  0  0  0  0  0  0  0  0  0
   -6.8255   -2.2760    2.9447 H   0  0  0  0  0  0  0  0  0  0  0  0
   -5.1831   -2.1609    1.1503 H   0  0  0  0  0  0  0  0  0  0  0  0
   -2.6714    0.9215   -1.8200 H   0  0  0  0  0  0  0  0  0  0  0  0
   -0.5167    2.0567   -1.8714 H   0  0  0  0  0  0  0  0  0  0  0  0
    3.1452    2.2386   -1.1381 H   0  0  0  0  0  0  0  0  0  0  0  0
    1.7218    2.6906   -2.0933 H   0  0  0  0  0  0  0  0  0  0  0  0
    1.8203    1.0660   -1.3465 H   0  0  0  0  0  0  0  0  0  0  0  0
   -0.3945    2.0420    2.3958 H   0  0  0  0  0  0  0  0  0  0  0  0
   -2.5692    0.8964    2.4580 H   0  0  0  0  0  0  0  0  0  0  0  0
   -4.3868    0.3147   -4.8103 H   0  0  0  0  0  0  0  0  0  0  0  0
   -2.1156    0.5534   -5.7259 H   0  0  0  0  0  0  0  0  0  0  0  0
    1.0615   -2.4973   -8.2931 H   0  0  0  0  0  0  0  0  0  0  0  0
   -0.5737   -2.8601   -8.8887 H   0  0  0  0  0  0  0  0  0  0  0  0
   -0.0532   -3.4236   -7.2650 H   0  0  0  0  0  0  0  0  0  0  0  0
   -2.4682   -3.2884   -7.5706 H   0  0  0  0  0  0  0  0  0  0  0  0
   -4.6922   -3.5518   -6.6093 H   0  0  0  0  0  0  0  0  0  0  0  0
   -7.7294   -3.4297   -3.9648 H   0  0  0  0  0  0  0  0  0  0  0  0
   -9.5086   -4.6185   -5.1441 H   0  0  0  0  0  0  0  0  0  0  0  0
  -11.6533   -4.1570   -6.0918 H   0  0  0  0  0  0  0  0  0  0  0  0
  -12.4291   -5.2288   -7.2866 H   0  0  0  0  0  0  0  0  0  0  0  0
  -11.1963   -5.8923   -6.1924 H   0  0  0  0  0  0  0  0  0  0  0  0
   -8.2800   -2.8154   -8.8224 H   0  0  0  0  0  0  0  0  0  0  0  0
   -6.4750   -1.6266   -7.6315 H   0  0  0  0  0  0  0  0  0  0  0  0
   -8.4445   -0.7087   -4.8100 H   0  0  0  0  0  0  0  0  0  0  0  0
   -9.3098    4.7021   -1.8163 H   0  0  0  0  0  0  0  0  0  0  0  0
  -12.0368    3.2002   -5.8147 H   0  0  0  0  0  0  0  0  0  0  0  0
  -12.0664    6.6209   -5.5549 H   0  0  0  0  0  0  0  0  0  0  0  0
  -14.4003    5.6711   -4.6907 H   0  0  0  0  0  0  0  0  0  0  0  0
  -14.4921    8.2966   -4.6189 H   0  0  0  0  0  0  0  0  0  0  0  0
  -13.0862    9.1161   -2.5190 H   0  0  0  0  0  0  0  0  0  0  0  0
  -12.1304    6.9957   -1.2968 H   0  0  0  0  0  0  0  0  0  0  0  0
  -13.1535    4.8073   -2.4733 H   0  0  0  0  0  0  0  0  0  0  0  0
  -14.4432    5.9597   -2.0596 H   0  0  0  0  0  0  0  0  0  0  0  0
  -10.6887    7.4242   -3.4963 H   0  0  0  0  0  0  0  0  0  0  0  0
  1  2  2  0  0  0  0
  2  3  1  0  0  0  0
  3  4  2  0  0  0  0
  3  5  1  0  0  0  0
  5  6  2  0  0  0  0
  6  7  1  0  0  0  0
  7  8  2  0  0  0  0
  8  9  1  0  0  0  0
  9 10  2  0  0  0  0
 10 11  1  0  0  0  0
 11 12  2  0  0  0  0
 12 13  1  0  0  0  0
 13 14  3  0  0  0  0
 12 15  1  0  0  0  0
 15 16  3  0  0  0  0
  8 17  1  0  0  0  0
 17 18  1  0  0  0  0
 18 19  1  0  0  0  0
 19 20  2  0  0  0  0
 20 21  1  0  0  0  0
 21 22  1  0  0  0  0
 21 23  1  0  0  0  0
  1 24  1  0  0  0  0
 24 25  1  0  0  0  0
 25 26  1  0  0  0  0
 26 27  1  0  0  0  0
 27 28  2  0  0  0  0
 28 29  1  0  0  0  0
 29 30  1  0  0  0  0
 30 31  1  0  0  0  0
 29 32  1  0  0  0  0
 32 33  1  0  0  0  0
 28 34  1  0  0  0  0
 34 35  2  0  0  0  0
 35 36  1  0  0  0  0
 35 37  1  0  0  0  0
 37 38  2  0  0  0  0
 38 39  1  0  0  0  0
 39 40  1  0  0  0  0
 40 41  2  0  0  0  0
 41 42  1  0  0  0  0
 42 43  2  0  0  0  0
 43 44  1  0  0  0  0
 44 45  1  0  0  0  0
 43 46  1  0  0  0  0
 46 47  2  0  0  0  0
 39 48  1  0  0  0  0
 48 49  2  0  0  0  0
 49 50  1  0  0  0  0
 50 51  2  0  0  0  0
 51 52  1  0  0  0  0
 52 53  1  0  0  0  0
 51 54  1  0  0  0  0
 54 55  2  0  0  0  0
 38 56  1  0  0  0  0
 56 57  1  0  0  0  0
 57 58  1  0  0  0  0
 58 59  2  0  0  0  0
 59 60  1  0  0  0  0
 60 61  1  0  0  0  0
 61 62  2  0  0  0  0
 62 63  1  0  0  0  0
 63 64  2  0  0  0  0
 64 65  1  0  0  0  0
 65 66  1  0  0  0  0
 64 67  1  0  0  0  0
 67 68  2  0  0  0  0
 60 69  1  0  0  0  0
 69 70  2  0  0  0  0
 70 71  1  0  0  0  0
 71 72  2  0  0  0  0
 72 73  1  0  0  0  0
 73 74  1  0  0  0  0
 72 75  1  0  0  0  0
 75 76  2  0  0  0  0
 59 77  1  0  0  0  0
 77 78  1  0  0  0  0
 58 79  1  0  0  0  0
 79 80  2  0  0  0  0
 80 81  1  0  0  0  0
 81 82  1  0  0  0  0
 82 83  2  0  0  0  0
 83 84  1  0  0  0  0
 84 85  2  0  0  0  0
 85 86  1  0  0  0  0
 86 87  1  0  0  0  0
 85 88  1  0  0  0  0
 88 89  2  0  0  0  0
 81 90  1  0  0  0  0
 90 91  2  0  0  0  0
 91 92  1  0  0  0  0
 92 93  2  0  0  0  0
 93 94  1  0  0  0  0
 94 95  1  0  0  0  0
 93 96  1  0  0  0  0
 96 97  2  0  0  0  0
 80 98  1  0  0  0  0
 98 99  1  0  0  0  0
 99100  1  0  0  0  0
100101  2  0  0  0  0
101102  1  0  0  0  0
102103  1  0  0  0  0
103104  2  0  0  0  0
104105  1  0  0  0  0
105106  2  0  0  0  0
106107  1  0  0  0  0
107108  1  0  0  0  0
106109  1  0  0  0  0
109110  2  0  0  0  0
102111  1  0  0  0  0
111112  2  0  0  0  0
112113  1  0  0  0  0
113114  2  0  0  0  0
114115  1  0  0  0  0
115116  1  0  0  0  0
114117  1  0  0  0  0
117118  2  0  0  0  0
101119  1  0  0  0  0
119120  1  0  0  0  0
100121  1  0  0  0  0
121122  2  0  0  0  0
122123  1  0  0  0  0
123124  2  0  0  0  0
123125  1  0  0  0  0
125126  2  0  0  0  0
126127  1  0  0  0  0
127128  2  0  0  0  0
128129  1  0  0  0  0
129130  2  0  0  0  0
130131  1  0  0  0  0
131132  2  0  0  0  0
132133  1  0  0  0  0
133134  3  0  0  0  0
132135  1  0  0  0  0
135136  3  0  0  0  0
128137  1  0  0  0  0
137138  1  0  0  0  0
138139  1  0  0  0  0
139140  2  0  0  0  0
140141  1  0  0  0  0
141142  1  0  0  0  0
141143  1  0  0  0  0
 11  2  1  0  0  0  0
 23 17  1  0  0  0  0
 33 24  2  0  0  0  0
 78 37  1  0  0  0  0
120 79  1  0  0  0  0
131122  1  0  0  0  0
143137  1  0  0  0  0
 10  5  1  0  0  0  0
 22 18  1  0  0  0  0
 32 26  2  0  0  0  0
 47 40  1  0  0  0  0
 55 48  1  0  0  0  0
 77 56  2  0  0  0  0
 89 82  1  0  0  0  0
 97 90  1  0  0  0  0
119 98  2  0  0  0  0
130125  1  0  0  0  0
142138  1  0  0  0  0
 23  7  1  0  0  0  0
 36 27  1  0  0  0  0
 68 61  1  0  0  0  0
 76 69  1  0  0  0  0
110103  1  0  0  0  0
118111  1  0  0  0  0
143127  1  0  0  0  0
  1144  1  0  0  0  0
  6145  1  0  0  0  0
  9146  1  0  0  0  0
 17147  1  0  0  0  0
 18148  1  0  0  0  0
 19149  1  0  0  0  0
 20150  1  0  0  0  0
 21151  1  0  0  0  0
 22152  1  0  0  0  0
 22153  1  0  0  0  0
 23154  1  0  0  0  0
 30155  1  0  0  0  0
 30156  1  0  0  0  0
 31157  1  0  0  0  0
 31158  1  0  0  0  0
 31159  1  0  0  0  0
 33160  1  0  0  0  0
 34161  1  0  0  0  0
 41162  1  0  0  0  0
 42163  1  0  0  0  0
 45164  1  0  0  0  0
 45165  1  0  0  0  0
 45166  1  0  0  0  0
 46167  1  0  0  0  0
 47168  1  0  0  0  0
 49169  1  0  0  0  0
 50170  1  0  0  0  0
 53171  1  0  0  0  0
 53172  1  0  0  0  0
 53173  1  0  0  0  0
 54174  1  0  0  0  0
 55175  1  0  0  0  0
 62176  1  0  0  0  0
 63177  1  0  0  0  0
 66178  1  0  0  0  0
 66179  1  0  0  0  0
 66180  1  0  0  0  0
 67181  1  0  0  0  0
 68182  1  0  0  0  0
 70183  1  0  0  0  0
 71184  1  0  0  0  0
 74185  1  0  0  0  0
 74186  1  0  0  0  0
 74187  1  0  0  0  0
 75188  1  0  0  0  0
 76189  1  0  0  0  0
 83190  1  0  0  0  0
 84191  1  0  0  0  0
 87192  1  0  0  0  0
 87193  1  0  0  0  0
 87194  1  0  0  0  0
 88195  1  0  0  0  0
 89196  1  0  0  0  0
 91197  1  0  0  0  0
 92198  1  0  0  0  0
 95199  1  0  0  0  0
 95200  1  0  0  0  0
 95201  1  0  0  0  0
 96202  1  0  0  0  0
 97203  1  0  0  0  0
104204  1  0  0  0  0
105205  1  0  0  0  0
108206  1  0  0  0  0
108207  1  0  0  0  0
108208  1  0  0  0  0
109209  1  0  0  0  0
110210  1  0  0  0  0
112211  1  0  0  0  0
113212  1  0  0  0  0
116213  1  0  0  0  0
116214  1  0  0  0  0
116215  1  0  0  0  0
117216  1  0  0  0  0
118217  1  0  0  0  0
121218  1  0  0  0  0
126219  1  0  0  0  0
129220  1  0  0  0  0
137221  1  0  0  0  0
138222  1  0  0  0  0
139223  1  0  0  0  0
140224  1  0  0  0  0
141225  1  0  0  0  0
142226  1  0  0  0  0
142227  1  0  0  0  0
143228  1  0  0  0  0
M  END
