176

C          6.30400        3.22580       -8.31580
C          7.01150        2.12330       -8.72210
C          6.76010        0.73690       -8.31100
O          5.84860        0.31900       -7.61930
C          7.84110       -0.07160       -8.90170
C          8.04250       -1.44110       -8.74600
C          9.14820       -1.92130       -9.40580
C          9.99210       -1.09900      -10.16350
C          9.80500        0.25370      -10.32350
C          8.68340        0.76350       -9.66210
C          8.17120        2.13210       -9.59060
C          8.69920        3.20840      -10.25900
C          9.81890        3.14830      -11.11430
N         10.72540        3.18320      -11.81870
C          8.20650        4.52890      -10.21950
N          7.87270        5.62830      -10.25490
C         10.89830       -2.24350      -10.54430
C         10.73400       -2.80860      -11.97110
C         11.37470       -4.17560      -11.89390
C         10.57690       -4.95510      -11.17530
C          9.38330       -4.12820      -10.75480
C          9.25360       -3.21110      -11.97770
C          9.95750       -3.16050       -9.69850
C          5.18820        3.33940       -7.47470
S          4.30690        2.00920       -6.72330
C          3.23830        3.13580       -5.98790
C          2.13730        3.18970       -5.13500
C          1.82260        4.55530       -4.95340
N          2.70310        5.33610       -5.65590
C          2.65280        6.76780       -5.79840
C          1.78410        7.18530       -6.98350
C          3.56270        4.48380       -6.30360
C          4.65330        4.59060       -7.14470
C          0.75320        4.76960       -4.08490
C          0.24720        3.58090       -3.59060
S          1.07080        2.17130       -4.25110
C         -0.74360        3.33320       -2.58210
C         -1.16890        1.99730       -2.37330
N         -0.92250        0.89360       -3.08870
N         -1.51690       -0.06140       -2.43350
C         -1.51570       -1.41540       -2.90690
C         -2.71780       -1.66390       -3.81280
N         -2.14100        0.28100       -1.34280
C         -1.94430        1.60310       -1.25400
C         -2.34320        2.52520       -0.26340
C         -2.06310        3.84910       -0.56130
C         -1.28510        4.24110       -1.67110
Cl        -0.92890        5.92570       -1.77310
Cl        -2.57430        5.06270        0.55180
C         -2.83850        2.01860        0.99120
C         -2.27050        0.94480        1.65980
N         -1.09630        0.29810        1.31820
C         -1.01540       -1.07170        1.62350
C         -2.08200       -1.91220        1.30890
C         -2.07380       -3.22600        1.72500
C         -1.00000       -3.71660        2.45870
S         -1.08250       -5.38330        3.04100
C         -0.20620       -5.24760        4.62940
C          0.09660       -2.90180        2.70830
C          0.08890       -1.58560        2.29480
C         -0.02870        0.96800        0.72020
C          0.78720        0.31560       -0.20660
C          1.76740        1.00740       -0.88290
C          1.96820        2.36530       -0.64440
S          3.20980        3.17150       -1.60720
C          2.92780        4.93520       -1.28010
C          1.21000        3.00230        0.32800
C          0.22700        2.30860        1.00410
C         -2.99920        0.63330        2.83300
S         -2.86430       -0.62320        4.00380
C         -4.23220        0.05050        4.89350
C         -4.79430        1.17510        4.23960
N         -5.90620        1.87210        4.63750
C         -6.98800        1.28530        5.31630
C         -7.66800        2.01150        6.29370
C         -8.69020        1.42470        7.00630
C         -9.04330        0.09850        6.77220
S        -10.30860       -0.58790        7.79190
C        -10.01470       -2.37630        7.66970
C         -8.40580       -0.60970        5.75910
C         -7.39740       -0.01570        5.02840
C         -6.00210        3.22760        4.26530
C         -7.18450        3.73720        3.73110
C         -7.24310        5.04770        3.31460
C         -6.12580        5.87540        3.41990
S         -6.29400        7.51990        2.80990
C         -4.57760        8.09960        2.68230
C         -4.96170        5.38310        3.99530
C         -4.90410        4.06960        4.41580
C         -4.06910        1.48450        3.07170
S         -4.20470        2.70330        1.84340
C         -4.68330       -0.45230        6.11490
C         -4.43180       -1.65840        6.72590
C         -3.59830       -2.74830        6.21120
O         -2.76170       -2.70130        5.32410
C         -3.94390       -3.93950        7.00720
C         -3.47090       -5.23640        6.82370
C         -3.96290       -6.14360        7.73110
C         -4.85880       -5.78690        8.74670
C         -5.34290       -4.51260        8.93050
C         -4.85840       -3.57380        8.01520
C         -5.13690       -2.14280        7.89030
C         -5.93710       -1.40890        8.73340
C         -6.71430       -1.96000        9.77060
N         -7.40440       -2.35420       10.60020
C         -6.07880       -0.00790        8.70290
N         -6.21700        1.13150        8.77060
C         -4.91990       -7.19090        9.29590
C         -4.10440       -7.46620       10.57700
C         -3.96390       -8.97120       10.59910
C         -3.11910       -9.31180        9.63430
C         -2.67430       -8.04260        8.94410
C         -2.68800       -7.07580       10.13520
C         -3.92380       -7.58950        8.15990
H          6.65610        4.18460       -8.67700
H          7.36950       -2.03470       -8.14730
H         10.47030        0.87150      -10.90280
H         11.93950       -2.14540      -10.24290
H         11.07830       -2.15010      -12.76380
H         12.33730       -4.41130      -12.30860
H         10.74010       -5.97210      -10.86960
H          8.49720       -4.67280      -10.44000
H          8.98060       -3.76060      -12.87720
H          8.56670       -2.37860      -11.83710
H         10.37160       -3.67280       -8.83190
H          3.67390        7.13440       -5.93430
H          2.25230        7.18890       -4.87220
H          1.76060        8.26820       -7.06600
H          2.18330        6.77250       -7.90680
H          0.76780        6.82140       -6.85220
H          5.07190        5.50670       -7.52170
H          0.36250        5.73770       -3.84010
H         -0.58470       -1.56650       -3.45590
H         -1.55330       -2.06840       -2.03250
H         -2.71060       -2.69320       -4.15900
H         -3.64150       -1.48310       -3.26890
H         -2.68000       -1.00320       -4.67510
H         -2.91850       -1.51190        0.75560
H         -2.90640       -3.87690        1.50710
H         -0.56450       -4.35970        5.14240
H         -0.45430       -6.14300        5.19150
H          0.86780       -5.20690        4.47300
H          0.95290       -3.28030        3.24340
H          0.92840       -0.94180        2.51240
H          0.62600       -0.73310       -0.40960
H          2.37540        0.50910       -1.62200
H          1.88580        5.18000       -1.46240
H          3.56200        5.46570       -1.98370
H          3.22130        5.18290       -0.26400
H          1.37330        4.03990        0.57090
H         -0.35320        2.81440        1.76130
H         -7.36920        3.02450        6.51230
H         -9.20040        1.97650        7.77930
H         -8.96060       -2.58240        7.82990
H        -10.35060       -2.75560        6.70870
H        -10.59990       -2.82380        8.46670
H         -8.69440       -1.62240        5.52590
H         -6.90630       -0.57150        4.24310
H         -8.04530        3.09380        3.62820
H         -8.14970        5.44350        2.88380
H         -4.16240        8.27570        3.67040
H         -3.99000        7.37310        2.12910
H         -4.62380        9.03500        2.13340
H         -4.09460        6.01020        4.12300
H         -3.99840        3.68900        4.86490
H         -5.39340        0.18850        6.62020
H         -2.79070       -5.47080        6.02080
H         -6.03980       -4.25780        9.71140
H         -5.90520       -7.65300        9.31170
H         -4.49640       -6.99750       11.47550
H         -4.51790       -9.61590       11.25590
H         -2.82660      -10.29770        9.32370
H         -1.76230       -8.10040        8.35550
H         -1.93870       -7.33190       10.88240
H         -2.58260       -6.02850        9.85800
H         -4.24630       -8.31520        7.41540
