
  xtb     02132214063D
 energy: -297.750959588060 gnorm: 0.000273332449 xtb: 6.4.1 (unknown)
178199  0     0  0            999 V2000
   -6.2280    6.7450   -5.1036 C   0  0  0  0  0  0  0  0  0  0  0  0
   -7.3071    6.1659   -5.7186 C   0  0  0  0  0  0  0  0  0  0  0  0
   -7.9859    4.9031   -5.3539 C   0  0  0  0  0  0  0  0  0  0  0  0
   -7.9839    4.3115   -4.2919 O   0  0  0  0  0  0  0  0  0  0  0  0
   -8.6736    4.4552   -6.5813 C   0  0  0  0  0  0  0  0  0  0  0  0
   -9.3267    3.2402   -6.7726 C   0  0  0  0  0  0  0  0  0  0  0  0
   -9.8426    3.0756   -8.0354 C   0  0  0  0  0  0  0  0  0  0  0  0
   -9.7198    4.0482   -9.0365 C   0  0  0  0  0  0  0  0  0  0  0  0
   -9.0829    5.2538   -8.8592 C   0  0  0  0  0  0  0  0  0  0  0  0
   -8.5509    5.4398   -7.5806 C   0  0  0  0  0  0  0  0  0  0  0  0
   -7.7917    6.5578   -7.0289 C   0  0  0  0  0  0  0  0  0  0  0  0
   -7.6358    7.7879   -7.6129 C   0  0  0  0  0  0  0  0  0  0  0  0
   -6.9954    8.8878   -7.0035 C   0  0  0  0  0  0  0  0  0  0  0  0
   -6.5150    9.8329   -6.5619 N   0  0  0  0  0  0  0  0  0  0  0  0
   -8.1543    8.1372   -8.8761 C   0  0  0  0  0  0  0  0  0  0  0  0
   -8.5482    8.4815   -9.8984 N   0  0  0  0  0  0  0  0  0  0  0  0
  -10.4581    3.2110  -10.0510 C   0  0  0  0  0  0  0  0  0  0  0  0
  -11.9311    3.5774  -10.3570 C   0  0  0  0  0  0  0  0  0  0  0  0
  -12.4696    4.2549   -9.1214 C   0  0  0  0  0  0  0  0  0  0  0  0
  -12.5873    3.3345   -8.1737 C   0  0  0  0  0  0  0  0  0  0  0  0
  -12.1296    2.0180   -8.7512 C   0  0  0  0  0  0  0  0  0  0  0  0
  -12.5792    2.1912  -10.2107 C   0  0  0  0  0  0  0  0  0  0  0  0
  -10.5959    2.1279   -8.9350 C   0  0  0  0  0  0  0  0  0  0  0  0
   -5.6216    6.4185   -3.8777 C   0  0  0  0  0  0  0  0  0  0  0  0
   -3.9206    6.8918   -3.6853 S   0  0  0  0  0  0  0  0  0  0  0  0
   -3.8516    6.0755   -2.1760 C   0  0  0  0  0  0  0  0  0  0  0  0
   -2.9609    5.6864   -1.1809 C   0  0  0  0  0  0  0  0  0  0  0  0
   -3.7029    4.9334   -0.2403 C   0  0  0  0  0  0  0  0  0  0  0  0
   -5.0092    4.8564   -0.6325 N   0  0  0  0  0  0  0  0  0  0  0  0
   -6.0849    4.2072    0.0713 C   0  0  0  0  0  0  0  0  0  0  0  0
   -6.7755    5.1641    1.0406 C   0  0  0  0  0  0  0  0  0  0  0  0
   -5.1166    5.5370   -1.8180 C   0  0  0  0  0  0  0  0  0  0  0  0
   -6.1039    5.7339   -2.7728 C   0  0  0  0  0  0  0  0  0  0  0  0
   -2.9173    4.3793    0.7703 C   0  0  0  0  0  0  0  0  0  0  0  0
   -1.5791    4.6823    0.6050 C   0  0  0  0  0  0  0  0  0  0  0  0
   -1.2805    5.7237   -0.7845 S   0  0  0  0  0  0  0  0  0  0  0  0
   -0.5096    4.0524    1.2907 C   0  0  0  0  0  0  0  0  0  0  0  0
    0.8610    4.2417    1.1511 C   0  0  0  0  0  0  0  0  0  0  0  0
    1.4608    5.3226    0.5278 N   0  0  0  0  0  0  0  0  0  0  0  0
    1.0602    6.6318    0.8159 C   0  0  0  0  0  0  0  0  0  0  0  0
    0.4763    6.9504    2.0384 C   0  0  0  0  0  0  0  0  0  0  0  0
    0.0676    8.2410    2.3137 C   0  0  0  0  0  0  0  0  0  0  0  0
    0.2440    9.2435    1.3706 C   0  0  0  0  0  0  0  0  0  0  0  0
   -0.2294   10.9273    1.6048 S   0  0  0  0  0  0  0  0  0  0  0  0
   -0.9591   10.9529    3.2672 C   0  0  0  0  0  0  0  0  0  0  0  0
    0.8334    8.9307    0.1462 C   0  0  0  0  0  0  0  0  0  0  0  0
    1.2321    7.6441   -0.1315 C   0  0  0  0  0  0  0  0  0  0  0  0
    2.5971    5.0724   -0.2561 C   0  0  0  0  0  0  0  0  0  0  0  0
    2.6058    3.9836   -1.1233 C   0  0  0  0  0  0  0  0  0  0  0  0
    3.7202    3.6972   -1.8872 C   0  0  0  0  0  0  0  0  0  0  0  0
    4.8442    4.5068   -1.8029 C   0  0  0  0  0  0  0  0  0  0  0  0
    6.3273    4.2386   -2.7228 S   0  0  0  0  0  0  0  0  0  0  0  0
    5.8546    2.9872   -3.9515 C   0  0  0  0  0  0  0  0  0  0  0  0
    4.8388    5.5990   -0.9366 C   0  0  0  0  0  0  0  0  0  0  0  0
    3.7319    5.8785   -0.1681 C   0  0  0  0  0  0  0  0  0  0  0  0
    1.5821    3.1685    1.7325 C   0  0  0  0  0  0  0  0  0  0  0  0
    3.2460    2.6910    1.7336 S   0  0  0  0  0  0  0  0  0  0  0  0
    2.8405    1.2016    2.5793 C   0  0  0  0  0  0  0  0  0  0  0  0
    1.4808    1.0840    2.8275 C   0  0  0  0  0  0  0  0  0  0  0  0
    0.8319   -0.0283    3.3449 N   0  0  0  0  0  0  0  0  0  0  0  0
    1.2066   -1.3213    2.9580 C   0  0  0  0  0  0  0  0  0  0  0  0
    1.1486   -2.3771    3.8660 C   0  0  0  0  0  0  0  0  0  0  0  0
    1.6198   -3.6297    3.5270 C   0  0  0  0  0  0  0  0  0  0  0  0
    2.1604   -3.8520    2.2673 C   0  0  0  0  0  0  0  0  0  0  0  0
    2.8751   -5.3822    1.7498 S   0  0  0  0  0  0  0  0  0  0  0  0
    2.4261   -6.5441    3.0673 C   0  0  0  0  0  0  0  0  0  0  0  0
    2.1758   -2.8131    1.3396 C   0  0  0  0  0  0  0  0  0  0  0  0
    1.6981   -1.5659    1.6748 C   0  0  0  0  0  0  0  0  0  0  0  0
   -0.2707    0.1843    4.1811 C   0  0  0  0  0  0  0  0  0  0  0  0
   -0.2605    1.2354    5.0941 C   0  0  0  0  0  0  0  0  0  0  0  0
   -1.3519    1.4797    5.9048 C   0  0  0  0  0  0  0  0  0  0  0  0
   -2.4719    0.6648    5.8236 C   0  0  0  0  0  0  0  0  0  0  0  0
   -3.9289    0.8782    6.7985 S   0  0  0  0  0  0  0  0  0  0  0  0
   -3.4956    2.2150    7.9480 C   0  0  0  0  0  0  0  0  0  0  0  0
   -2.4826   -0.3950    4.9178 C   0  0  0  0  0  0  0  0  0  0  0  0
   -1.3996   -0.6320    4.1028 C   0  0  0  0  0  0  0  0  0  0  0  0
    0.7861    2.2223    2.3543 C   0  0  0  0  0  0  0  0  0  0  0  0
   -0.8891    2.6339    2.2682 S   0  0  0  0  0  0  0  0  0  0  0  0
    3.8250    0.1771    2.7430 C   0  0  0  0  0  0  0  0  0  0  0  0
    3.8666   -0.7996    4.2038 S   0  0  0  0  0  0  0  0  0  0  0  0
    4.8846   -1.9430    3.4080 C   0  0  0  0  0  0  0  0  0  0  0  0
    5.3584   -3.2426    3.5408 C   0  0  0  0  0  0  0  0  0  0  0  0
    6.0180   -3.5585    2.3210 C   0  0  0  0  0  0  0  0  0  0  0  0
    5.9583   -2.4808    1.4757 N   0  0  0  0  0  0  0  0  0  0  0  0
    6.5304   -2.4119    0.1562 C   0  0  0  0  0  0  0  0  0  0  0  0
    7.9782   -1.9283    0.1980 C   0  0  0  0  0  0  0  0  0  0  0  0
    5.2609   -1.4991    2.1190 C   0  0  0  0  0  0  0  0  0  0  0  0
    4.6741   -0.2799    1.7621 C   0  0  0  0  0  0  0  0  0  0  0  0
    6.4356   -4.8761    2.2310 C   0  0  0  0  0  0  0  0  0  0  0  0
    6.1037   -5.6017    3.3672 C   0  0  0  0  0  0  0  0  0  0  0  0
    5.2962   -4.5946    4.5918 S   0  0  0  0  0  0  0  0  0  0  0  0
    6.1673   -6.9730    3.6482 C   0  0  0  0  0  0  0  0  0  0  0  0
    6.6541   -8.0274    2.9149 C   0  0  0  0  0  0  0  0  0  0  0  0
    7.5237   -8.0075    1.7214 C   0  0  0  0  0  0  0  0  0  0  0  0
    7.8946   -7.0572    1.0579 O   0  0  0  0  0  0  0  0  0  0  0  0
    7.9130   -9.4109    1.4815 C   0  0  0  0  0  0  0  0  0  0  0  0
    8.7546   -9.8788    0.4755 C   0  0  0  0  0  0  0  0  0  0  0  0
    8.9412  -11.2399    0.4903 C   0  0  0  0  0  0  0  0  0  0  0  0
    8.3383  -12.0754    1.4396 C   0  0  0  0  0  0  0  0  0  0  0  0
    7.5030  -11.6267    2.4350 C   0  0  0  0  0  0  0  0  0  0  0  0
    7.2965  -10.2445    2.4339 C   0  0  0  0  0  0  0  0  0  0  0  0
    6.4568   -9.4134    3.2924 C   0  0  0  0  0  0  0  0  0  0  0  0
    5.5478   -9.8903    4.2050 C   0  0  0  0  0  0  0  0  0  0  0  0
    5.3891  -11.2510    4.5375 C   0  0  0  0  0  0  0  0  0  0  0  0
    5.2076  -12.3362    4.8673 N   0  0  0  0  0  0  0  0  0  0  0  0
    4.5886   -9.1143    4.8870 C   0  0  0  0  0  0  0  0  0  0  0  0
    3.7404   -8.5679    5.4382 N   0  0  0  0  0  0  0  0  0  0  0  0
    8.9698  -13.3183    0.8643 C   0  0  0  0  0  0  0  0  0  0  0  0
   10.1858  -13.9231    1.6084 C   0  0  0  0  0  0  0  0  0  0  0  0
   10.8456  -12.7855    2.3472 C   0  0  0  0  0  0  0  0  0  0  0  0
   11.4154  -11.9947    1.4477 C   0  0  0  0  0  0  0  0  0  0  0  0
   11.1510  -12.5834    0.0840 C   0  0  0  0  0  0  0  0  0  0  0  0
   11.1592  -14.0812    0.4293 C   0  0  0  0  0  0  0  0  0  0  0  0
    9.6403  -12.3875   -0.1948 C   0  0  0  0  0  0  0  0  0  0  0  0
   -5.6916    7.4965   -5.6725 H   0  0  0  0  0  0  0  0  0  0  0  0
   -9.3928    2.5148   -5.9767 H   0  0  0  0  0  0  0  0  0  0  0  0
   -8.9852    5.9890   -9.6407 H   0  0  0  0  0  0  0  0  0  0  0  0
   -9.9007    2.9496  -10.9484 H   0  0  0  0  0  0  0  0  0  0  0  0
  -12.0793    4.1036  -11.2961 H   0  0  0  0  0  0  0  0  0  0  0  0
  -12.6483    5.3116   -9.0485 H   0  0  0  0  0  0  0  0  0  0  0  0
  -12.8843    3.4685   -7.1500 H   0  0  0  0  0  0  0  0  0  0  0  0
  -12.4589    1.1235   -8.2287 H   0  0  0  0  0  0  0  0  0  0  0  0
  -13.6625    2.2190  -10.3175 H   0  0  0  0  0  0  0  0  0  0  0  0
  -12.1621    1.4440  -10.8846 H   0  0  0  0  0  0  0  0  0  0  0  0
  -10.1282    1.1597   -9.1046 H   0  0  0  0  0  0  0  0  0  0  0  0
   -5.6721    3.3532    0.6150 H   0  0  0  0  0  0  0  0  0  0  0  0
   -6.8003    3.8395   -0.6687 H   0  0  0  0  0  0  0  0  0  0  0  0
   -7.5804    4.6514    1.5593 H   0  0  0  0  0  0  0  0  0  0  0  0
   -7.1911    6.0118    0.5010 H   0  0  0  0  0  0  0  0  0  0  0  0
   -6.0650    5.5350    1.7760 H   0  0  0  0  0  0  0  0  0  0  0  0
   -7.1190    5.3954   -2.7001 H   0  0  0  0  0  0  0  0  0  0  0  0
   -3.2733    3.7556    1.5704 H   0  0  0  0  0  0  0  0  0  0  0  0
    0.3424    6.1831    2.7867 H   0  0  0  0  0  0  0  0  0  0  0  0
   -0.3798    8.4483    3.2724 H   0  0  0  0  0  0  0  0  0  0  0  0
   -0.2151   10.6688    4.0057 H   0  0  0  0  0  0  0  0  0  0  0  0
   -1.2680   11.9803    3.4332 H   0  0  0  0  0  0  0  0  0  0  0  0
   -1.8247   10.2979    3.3038 H   0  0  0  0  0  0  0  0  0  0  0  0
    0.9627    9.7109   -0.5877 H   0  0  0  0  0  0  0  0  0  0  0  0
    1.6689    7.4083   -1.0895 H   0  0  0  0  0  0  0  0  0  0  0  0
    1.7275    3.3593   -1.2004 H   0  0  0  0  0  0  0  0  0  0  0  0
    3.6948    2.8439   -2.5457 H   0  0  0  0  0  0  0  0  0  0  0  0
    4.9851    3.3281   -4.5055 H   0  0  0  0  0  0  0  0  0  0  0  0
    6.7061    2.8968   -4.6187 H   0  0  0  0  0  0  0  0  0  0  0  0
    5.6660    2.0333   -3.4672 H   0  0  0  0  0  0  0  0  0  0  0  0
    5.7193    6.2192   -0.8700 H   0  0  0  0  0  0  0  0  0  0  0  0
    3.7394    6.7197    0.5081 H   0  0  0  0  0  0  0  0  0  0  0  0
    0.7629   -2.2027    4.8590 H   0  0  0  0  0  0  0  0  0  0  0  0
    1.5866   -4.4152    4.2638 H   0  0  0  0  0  0  0  0  0  0  0  0
    1.3481   -6.5518    3.1957 H   0  0  0  0  0  0  0  0  0  0  0  0
    2.9333   -6.2909    3.9933 H   0  0  0  0  0  0  0  0  0  0  0  0
    2.7627   -7.5183    2.7267 H   0  0  0  0  0  0  0  0  0  0  0  0
    2.5714   -2.9982    0.3525 H   0  0  0  0  0  0  0  0  0  0  0  0
    1.7114   -0.7695    0.9455 H   0  0  0  0  0  0  0  0  0  0  0  0
    0.6141    1.8645    5.1730 H   0  0  0  0  0  0  0  0  0  0  0  0
   -1.3097    2.3048    6.5972 H   0  0  0  0  0  0  0  0  0  0  0  0
   -2.6225    1.9336    8.5293 H   0  0  0  0  0  0  0  0  0  0  0  0
   -3.3277    3.1390    7.4024 H   0  0  0  0  0  0  0  0  0  0  0  0
   -4.3543    2.3259    8.6029 H   0  0  0  0  0  0  0  0  0  0  0  0
   -3.3581   -1.0230    4.8572 H   0  0  0  0  0  0  0  0  0  0  0  0
   -1.4215   -1.4463    3.3945 H   0  0  0  0  0  0  0  0  0  0  0  0
    6.4809   -3.4099   -0.2866 H   0  0  0  0  0  0  0  0  0  0  0  0
    5.9212   -1.7307   -0.4437 H   0  0  0  0  0  0  0  0  0  0  0  0
    8.3836   -1.8806   -0.8087 H   0  0  0  0  0  0  0  0  0  0  0  0
    8.0347   -0.9387    0.6459 H   0  0  0  0  0  0  0  0  0  0  0  0
    8.5849   -2.6126    0.7859 H   0  0  0  0  0  0  0  0  0  0  0  0
    4.7786    0.2146    0.8134 H   0  0  0  0  0  0  0  0  0  0  0  0
    6.9370   -5.3261    1.3947 H   0  0  0  0  0  0  0  0  0  0  0  0
    5.7169   -7.2310    4.6000 H   0  0  0  0  0  0  0  0  0  0  0  0
    9.1970   -9.1997   -0.2366 H   0  0  0  0  0  0  0  0  0  0  0  0
    7.0477  -12.2825    3.1581 H   0  0  0  0  0  0  0  0  0  0  0  0
    8.2801  -14.0813    0.5088 H   0  0  0  0  0  0  0  0  0  0  0  0
    9.9605  -14.8099    2.1947 H   0  0  0  0  0  0  0  0  0  0  0  0
   10.7825  -12.6457    3.4105 H   0  0  0  0  0  0  0  0  0  0  0  0
   11.9232  -11.0619    1.6093 H   0  0  0  0  0  0  0  0  0  0  0  0
   11.8053  -12.2509   -0.7178 H   0  0  0  0  0  0  0  0  0  0  0  0
   10.7735  -14.7127   -0.3699 H   0  0  0  0  0  0  0  0  0  0  0  0
   12.1410  -14.4370    0.7381 H   0  0  0  0  0  0  0  0  0  0  0  0
    9.3878  -12.5435   -1.2420 H   0  0  0  0  0  0  0  0  0  0  0  0
  1  2  2  0  0  0  0
  2  3  1  0  0  0  0
  3  4  2  0  0  0  0
  3  5  1  0  0  0  0
  5  6  2  0  0  0  0
  6  7  1  0  0  0  0
  7  8  2  0  0  0  0
  8  9  1  0  0  0  0
  9 10  2  0  0  0  0
 10 11  1  0  0  0  0
 11 12  2  0  0  0  0
 12 13  1  0  0  0  0
 13 14  3  0  0  0  0
 12 15  1  0  0  0  0
 15 16  3  0  0  0  0
  8 17  1  0  0  0  0
 17 18  1  0  0  0  0
 18 19  1  0  0  0  0
 19 20  2  0  0  0  0
 20 21  1  0  0  0  0
 21 22  1  0  0  0  0
 21 23  1  0  0  0  0
  1 24  1  0  0  0  0
 24 25  1  0  0  0  0
 25 26  1  0  0  0  0
 26 27  1  0  0  0  0
 27 28  2  0  0  0  0
 28 29  1  0  0  0  0
 29 30  1  0  0  0  0
 30 31  1  0  0  0  0
 29 32  1  0  0  0  0
 32 33  1  0  0  0  0
 28 34  1  0  0  0  0
 34 35  2  0  0  0  0
 35 36  1  0  0  0  0
 35 37  1  0  0  0  0
 37 38  2  0  0  0  0
 38 39  1  0  0  0  0
 39 40  1  0  0  0  0
 40 41  2  0  0  0  0
 41 42  1  0  0  0  0
 42 43  2  0  0  0  0
 43 44  1  0  0  0  0
 44 45  1  0  0  0  0
 43 46  1  0  0  0  0
 46 47  2  0  0  0  0
 39 48  1  0  0  0  0
 48 49  2  0  0  0  0
 49 50  1  0  0  0  0
 50 51  2  0  0  0  0
 51 52  1  0  0  0  0
 52 53  1  0  0  0  0
 51 54  1  0  0  0  0
 54 55  2  0  0  0  0
 38 56  1  0  0  0  0
 56 57  1  0  0  0  0
 57 58  1  0  0  0  0
 58 59  2  0  0  0  0
 59 60  1  0  0  0  0
 60 61  1  0  0  0  0
 61 62  2  0  0  0  0
 62 63  1  0  0  0  0
 63 64  2  0  0  0  0
 64 65  1  0  0  0  0
 65 66  1  0  0  0  0
 64 67  1  0  0  0  0
 67 68  2  0  0  0  0
 60 69  1  0  0  0  0
 69 70  2  0  0  0  0
 70 71  1  0  0  0  0
 71 72  2  0  0  0  0
 72 73  1  0  0  0  0
 73 74  1  0  0  0  0
 72 75  1  0  0  0  0
 75 76  2  0  0  0  0
 59 77  1  0  0  0  0
 77 78  1  0  0  0  0
 58 79  1  0  0  0  0
 79 80  1  0  0  0  0
 80 81  1  0  0  0  0
 81 82  1  0  0  0  0
 82 83  2  0  0  0  0
 83 84  1  0  0  0  0
 84 85  1  0  0  0  0
 85 86  1  0  0  0  0
 84 87  1  0  0  0  0
 87 88  1  0  0  0  0
 83 89  1  0  0  0  0
 89 90  2  0  0  0  0
 90 91  1  0  0  0  0
 90 92  1  0  0  0  0
 92 93  2  0  0  0  0
 93 94  1  0  0  0  0
 94 95  2  0  0  0  0
 94 96  1  0  0  0  0
 96 97  2  0  0  0  0
 97 98  1  0  0  0  0
 98 99  2  0  0  0  0
 99100  1  0  0  0  0
100101  2  0  0  0  0
101102  1  0  0  0  0
102103  2  0  0  0  0
103104  1  0  0  0  0
104105  3  0  0  0  0
103106  1  0  0  0  0
106107  3  0  0  0  0
 99108  1  0  0  0  0
108109  1  0  0  0  0
109110  1  0  0  0  0
110111  2  0  0  0  0
111112  1  0  0  0  0
112113  1  0  0  0  0
112114  1  0  0  0  0
 11  2  1  0  0  0  0
 23 17  1  0  0  0  0
 33 24  2  0  0  0  0
 78 37  1  0  0  0  0
 88 79  2  0  0  0  0
102 93  1  0  0  0  0
114108  1  0  0  0  0
 10  5  1  0  0  0  0
 22 18  1  0  0  0  0
 32 26  2  0  0  0  0
 47 40  1  0  0  0  0
 55 48  1  0  0  0  0
 77 56  2  0  0  0  0
 87 81  2  0  0  0  0
101 96  1  0  0  0  0
113109  1  0  0  0  0
 23  7  1  0  0  0  0
 36 27  1  0  0  0  0
 68 61  1  0  0  0  0
 76 69  1  0  0  0  0
 91 82  1  0  0  0  0
114 98  1  0  0  0  0
  1115  1  0  0  0  0
  6116  1  0  0  0  0
  9117  1  0  0  0  0
 17118  1  0  0  0  0
 18119  1  0  0  0  0
 19120  1  0  0  0  0
 20121  1  0  0  0  0
 21122  1  0  0  0  0
 22123  1  0  0  0  0
 22124  1  0  0  0  0
 23125  1  0  0  0  0
 30126  1  0  0  0  0
 30127  1  0  0  0  0
 31128  1  0  0  0  0
 31129  1  0  0  0  0
 31130  1  0  0  0  0
 33131  1  0  0  0  0
 34132  1  0  0  0  0
 41133  1  0  0  0  0
 42134  1  0  0  0  0
 45135  1  0  0  0  0
 45136  1  0  0  0  0
 45137  1  0  0  0  0
 46138  1  0  0  0  0
 47139  1  0  0  0  0
 49140  1  0  0  0  0
 50141  1  0  0  0  0
 53142  1  0  0  0  0
 53143  1  0  0  0  0
 53144  1  0  0  0  0
 54145  1  0  0  0  0
 55146  1  0  0  0  0
 62147  1  0  0  0  0
 63148  1  0  0  0  0
 66149  1  0  0  0  0
 66150  1  0  0  0  0
 66151  1  0  0  0  0
 67152  1  0  0  0  0
 68153  1  0  0  0  0
 70154  1  0  0  0  0
 71155  1  0  0  0  0
 74156  1  0  0  0  0
 74157  1  0  0  0  0
 74158  1  0  0  0  0
 75159  1  0  0  0  0
 76160  1  0  0  0  0
 85161  1  0  0  0  0
 85162  1  0  0  0  0
 86163  1  0  0  0  0
 86164  1  0  0  0  0
 86165  1  0  0  0  0
 88166  1  0  0  0  0
 89167  1  0  0  0  0
 92168  1  0  0  0  0
 97169  1  0  0  0  0
100170  1  0  0  0  0
108171  1  0  0  0  0
109172  1  0  0  0  0
110173  1  0  0  0  0
111174  1  0  0  0  0
112175  1  0  0  0  0
113176  1  0  0  0  0
113177  1  0  0  0  0
114178  1  0  0  0  0
M  END
