
  xtb     02092212433D
 energy: -376.076062475130 gnorm: 0.000438687067 xtb: 6.4.1 (unknown)
216239  0     0  0            999 V2000
   -8.3837   -5.4440   -0.6769 C   0  0  0  0  0  0  0  0  0  0  0  0
   -8.7968   -6.7346   -0.5103 C   0  0  0  0  0  0  0  0  0  0  0  0
   -8.0162   -7.9366   -0.1209 C   0  0  0  0  0  0  0  0  0  0  0  0
   -6.8945   -8.0091    0.3416 O   0  0  0  0  0  0  0  0  0  0  0  0
   -8.8866   -9.0910   -0.3997 C   0  0  0  0  0  0  0  0  0  0  0  0
   -8.5426  -10.4360   -0.2700 C   0  0  0  0  0  0  0  0  0  0  0  0
   -9.5430  -11.3052   -0.6300 C   0  0  0  0  0  0  0  0  0  0  0  0
  -10.7961  -10.8691   -1.0837 C   0  0  0  0  0  0  0  0  0  0  0  0
  -11.1523   -9.5473   -1.2027 C   0  0  0  0  0  0  0  0  0  0  0  0
  -10.1470   -8.6442   -0.8400 C   0  0  0  0  0  0  0  0  0  0  0  0
  -10.1479   -7.1850   -0.8296 C   0  0  0  0  0  0  0  0  0  0  0  0
  -11.2526   -6.3998   -1.0246 C   0  0  0  0  0  0  0  0  0  0  0  0
  -11.3055   -4.9917   -0.9275 C   0  0  0  0  0  0  0  0  0  0  0  0
  -11.4558   -3.8556   -0.8537 N   0  0  0  0  0  0  0  0  0  0  0  0
  -12.5419   -6.8982   -1.3126 C   0  0  0  0  0  0  0  0  0  0  0  0
  -13.6156   -7.2261   -1.5524 N   0  0  0  0  0  0  0  0  0  0  0  0
  -11.2999  -12.2755   -1.2899 C   0  0  0  0  0  0  0  0  0  0  0  0
  -11.3305  -12.7892   -2.7453 C   0  0  0  0  0  0  0  0  0  0  0  0
  -11.3962  -14.2921   -2.5966 C   0  0  0  0  0  0  0  0  0  0  0  0
  -10.2126  -14.7067   -2.1632 C   0  0  0  0  0  0  0  0  0  0  0  0
   -9.3267  -13.4910   -2.0123 C   0  0  0  0  0  0  0  0  0  0  0  0
   -9.8629  -12.6298   -3.1632 C   0  0  0  0  0  0  0  0  0  0  0  0
   -9.9050  -12.7618   -0.7807 C   0  0  0  0  0  0  0  0  0  0  0  0
   -7.1189   -4.8391   -0.4873 C   0  0  0  0  0  0  0  0  0  0  0  0
   -5.9389   -5.3333    0.0055 C   0  0  0  0  0  0  0  0  0  0  0  0
   -4.8804   -4.4050   -0.0047 C   0  0  0  0  0  0  0  0  0  0  0  0
   -3.5532   -4.6310    0.4165 C   0  0  0  0  0  0  0  0  0  0  0  0
   -3.2001   -5.8992    1.0595 C   0  0  0  0  0  0  0  0  0  0  0  0
   -3.9997   -6.4021    2.0798 C   0  0  0  0  0  0  0  0  0  0  0  0
   -3.7172   -7.6222    2.6582 C   0  0  0  0  0  0  0  0  0  0  0  0
   -4.5204   -8.0153    3.6756 F   0  0  0  0  0  0  0  0  0  0  0  0
   -2.6569   -8.4288    2.2346 C   0  0  0  0  0  0  0  0  0  0  0  0
   -2.2990   -9.6490    2.6852 O   0  0  0  0  0  0  0  0  0  0  0  0
   -3.2559  -10.4936    3.3109 C   0  0  0  0  0  0  0  0  0  0  0  0
   -4.3976  -10.8734    2.3754 C   0  0  0  0  0  0  0  0  0  0  0  0
   -1.8483   -7.8654    1.2335 C   0  0  0  0  0  0  0  0  0  0  0  0
   -0.7945   -8.5834    0.8036 F   0  0  0  0  0  0  0  0  0  0  0  0
   -2.0886   -6.6369    0.6614 C   0  0  0  0  0  0  0  0  0  0  0  0
   -2.6559   -3.5991    0.2139 C   0  0  0  0  0  0  0  0  0  0  0  0
   -3.0456   -2.3566   -0.3480 C   0  0  0  0  0  0  0  0  0  0  0  0
   -4.3760   -2.1093   -0.7247 C   0  0  0  0  0  0  0  0  0  0  0  0
   -4.7503   -0.7656   -1.1861 C   0  0  0  0  0  0  0  0  0  0  0  0
   -4.0237   -0.1291   -2.1843 C   0  0  0  0  0  0  0  0  0  0  0  0
   -4.2664    1.1916   -2.5104 C   0  0  0  0  0  0  0  0  0  0  0  0
   -5.2453    1.9552   -1.8707 C   0  0  0  0  0  0  0  0  0  0  0  0
   -5.5468    3.2598   -2.0294 O   0  0  0  0  0  0  0  0  0  0  0  0
   -5.1368    3.9734   -3.1895 C   0  0  0  0  0  0  0  0  0  0  0  0
   -5.8496    3.4947   -4.4470 C   0  0  0  0  0  0  0  0  0  0  0  0
   -5.9854    1.2643   -0.8959 C   0  0  0  0  0  0  0  0  0  0  0  0
   -5.7663   -0.0507   -0.5560 C   0  0  0  0  0  0  0  0  0  0  0  0
   -6.9436    1.9513   -0.2452 F   0  0  0  0  0  0  0  0  0  0  0  0
   -3.4888    1.7256   -3.4826 F   0  0  0  0  0  0  0  0  0  0  0  0
   -5.2720   -3.1501   -0.5453 C   0  0  0  0  0  0  0  0  0  0  0  0
   -6.9558   -3.1470   -0.9706 S   0  0  0  0  0  0  0  0  0  0  0  0
   -1.9845   -1.4246   -0.3306 C   0  0  0  0  0  0  0  0  0  0  0  0
   -0.8372   -1.8957    0.2324 C   0  0  0  0  0  0  0  0  0  0  0  0
   -0.9777   -3.5741    0.7083 S   0  0  0  0  0  0  0  0  0  0  0  0
    0.2767   -1.0438    0.5238 C   0  0  0  0  0  0  0  0  0  0  0  0
    0.1222    0.2534    0.9915 C   0  0  0  0  0  0  0  0  0  0  0  0
   -1.0831    0.7880    1.4442 N   0  0  0  0  0  0  0  0  0  0  0  0
   -1.9316   -0.0637    2.1695 C   0  0  0  0  0  0  0  0  0  0  0  0
   -1.3792   -0.9569    3.0851 C   0  0  0  0  0  0  0  0  0  0  0  0
   -2.1495   -1.9363    3.6788 C   0  0  0  0  0  0  0  0  0  0  0  0
   -3.5011   -2.0320    3.3771 C   0  0  0  0  0  0  0  0  0  0  0  0
   -4.5608   -3.3164    3.9607 S   0  0  0  0  0  0  0  0  0  0  0  0
   -3.4395   -4.4344    4.8482 C   0  0  0  0  0  0  0  0  0  0  0  0
   -4.0783   -1.0797    2.5417 C   0  0  0  0  0  0  0  0  0  0  0  0
   -3.3079   -0.1089    1.9419 C   0  0  0  0  0  0  0  0  0  0  0  0
   -1.5472    1.9943    0.9076 C   0  0  0  0  0  0  0  0  0  0  0  0
   -1.1291    2.4289   -0.3508 C   0  0  0  0  0  0  0  0  0  0  0  0
   -1.6317    3.5943   -0.8880 C   0  0  0  0  0  0  0  0  0  0  0  0
   -2.5715    4.3445   -0.1887 C   0  0  0  0  0  0  0  0  0  0  0  0
   -3.1855    5.8129   -0.9600 S   0  0  0  0  0  0  0  0  0  0  0  0
   -4.7776    6.0812   -0.1292 C   0  0  0  0  0  0  0  0  0  0  0  0
   -2.9686    3.9336    1.0766 C   0  0  0  0  0  0  0  0  0  0  0  0
   -2.4545    2.7749    1.6211 C   0  0  0  0  0  0  0  0  0  0  0  0
    1.3619    0.9316    1.0128 C   0  0  0  0  0  0  0  0  0  0  0  0
    1.8270    2.5564    1.3350 S   0  0  0  0  0  0  0  0  0  0  0  0
    3.4888    2.1723    0.9259 C   0  0  0  0  0  0  0  0  0  0  0  0
    3.6720    0.8393    0.5744 C   0  0  0  0  0  0  0  0  0  0  0  0
    4.8466    0.2434    0.1615 N   0  0  0  0  0  0  0  0  0  0  0  0
    5.8900    0.9579   -0.4461 C   0  0  0  0  0  0  0  0  0  0  0  0
    7.2114    0.7091   -0.0656 C   0  0  0  0  0  0  0  0  0  0  0  0
    8.2386    1.4699   -0.5752 C   0  0  0  0  0  0  0  0  0  0  0  0
    7.9730    2.5055   -1.4712 C   0  0  0  0  0  0  0  0  0  0  0  0
    9.3680    3.4540   -1.9880 S   0  0  0  0  0  0  0  0  0  0  0  0
    8.6712    4.8177   -2.9584 C   0  0  0  0  0  0  0  0  0  0  0  0
    6.6670    2.7216   -1.8937 C   0  0  0  0  0  0  0  0  0  0  0  0
    5.6366    1.9455   -1.3953 C   0  0  0  0  0  0  0  0  0  0  0  0
    5.0374   -1.1207    0.4454 C   0  0  0  0  0  0  0  0  0  0  0  0
    4.6495   -1.6527    1.6754 C   0  0  0  0  0  0  0  0  0  0  0  0
    4.8245   -2.9925    1.9364 C   0  0  0  0  0  0  0  0  0  0  0  0
    5.4008   -3.8301    0.9827 C   0  0  0  0  0  0  0  0  0  0  0  0
    5.5675   -5.5259    1.4342 S   0  0  0  0  0  0  0  0  0  0  0  0
    6.2759   -6.3085   -0.0421 C   0  0  0  0  0  0  0  0  0  0  0  0
    5.8091   -3.2986   -0.2340 C   0  0  0  0  0  0  0  0  0  0  0  0
    5.6250   -1.9559   -0.4990 C   0  0  0  0  0  0  0  0  0  0  0  0
    2.4349    0.1464    0.6185 C   0  0  0  0  0  0  0  0  0  0  0  0
    1.9458   -1.4683    0.2255 S   0  0  0  0  0  0  0  0  0  0  0  0
    4.4766    3.2062    0.8996 C   0  0  0  0  0  0  0  0  0  0  0  0
    6.0000    3.0024    1.7070 S   0  0  0  0  0  0  0  0  0  0  0  0
    6.6345    4.4594    1.0045 C   0  0  0  0  0  0  0  0  0  0  0  0
    5.6715    5.1111    0.2498 C   0  0  0  0  0  0  0  0  0  0  0  0
    5.9029    6.2741   -0.6200 C   0  0  0  0  0  0  0  0  0  0  0  0
    7.0104    6.6566   -0.9732 O   0  0  0  0  0  0  0  0  0  0  0  0
    4.6690    6.9025   -1.0757 C   0  0  0  0  0  0  0  0  0  0  0  0
    4.5688    8.1873   -1.5429 C   0  0  0  0  0  0  0  0  0  0  0  0
    5.6433    9.2018   -1.6919 C   0  0  0  0  0  0  0  0  0  0  0  0
    6.2917    9.1124   -3.0761 C   0  0  0  0  0  0  0  0  0  0  0  0
    2.9351    8.5569   -1.9810 S   0  0  0  0  0  0  0  0  0  0  0  0
    2.3854    6.9615   -1.5779 C   0  0  0  0  0  0  0  0  0  0  0  0
    0.9670    6.5631   -1.7599 C   0  0  0  0  0  0  0  0  0  0  0  0
    0.0012    7.7363   -1.6576 C   0  0  0  0  0  0  0  0  0  0  0  0
    3.4200    6.2058   -1.0892 C   0  0  0  0  0  0  0  0  0  0  0  0
    3.3041    4.8253   -0.6302 C   0  0  0  0  0  0  0  0  0  0  0  0
    2.3662    4.0981   -0.9150 O   0  0  0  0  0  0  0  0  0  0  0  0
    4.4396    4.4039    0.2061 C   0  0  0  0  0  0  0  0  0  0  0  0
    8.0334    4.6948    1.1460 C   0  0  0  0  0  0  0  0  0  0  0  0
    8.6565    5.8950    1.1503 C   0  0  0  0  0  0  0  0  0  0  0  0
    7.9838    7.2170    1.3035 C   0  0  0  0  0  0  0  0  0  0  0  0
    6.8725    7.4280    1.7372 O   0  0  0  0  0  0  0  0  0  0  0  0
    9.0026    8.2160    0.9420 C   0  0  0  0  0  0  0  0  0  0  0  0
    8.8209    9.5927    0.8255 C   0  0  0  0  0  0  0  0  0  0  0  0
    9.9528   10.2796    0.4614 C   0  0  0  0  0  0  0  0  0  0  0  0
   11.1823    9.6448    0.2326 C   0  0  0  0  0  0  0  0  0  0  0  0
   11.3792    8.2908    0.3528 C   0  0  0  0  0  0  0  0  0  0  0  0
   10.2390    7.5713    0.7258 C   0  0  0  0  0  0  0  0  0  0  0  0
   10.0737    6.1373    0.9405 C   0  0  0  0  0  0  0  0  0  0  0  0
   11.0689    5.1977    0.9163 C   0  0  0  0  0  0  0  0  0  0  0  0
   10.8945    3.8174    1.1539 C   0  0  0  0  0  0  0  0  0  0  0  0
   10.8430    2.6875    1.3536 N   0  0  0  0  0  0  0  0  0  0  0  0
   12.4316    5.4845    0.6888 C   0  0  0  0  0  0  0  0  0  0  0  0
   13.5560    5.6450    0.5208 N   0  0  0  0  0  0  0  0  0  0  0  0
   11.8820   10.9412   -0.0893 C   0  0  0  0  0  0  0  0  0  0  0  0
   12.7954   11.5552    1.0002 C   0  0  0  0  0  0  0  0  0  0  0  0
   12.2675   11.0679    2.3269 C   0  0  0  0  0  0  0  0  0  0  0  0
   11.1052   11.6683    2.5452 C   0  0  0  0  0  0  0  0  0  0  0  0
   10.8261   12.5726    1.3700 C   0  0  0  0  0  0  0  0  0  0  0  0
   12.2587   12.9954    1.0077 C   0  0  0  0  0  0  0  0  0  0  0  0
   10.5137   11.6483    0.1669 C   0  0  0  0  0  0  0  0  0  0  0  0
   -9.1256   -4.7516   -1.0576 H   0  0  0  0  0  0  0  0  0  0  0  0
   -7.5651  -10.7255    0.0832 H   0  0  0  0  0  0  0  0  0  0  0  0
  -12.1208   -9.2315   -1.5519 H   0  0  0  0  0  0  0  0  0  0  0  0
  -12.1875  -12.5499   -0.7234 H   0  0  0  0  0  0  0  0  0  0  0  0
  -12.0847  -12.3259   -3.3753 H   0  0  0  0  0  0  0  0  0  0  0  0
  -12.2841  -14.8730   -2.7634 H   0  0  0  0  0  0  0  0  0  0  0  0
   -9.9143  -15.7034   -1.8957 H   0  0  0  0  0  0  0  0  0  0  0  0
   -8.2552  -13.6680   -1.9755 H   0  0  0  0  0  0  0  0  0  0  0  0
   -9.6623  -13.0736   -4.1369 H   0  0  0  0  0  0  0  0  0  0  0  0
   -9.5064  -11.6014   -3.1518 H   0  0  0  0  0  0  0  0  0  0  0  0
   -9.8614  -13.3593    0.1279 H   0  0  0  0  0  0  0  0  0  0  0  0
   -5.8358   -6.3493    0.3361 H   0  0  0  0  0  0  0  0  0  0  0  0
   -4.8379   -5.8368    2.4553 H   0  0  0  0  0  0  0  0  0  0  0  0
   -2.6735  -11.3796    3.5763 H   0  0  0  0  0  0  0  0  0  0  0  0
   -3.6402  -10.0413    4.2303 H   0  0  0  0  0  0  0  0  0  0  0  0
   -5.0340  -11.6053    2.8647 H   0  0  0  0  0  0  0  0  0  0  0  0
   -5.0016  -10.0062    2.1177 H   0  0  0  0  0  0  0  0  0  0  0  0
   -3.9984  -11.3048    1.4598 H   0  0  0  0  0  0  0  0  0  0  0  0
   -1.4322   -6.2854   -0.1182 H   0  0  0  0  0  0  0  0  0  0  0  0
   -3.2552   -0.6540   -2.7298 H   0  0  0  0  0  0  0  0  0  0  0  0
   -5.4218    5.0043   -2.9677 H   0  0  0  0  0  0  0  0  0  0  0  0
   -4.0509    3.9343   -3.3101 H   0  0  0  0  0  0  0  0  0  0  0  0
   -6.9263    3.5113   -4.2933 H   0  0  0  0  0  0  0  0  0  0  0  0
   -5.5996    4.1533   -5.2736 H   0  0  0  0  0  0  0  0  0  0  0  0
   -5.5497    2.4831   -4.7088 H   0  0  0  0  0  0  0  0  0  0  0  0
   -6.3718   -0.4989    0.2147 H   0  0  0  0  0  0  0  0  0  0  0  0
   -2.0721   -0.4190   -0.6969 H   0  0  0  0  0  0  0  0  0  0  0  0
   -0.3237   -0.9058    3.3079 H   0  0  0  0  0  0  0  0  0  0  0  0
   -1.6784   -2.6247    4.3612 H   0  0  0  0  0  0  0  0  0  0  0  0
   -4.0462   -5.2844    5.1451 H   0  0  0  0  0  0  0  0  0  0  0  0
   -3.0437   -3.9413    5.7313 H   0  0  0  0  0  0  0  0  0  0  0  0
   -2.6444   -4.7612    4.1837 H   0  0  0  0  0  0  0  0  0  0  0  0
   -5.1370   -1.1330    2.3421 H   0  0  0  0  0  0  0  0  0  0  0  0
   -3.7675    0.5901    1.2603 H   0  0  0  0  0  0  0  0  0  0  0  0
   -0.4178    1.8472   -0.9172 H   0  0  0  0  0  0  0  0  0  0  0  0
   -1.3088    3.9222   -1.8639 H   0  0  0  0  0  0  0  0  0  0  0  0
   -5.2872    6.8468   -0.7062 H   0  0  0  0  0  0  0  0  0  0  0  0
   -5.3496    5.1581   -0.1439 H   0  0  0  0  0  0  0  0  0  0  0  0
   -4.6205    6.4366    0.8850 H   0  0  0  0  0  0  0  0  0  0  0  0
   -3.6731    4.5122    1.6519 H   0  0  0  0  0  0  0  0  0  0  0  0
   -2.7587    2.4685    2.6105 H   0  0  0  0  0  0  0  0  0  0  0  0
    7.4201   -0.0643    0.6575 H   0  0  0  0  0  0  0  0  0  0  0  0
    9.2557    1.2982   -0.2579 H   0  0  0  0  0  0  0  0  0  0  0  0
    8.0512    5.4447   -2.3225 H   0  0  0  0  0  0  0  0  0  0  0  0
    9.5273    5.3871   -3.3079 H   0  0  0  0  0  0  0  0  0  0  0  0
    8.1183    4.4304   -3.8090 H   0  0  0  0  0  0  0  0  0  0  0  0
    6.4363    3.4971   -2.6073 H   0  0  0  0  0  0  0  0  0  0  0  0
    4.6241    2.1219   -1.7281 H   0  0  0  0  0  0  0  0  0  0  0  0
    4.2184   -1.0066    2.4259 H   0  0  0  0  0  0  0  0  0  0  0  0
    4.5236   -3.4081    2.8856 H   0  0  0  0  0  0  0  0  0  0  0  0
    6.3597   -7.3634    0.2003 H   0  0  0  0  0  0  0  0  0  0  0  0
    7.2607   -5.8987   -0.2464 H   0  0  0  0  0  0  0  0  0  0  0  0
    5.6070   -6.1770   -0.8876 H   0  0  0  0  0  0  0  0  0  0  0  0
    6.2656   -3.9184   -0.9883 H   0  0  0  0  0  0  0  0  0  0  0  0
    5.9379   -1.5472   -1.4484 H   0  0  0  0  0  0  0  0  0  0  0  0
    5.2279   10.2009   -1.5446 H   0  0  0  0  0  0  0  0  0  0  0  0
    6.4072    9.0122   -0.9352 H   0  0  0  0  0  0  0  0  0  0  0  0
    5.5484    9.2567   -3.8575 H   0  0  0  0  0  0  0  0  0  0  0  0
    7.0587    9.8756   -3.1759 H   0  0  0  0  0  0  0  0  0  0  0  0
    6.7550    8.1373   -3.2020 H   0  0  0  0  0  0  0  0  0  0  0  0
    0.8638    6.0894   -2.7422 H   0  0  0  0  0  0  0  0  0  0  0  0
    0.7254    5.7952   -1.0199 H   0  0  0  0  0  0  0  0  0  0  0  0
    0.2044    8.4700   -2.4352 H   0  0  0  0  0  0  0  0  0  0  0  0
   -1.0209    7.3852   -1.7674 H   0  0  0  0  0  0  0  0  0  0  0  0
    0.0965    8.2232   -0.6898 H   0  0  0  0  0  0  0  0  0  0  0  0
    8.6284    3.7912    1.1936 H   0  0  0  0  0  0  0  0  0  0  0  0
    7.8579   10.0428    1.0118 H   0  0  0  0  0  0  0  0  0  0  0  0
   12.3302    7.8179    0.1729 H   0  0  0  0  0  0  0  0  0  0  0  0
   12.3162   11.0146   -1.0844 H   0  0  0  0  0  0  0  0  0  0  0  0
   13.8592   11.4172    0.8272 H   0  0  0  0  0  0  0  0  0  0  0  0
   12.7509   10.3172    2.9240 H   0  0  0  0  0  0  0  0  0  0  0  0
   10.4229   11.5192    3.3615 H   0  0  0  0  0  0  0  0  0  0  0  0
   10.0974   13.3622    1.5340 H   0  0  0  0  0  0  0  0  0  0  0  0
   12.3337   13.4917    0.0410 H   0  0  0  0  0  0  0  0  0  0  0  0
   12.7220   13.6134    1.7753 H   0  0  0  0  0  0  0  0  0  0  0  0
   10.0543   12.1856   -0.6607 H   0  0  0  0  0  0  0  0  0  0  0  0
  1  2  2  0  0  0  0
  2  3  1  0  0  0  0
  3  4  2  0  0  0  0
  3  5  1  0  0  0  0
  5  6  2  0  0  0  0
  6  7  1  0  0  0  0
  7  8  2  0  0  0  0
  8  9  1  0  0  0  0
  9 10  2  0  0  0  0
 10 11  1  0  0  0  0
 11 12  2  0  0  0  0
 12 13  1  0  0  0  0
 13 14  3  0  0  0  0
 12 15  1  0  0  0  0
 15 16  3  0  0  0  0
  8 17  1  0  0  0  0
 17 18  1  0  0  0  0
 18 19  1  0  0  0  0
 19 20  2  0  0  0  0
 20 21  1  0  0  0  0
 21 22  1  0  0  0  0
 21 23  1  0  0  0  0
  1 24  1  0  0  0  0
 24 25  2  0  0  0  0
 25 26  1  0  0  0  0
 26 27  2  0  0  0  0
 27 28  1  0  0  0  0
 28 29  2  0  0  0  0
 29 30  1  0  0  0  0
 30 31  1  0  0  0  0
 30 32  2  0  0  0  0
 32 33  1  0  0  0  0
 33 34  1  0  0  0  0
 34 35  1  0  0  0  0
 32 36  1  0  0  0  0
 36 37  1  0  0  0  0
 36 38  2  0  0  0  0
 27 39  1  0  0  0  0
 39 40  2  0  0  0  0
 40 41  1  0  0  0  0
 41 42  1  0  0  0  0
 42 43  2  0  0  0  0
 43 44  1  0  0  0  0
 44 45  2  0  0  0  0
 45 46  1  0  0  0  0
 46 47  1  0  0  0  0
 47 48  1  0  0  0  0
 45 49  1  0  0  0  0
 49 50  2  0  0  0  0
 49 51  1  0  0  0  0
 44 52  1  0  0  0  0
 41 53  2  0  0  0  0
 53 54  1  0  0  0  0
 40 55  1  0  0  0  0
 55 56  2  0  0  0  0
 56 57  1  0  0  0  0
 56 58  1  0  0  0  0
 58 59  2  0  0  0  0
 59 60  1  0  0  0  0
 60 61  1  0  0  0  0
 61 62  2  0  0  0  0
 62 63  1  0  0  0  0
 63 64  2  0  0  0  0
 64 65  1  0  0  0  0
 65 66  1  0  0  0  0
 64 67  1  0  0  0  0
 67 68  2  0  0  0  0
 60 69  1  0  0  0  0
 69 70  2  0  0  0  0
 70 71  1  0  0  0  0
 71 72  2  0  0  0  0
 72 73  1  0  0  0  0
 73 74  1  0  0  0  0
 72 75  1  0  0  0  0
 75 76  2  0  0  0  0
 59 77  1  0  0  0  0
 77 78  1  0  0  0  0
 78 79  1  0  0  0  0
 79 80  2  0  0  0  0
 80 81  1  0  0  0  0
 81 82  1  0  0  0  0
 82 83  2  0  0  0  0
 83 84  1  0  0  0  0
 84 85  2  0  0  0  0
 85 86  1  0  0  0  0
 86 87  1  0  0  0  0
 85 88  1  0  0  0  0
 88 89  2  0  0  0  0
 81 90  1  0  0  0  0
 90 91  2  0  0  0  0
 91 92  1  0  0  0  0
 92 93  2  0  0  0  0
 93 94  1  0  0  0  0
 94 95  1  0  0  0  0
 93 96  1  0  0  0  0
 96 97  2  0  0  0  0
 80 98  1  0  0  0  0
 98 99  1  0  0  0  0
 79100  1  0  0  0  0
100101  1  0  0  0  0
101102  1  0  0  0  0
102103  2  0  0  0  0
103104  1  0  0  0  0
104105  2  0  0  0  0
104106  1  0  0  0  0
106107  2  0  0  0  0
107108  1  0  0  0  0
108109  1  0  0  0  0
107110  1  0  0  0  0
110111  1  0  0  0  0
111112  1  0  0  0  0
112113  1  0  0  0  0
111114  2  0  0  0  0
114115  1  0  0  0  0
115116  2  0  0  0  0
115117  1  0  0  0  0
102118  1  0  0  0  0
118119  2  0  0  0  0
119120  1  0  0  0  0
120121  2  0  0  0  0
120122  1  0  0  0  0
122123  2  0  0  0  0
123124  1  0  0  0  0
124125  2  0  0  0  0
125126  1  0  0  0  0
126127  2  0  0  0  0
127128  1  0  0  0  0
128129  2  0  0  0  0
129130  1  0  0  0  0
130131  3  0  0  0  0
129132  1  0  0  0  0
132133  3  0  0  0  0
125134  1  0  0  0  0
134135  1  0  0  0  0
135136  1  0  0  0  0
136137  2  0  0  0  0
137138  1  0  0  0  0
138139  1  0  0  0  0
138140  1  0  0  0  0
 11  2  1  0  0  0  0
 23 17  1  0  0  0  0
 54 24  1  0  0  0  0
 99 58  1  0  0  0  0
117100  2  0  0  0  0
128119  1  0  0  0  0
140134  1  0  0  0  0
 10  5  1  0  0  0  0
 22 18  1  0  0  0  0
 53 26  1  0  0  0  0
 68 61  1  0  0  0  0
 76 69  1  0  0  0  0
 98 77  2  0  0  0  0
117103  1  0  0  0  0
127122  1  0  0  0  0
139135  1  0  0  0  0
 23  7  1  0  0  0  0
 38 28  1  0  0  0  0
 57 39  1  0  0  0  0
 89 82  1  0  0  0  0
 97 90  1  0  0  0  0
114106  1  0  0  0  0
140124  1  0  0  0  0
 50 42  1  0  0  0  0
  1141  1  0  0  0  0
  6142  1  0  0  0  0
  9143  1  0  0  0  0
 17144  1  0  0  0  0
 18145  1  0  0  0  0
 19146  1  0  0  0  0
 20147  1  0  0  0  0
 21148  1  0  0  0  0
 22149  1  0  0  0  0
 22150  1  0  0  0  0
 23151  1  0  0  0  0
 25152  1  0  0  0  0
 29153  1  0  0  0  0
 34154  1  0  0  0  0
 34155  1  0  0  0  0
 35156  1  0  0  0  0
 35157  1  0  0  0  0
 35158  1  0  0  0  0
 38159  1  0  0  0  0
 43160  1  0  0  0  0
 47161  1  0  0  0  0
 47162  1  0  0  0  0
 48163  1  0  0  0  0
 48164  1  0  0  0  0
 48165  1  0  0  0  0
 50166  1  0  0  0  0
 55167  1  0  0  0  0
 62168  1  0  0  0  0
 63169  1  0  0  0  0
 66170  1  0  0  0  0
 66171  1  0  0  0  0
 66172  1  0  0  0  0
 67173  1  0  0  0  0
 68174  1  0  0  0  0
 70175  1  0  0  0  0
 71176  1  0  0  0  0
 74177  1  0  0  0  0
 74178  1  0  0  0  0
 74179  1  0  0  0  0
 75180  1  0  0  0  0
 76181  1  0  0  0  0
 83182  1  0  0  0  0
 84183  1  0  0  0  0
 87184  1  0  0  0  0
 87185  1  0  0  0  0
 87186  1  0  0  0  0
 88187  1  0  0  0  0
 89188  1  0  0  0  0
 91189  1  0  0  0  0
 92190  1  0  0  0  0
 95191  1  0  0  0  0
 95192  1  0  0  0  0
 95193  1  0  0  0  0
 96194  1  0  0  0  0
 97195  1  0  0  0  0
108196  1  0  0  0  0
108197  1  0  0  0  0
109198  1  0  0  0  0
109199  1  0  0  0  0
109200  1  0  0  0  0
112201  1  0  0  0  0
112202  1  0  0  0  0
113203  1  0  0  0  0
113204  1  0  0  0  0
113205  1  0  0  0  0
118206  1  0  0  0  0
123207  1  0  0  0  0
126208  1  0  0  0  0
134209  1  0  0  0  0
135210  1  0  0  0  0
136211  1  0  0  0  0
137212  1  0  0  0  0
138213  1  0  0  0  0
139214  1  0  0  0  0
139215  1  0  0  0  0
140216  1  0  0  0  0
M  END
