
  xtb     02072215343D
 energy: -361.718043538688 gnorm: 0.001296251083 xtb: 6.4.1 (unknown)
218241  0     0  0            999 V2000
    1.8057  -10.0893   -2.3045 C   0  0  0  0  0  0  0  0  0  0  0  0
    2.8588  -10.9292   -2.0483 C   0  0  0  0  0  0  0  0  0  0  0  0
    3.8639  -10.7499   -0.9935 C   0  0  0  0  0  0  0  0  0  0  0  0
    3.8806   -9.8995   -0.1206 O   0  0  0  0  0  0  0  0  0  0  0  0
    4.8675  -11.8087   -1.1941 C   0  0  0  0  0  0  0  0  0  0  0  0
    6.0382  -12.0031   -0.4642 C   0  0  0  0  0  0  0  0  0  0  0  0
    6.7937  -13.0675   -0.8939 C   0  0  0  0  0  0  0  0  0  0  0  0
    6.4122  -13.8793   -1.9701 C   0  0  0  0  0  0  0  0  0  0  0  0
    5.2605  -13.6975   -2.6987 C   0  0  0  0  0  0  0  0  0  0  0  0
    4.4760  -12.6189   -2.2788 C   0  0  0  0  0  0  0  0  0  0  0  0
    3.2112  -12.1107   -2.8094 C   0  0  0  0  0  0  0  0  0  0  0  0
    2.4958  -12.6827   -3.8313 C   0  0  0  0  0  0  0  0  0  0  0  0
    2.8821  -13.8495   -4.5228 C   0  0  0  0  0  0  0  0  0  0  0  0
    3.1281  -14.7932   -5.1297 N   0  0  0  0  0  0  0  0  0  0  0  0
    1.2661  -12.2161   -4.3399 C   0  0  0  0  0  0  0  0  0  0  0  0
    0.2644  -11.9118   -4.8140 N   0  0  0  0  0  0  0  0  0  0  0  0
    7.6362  -14.7526   -1.8499 C   0  0  0  0  0  0  0  0  0  0  0  0
    7.4387  -16.1304   -1.1832 C   0  0  0  0  0  0  0  0  0  0  0  0
    8.8364  -16.5381   -0.7767 C   0  0  0  0  0  0  0  0  0  0  0  0
    9.2013  -15.7684    0.2407 C   0  0  0  0  0  0  0  0  0  0  0  0
    8.0558  -14.8282    0.5397 C   0  0  0  0  0  0  0  0  0  0  0  0
    6.8704  -15.7354    0.1860 C   0  0  0  0  0  0  0  0  0  0  0  0
    8.0630  -13.8462   -0.6509 C   0  0  0  0  0  0  0  0  0  0  0  0
    1.3963   -8.9159   -1.6545 C   0  0  0  0  0  0  0  0  0  0  0  0
    2.1132   -8.2068   -0.2097 S   0  0  0  0  0  0  0  0  0  0  0  0
    0.9760   -6.9118   -0.2660 C   0  0  0  0  0  0  0  0  0  0  0  0
    0.7535   -5.7711    0.5012 C   0  0  0  0  0  0  0  0  0  0  0  0
   -0.2864   -5.0019    0.0134 C   0  0  0  0  0  0  0  0  0  0  0  0
   -1.0154   -5.7061   -1.4266 S   0  0  0  0  0  0  0  0  0  0  0  0
    0.0995   -7.0321   -1.3595 C   0  0  0  0  0  0  0  0  0  0  0  0
    0.3246   -8.1543   -2.1295 C   0  0  0  0  0  0  0  0  0  0  0  0
   -0.6558   -3.7165    0.4742 C   0  0  0  0  0  0  0  0  0  0  0  0
   -1.6770   -2.8784    0.0247 C   0  0  0  0  0  0  0  0  0  0  0  0
   -2.7594   -3.2786   -0.7284 N   0  0  0  0  0  0  0  0  0  0  0  0
   -3.4890   -4.4383   -0.4416 C   0  0  0  0  0  0  0  0  0  0  0  0
   -3.4138   -5.0816    0.7910 C   0  0  0  0  0  0  0  0  0  0  0  0
   -4.1435   -6.2283    1.0364 C   0  0  0  0  0  0  0  0  0  0  0  0
   -4.9723   -6.7524    0.0543 C   0  0  0  0  0  0  0  0  0  0  0  0
   -5.9519   -8.2070    0.2492 S   0  0  0  0  0  0  0  0  0  0  0  0
   -5.4181   -8.8854    1.8463 C   0  0  0  0  0  0  0  0  0  0  0  0
   -5.0683   -6.0999   -1.1737 C   0  0  0  0  0  0  0  0  0  0  0  0
   -4.3381   -4.9612   -1.4202 C   0  0  0  0  0  0  0  0  0  0  0  0
   -3.3928   -2.3083   -1.5531 C   0  0  0  0  0  0  0  0  0  0  0  0
   -2.8619   -2.0069   -2.7968 C   0  0  0  0  0  0  0  0  0  0  0  0
   -3.4720   -1.0700   -3.6123 C   0  0  0  0  0  0  0  0  0  0  0  0
   -4.6221   -0.4220   -3.1806 C   0  0  0  0  0  0  0  0  0  0  0  0
   -5.4839    0.7929   -4.1177 S   0  0  0  0  0  0  0  0  0  0  0  0
   -4.5112    0.9624   -5.6376 C   0  0  0  0  0  0  0  0  0  0  0  0
   -5.1653   -0.7401   -1.9359 C   0  0  0  0  0  0  0  0  0  0  0  0
   -4.5622   -1.6802   -1.1315 C   0  0  0  0  0  0  0  0  0  0  0  0
   -1.4811   -1.5594    0.5013 C   0  0  0  0  0  0  0  0  0  0  0  0
   -2.1924   -0.0287    0.1481 S   0  0  0  0  0  0  0  0  0  0  0  0
   -1.0667    0.7862    1.2438 C   0  0  0  0  0  0  0  0  0  0  0  0
   -0.2561   -0.1159    1.9243 C   0  0  0  0  0  0  0  0  0  0  0  0
    0.6139    0.1210    2.9714 N   0  0  0  0  0  0  0  0  0  0  0  0
    0.7594   -0.8673    3.9624 C   0  0  0  0  0  0  0  0  0  0  0  0
   -0.3301   -1.6031    4.4172 C   0  0  0  0  0  0  0  0  0  0  0  0
   -0.1714   -2.5716    5.3899 C   0  0  0  0  0  0  0  0  0  0  0  0
    1.0820   -2.8087    5.9364 C   0  0  0  0  0  0  0  0  0  0  0  0
    1.4113   -4.0137    7.1813 S   0  0  0  0  0  0  0  0  0  0  0  0
   -0.2289   -4.6662    7.6048 C   0  0  0  0  0  0  0  0  0  0  0  0
    2.1737   -2.0627    5.4933 C   0  0  0  0  0  0  0  0  0  0  0  0
    2.0169   -1.1064    4.5170 C   0  0  0  0  0  0  0  0  0  0  0  0
    1.2502    1.3517    3.1802 C   0  0  0  0  0  0  0  0  0  0  0  0
    1.8739    2.0047    2.1251 C   0  0  0  0  0  0  0  0  0  0  0  0
    2.4256    3.2592    2.2975 C   0  0  0  0  0  0  0  0  0  0  0  0
    2.3941    3.8608    3.5481 C   0  0  0  0  0  0  0  0  0  0  0  0
    2.9984    5.4885    3.8770 S   0  0  0  0  0  0  0  0  0  0  0  0
    3.9768    5.8942    2.4032 C   0  0  0  0  0  0  0  0  0  0  0  0
    1.8392    3.1739    4.6263 C   0  0  0  0  0  0  0  0  0  0  0  0
    1.2656    1.9360    4.4474 C   0  0  0  0  0  0  0  0  0  0  0  0
   -0.4530   -1.4282    1.4193 C   0  0  0  0  0  0  0  0  0  0  0  0
    0.3908   -2.9190    1.6511 S   0  0  0  0  0  0  0  0  0  0  0  0
   -1.1242    2.2144    1.2352 C   0  0  0  0  0  0  0  0  0  0  0  0
   -1.2912    3.0067    0.1048 C   0  0  0  0  0  0  0  0  0  0  0  0
   -1.2843    2.5502   -1.2099 N   0  0  0  0  0  0  0  0  0  0  0  0
   -2.2381    3.0361   -2.1084 C   0  0  0  0  0  0  0  0  0  0  0  0
   -1.9064    3.2384   -3.4480 C   0  0  0  0  0  0  0  0  0  0  0  0
   -2.8510    3.7096   -4.3310 C   0  0  0  0  0  0  0  0  0  0  0  0
   -4.1453    3.9921   -3.8990 C   0  0  0  0  0  0  0  0  0  0  0  0
   -5.2790    4.5695   -5.1246 S   0  0  0  0  0  0  0  0  0  0  0  0
   -6.8952    4.4188   -4.3135 C   0  0  0  0  0  0  0  0  0  0  0  0
   -4.4736    3.8109   -2.5635 C   0  0  0  0  0  0  0  0  0  0  0  0
   -3.5281    3.3319   -1.6787 C   0  0  0  0  0  0  0  0  0  0  0  0
   -0.3154    1.6268   -1.6135 C   0  0  0  0  0  0  0  0  0  0  0  0
   -0.6469    0.5584   -2.4431 C   0  0  0  0  0  0  0  0  0  0  0  0
    0.2716   -0.4381   -2.6995 C   0  0  0  0  0  0  0  0  0  0  0  0
    1.5349   -0.3895   -2.1250 C   0  0  0  0  0  0  0  0  0  0  0  0
    2.7160   -1.6951   -2.2855 S   0  0  0  0  0  0  0  0  0  0  0  0
    1.6630   -3.1411   -2.6050 C   0  0  0  0  0  0  0  0  0  0  0  0
    1.9068    0.7330   -1.3906 C   0  0  0  0  0  0  0  0  0  0  0  0
    0.9934    1.7365   -1.1484 C   0  0  0  0  0  0  0  0  0  0  0  0
   -1.3911    4.3748    0.4372 C   0  0  0  0  0  0  0  0  0  0  0  0
   -1.4569    5.8100   -0.5202 S   0  0  0  0  0  0  0  0  0  0  0  0
   -1.3690    6.7895    0.9470 C   0  0  0  0  0  0  0  0  0  0  0  0
   -1.1929    5.9983    2.1106 C   0  0  0  0  0  0  0  0  0  0  0  0
   -0.8905    6.4831    3.3569 N   0  0  0  0  0  0  0  0  0  0  0  0
   -0.1412    7.6626    3.5308 C   0  0  0  0  0  0  0  0  0  0  0  0
    0.8877    7.9875    2.6490 C   0  0  0  0  0  0  0  0  0  0  0  0
    1.5421    9.1964    2.7507 C   0  0  0  0  0  0  0  0  0  0  0  0
    1.1909   10.0948    3.7524 C   0  0  0  0  0  0  0  0  0  0  0  0
    1.9150   11.6972    3.9055 S   0  0  0  0  0  0  0  0  0  0  0  0
    2.4507   12.0574    2.2059 C   0  0  0  0  0  0  0  0  0  0  0  0
    0.2292    9.7323    4.6907 C   0  0  0  0  0  0  0  0  0  0  0  0
   -0.4364    8.5307    4.5802 C   0  0  0  0  0  0  0  0  0  0  0  0
   -1.2193    5.7199    4.4893 C   0  0  0  0  0  0  0  0  0  0  0  0
   -2.4564    5.0884    4.5753 C   0  0  0  0  0  0  0  0  0  0  0  0
   -2.7764    4.3120    5.6721 C   0  0  0  0  0  0  0  0  0  0  0  0
   -1.8621    4.1627    6.7055 C   0  0  0  0  0  0  0  0  0  0  0  0
   -2.1358    3.1750    8.1403 S   0  0  0  0  0  0  0  0  0  0  0  0
   -3.7768    2.4483    7.8681 C   0  0  0  0  0  0  0  0  0  0  0  0
   -0.6358    4.8234    6.6368 C   0  0  0  0  0  0  0  0  0  0  0  0
   -0.3145    5.5933    5.5432 C   0  0  0  0  0  0  0  0  0  0  0  0
   -1.2636    4.6300    1.7967 C   0  0  0  0  0  0  0  0  0  0  0  0
   -1.0863    3.1681    2.7121 S   0  0  0  0  0  0  0  0  0  0  0  0
   -1.4808    8.1803    0.9836 C   0  0  0  0  0  0  0  0  0  0  0  0
   -1.3637    9.1103   -0.0217 C   0  0  0  0  0  0  0  0  0  0  0  0
   -1.0824    8.8296   -1.4314 C   0  0  0  0  0  0  0  0  0  0  0  0
   -1.1262    7.7514   -1.9991 O   0  0  0  0  0  0  0  0  0  0  0  0
   -0.7158   10.1214   -2.0410 C   0  0  0  0  0  0  0  0  0  0  0  0
   -0.3140   10.3462   -3.3553 C   0  0  0  0  0  0  0  0  0  0  0  0
    0.0056   11.6556   -3.6258 C   0  0  0  0  0  0  0  0  0  0  0  0
   -0.0759   12.6681   -2.6617 C   0  0  0  0  0  0  0  0  0  0  0  0
   -0.4854   12.4622   -1.3651 C   0  0  0  0  0  0  0  0  0  0  0  0
   -0.8094   11.1356   -1.0664 C   0  0  0  0  0  0  0  0  0  0  0  0
   -1.2750   10.5365    0.1851 C   0  0  0  0  0  0  0  0  0  0  0  0
   -1.5600   11.2232    1.3413 C   0  0  0  0  0  0  0  0  0  0  0  0
   -1.3329   12.6014    1.5240 C   0  0  0  0  0  0  0  0  0  0  0  0
   -1.1397   13.7123    1.7448 N   0  0  0  0  0  0  0  0  0  0  0  0
   -2.1393   10.6633    2.4962 C   0  0  0  0  0  0  0  0  0  0  0  0
   -2.6378   10.2917    3.4634 N   0  0  0  0  0  0  0  0  0  0  0  0
    0.4157   13.7281   -3.6161 C   0  0  0  0  0  0  0  0  0  0  0  0
    1.8875   14.1656   -3.4574 C   0  0  0  0  0  0  0  0  0  0  0  0
    2.2162   14.8188   -4.7804 C   0  0  0  0  0  0  0  0  0  0  0  0
    2.2913   13.8609   -5.6956 C   0  0  0  0  0  0  0  0  0  0  0  0
    2.0149   12.5443   -5.0063 C   0  0  0  0  0  0  0  0  0  0  0  0
    2.6289   12.8336   -3.6303 C   0  0  0  0  0  0  0  0  0  0  0  0
    0.5044   12.5992   -4.6926 C   0  0  0  0  0  0  0  0  0  0  0  0
    1.1839  -10.3340   -3.1572 H   0  0  0  0  0  0  0  0  0  0  0  0
    6.2954  -11.3491    0.3543 H   0  0  0  0  0  0  0  0  0  0  0  0
    4.9884  -14.3268   -3.5291 H   0  0  0  0  0  0  0  0  0  0  0  0
    8.2784  -14.7928   -2.7277 H   0  0  0  0  0  0  0  0  0  0  0  0
    6.8721  -16.8447   -1.7742 H   0  0  0  0  0  0  0  0  0  0  0  0
    9.4179  -17.2810   -1.2904 H   0  0  0  0  0  0  0  0  0  0  0  0
   10.1486  -15.7399    0.7465 H   0  0  0  0  0  0  0  0  0  0  0  0
    8.0524  -14.3572    1.5191 H   0  0  0  0  0  0  0  0  0  0  0  0
    6.7889  -16.5874    0.8590 H   0  0  0  0  0  0  0  0  0  0  0  0
    5.9145  -15.2174    0.1370 H   0  0  0  0  0  0  0  0  0  0  0  0
    8.9894  -13.2801   -0.7305 H   0  0  0  0  0  0  0  0  0  0  0  0
    1.3216   -5.4960    1.3712 H   0  0  0  0  0  0  0  0  0  0  0  0
   -0.2405   -8.4288   -3.0019 H   0  0  0  0  0  0  0  0  0  0  0  0
   -2.7837   -4.6834    1.5723 H   0  0  0  0  0  0  0  0  0  0  0  0
   -4.0599   -6.6968    2.0038 H   0  0  0  0  0  0  0  0  0  0  0  0
   -5.9343   -9.8351    1.9456 H   0  0  0  0  0  0  0  0  0  0  0  0
   -4.3444   -9.0480    1.8370 H   0  0  0  0  0  0  0  0  0  0  0  0
   -5.7122   -8.2220    2.6544 H   0  0  0  0  0  0  0  0  0  0  0  0
   -5.7178   -6.5060   -1.9335 H   0  0  0  0  0  0  0  0  0  0  0  0
   -4.4116   -4.4705   -2.3783 H   0  0  0  0  0  0  0  0  0  0  0  0
   -1.9754   -2.5249   -3.1297 H   0  0  0  0  0  0  0  0  0  0  0  0
   -3.0461   -0.8621   -4.5811 H   0  0  0  0  0  0  0  0  0  0  0  0
   -4.5208    0.0280   -6.1913 H   0  0  0  0  0  0  0  0  0  0  0  0
   -3.5012    1.2780   -5.3925 H   0  0  0  0  0  0  0  0  0  0  0  0
   -5.0038    1.7404   -6.2131 H   0  0  0  0  0  0  0  0  0  0  0  0
   -6.0650   -0.2390   -1.6144 H   0  0  0  0  0  0  0  0  0  0  0  0
   -4.9864   -1.9327   -0.1714 H   0  0  0  0  0  0  0  0  0  0  0  0
   -1.3130   -1.4132    4.0105 H   0  0  0  0  0  0  0  0  0  0  0  0
   -1.0366   -3.1262    5.7154 H   0  0  0  0  0  0  0  0  0  0  0  0
   -0.0626   -5.3688    8.4154 H   0  0  0  0  0  0  0  0  0  0  0  0
   -0.8719   -3.8590    7.9433 H   0  0  0  0  0  0  0  0  0  0  0  0
   -0.6577   -5.1844    6.7518 H   0  0  0  0  0  0  0  0  0  0  0  0
    3.1457   -2.2511    5.9223 H   0  0  0  0  0  0  0  0  0  0  0  0
    2.8653   -0.5344    4.1734 H   0  0  0  0  0  0  0  0  0  0  0  0
    1.9093    1.5164    1.1655 H   0  0  0  0  0  0  0  0  0  0  0  0
    2.8794    3.7516    1.4518 H   0  0  0  0  0  0  0  0  0  0  0  0
    4.7274    5.1263    2.2408 H   0  0  0  0  0  0  0  0  0  0  0  0
    4.4563    6.8426    2.6241 H   0  0  0  0  0  0  0  0  0  0  0  0
    3.3311    6.0031    1.5361 H   0  0  0  0  0  0  0  0  0  0  0  0
    1.8458    3.6323    5.6018 H   0  0  0  0  0  0  0  0  0  0  0  0
    0.8118    1.4237    5.2819 H   0  0  0  0  0  0  0  0  0  0  0  0
   -0.9029    3.0277   -3.7869 H   0  0  0  0  0  0  0  0  0  0  0  0
   -2.5962    3.8746   -5.3672 H   0  0  0  0  0  0  0  0  0  0  0  0
   -7.0136    3.4084   -3.9329 H   0  0  0  0  0  0  0  0  0  0  0  0
   -7.6319    4.6153   -5.0863 H   0  0  0  0  0  0  0  0  0  0  0  0
   -6.9888    5.1573   -3.5224 H   0  0  0  0  0  0  0  0  0  0  0  0
   -5.4644    4.0284   -2.1999 H   0  0  0  0  0  0  0  0  0  0  0  0
   -3.7935    3.1750   -0.6435 H   0  0  0  0  0  0  0  0  0  0  0  0
   -1.6429    0.4974   -2.8529 H   0  0  0  0  0  0  0  0  0  0  0  0
   -0.0085   -1.2609   -3.3366 H   0  0  0  0  0  0  0  0  0  0  0  0
    0.8113   -3.1212   -1.9316 H   0  0  0  0  0  0  0  0  0  0  0  0
    1.3434   -3.1602   -3.6433 H   0  0  0  0  0  0  0  0  0  0  0  0
    2.2787   -4.0107   -2.3972 H   0  0  0  0  0  0  0  0  0  0  0  0
    2.9153    0.7991   -1.0099 H   0  0  0  0  0  0  0  0  0  0  0  0
    1.2720    2.6155   -0.5870 H   0  0  0  0  0  0  0  0  0  0  0  0
    1.1541    7.2989    1.8616 H   0  0  0  0  0  0  0  0  0  0  0  0
    2.3265    9.4312    2.0483 H   0  0  0  0  0  0  0  0  0  0  0  0
    3.3709   11.5287    1.9733 H   0  0  0  0  0  0  0  0  0  0  0  0
    2.6234   13.1282    2.1725 H   0  0  0  0  0  0  0  0  0  0  0  0
    1.6585   11.7913    1.5122 H   0  0  0  0  0  0  0  0  0  0  0  0
   -0.0198   10.4204    5.4827 H   0  0  0  0  0  0  0  0  0  0  0  0
   -1.2154    8.2778    5.2820 H   0  0  0  0  0  0  0  0  0  0  0  0
   -3.1767    5.2133    3.7803 H   0  0  0  0  0  0  0  0  0  0  0  0
   -3.7433    3.8373    5.7070 H   0  0  0  0  0  0  0  0  0  0  0  0
   -3.9522    1.7971    8.7192 H   0  0  0  0  0  0  0  0  0  0  0  0
   -4.5313    3.2293    7.8413 H   0  0  0  0  0  0  0  0  0  0  0  0
   -3.7761    1.8656    6.9513 H   0  0  0  0  0  0  0  0  0  0  0  0
    0.0624    4.7155    7.4528 H   0  0  0  0  0  0  0  0  0  0  0  0
    0.6424    6.0894    5.4877 H   0  0  0  0  0  0  0  0  0  0  0  0
   -1.6167    8.5816    1.9792 H   0  0  0  0  0  0  0  0  0  0  0  0
   -0.2697    9.5365   -4.0669 H   0  0  0  0  0  0  0  0  0  0  0  0
   -0.5497   13.2547   -0.6383 H   0  0  0  0  0  0  0  0  0  0  0  0
   -0.2601   14.5630   -3.7902 H   0  0  0  0  0  0  0  0  0  0  0  0
    2.0965   14.7432   -2.5609 H   0  0  0  0  0  0  0  0  0  0  0  0
    2.3022   15.8803   -4.9205 H   0  0  0  0  0  0  0  0  0  0  0  0
    2.4523   13.9625   -6.7528 H   0  0  0  0  0  0  0  0  0  0  0  0
    2.3407   11.6444   -5.5213 H   0  0  0  0  0  0  0  0  0  0  0  0
    3.7085   12.9667   -3.6809 H   0  0  0  0  0  0  0  0  0  0  0  0
    2.3887   12.0900   -2.8724 H   0  0  0  0  0  0  0  0  0  0  0  0
   -0.1136   12.6807   -5.5848 H   0  0  0  0  0  0  0  0  0  0  0  0
  1  2  2  0  0  0  0
  2  3  1  0  0  0  0
  3  4  2  0  0  0  0
  3  5  1  0  0  0  0
  5  6  2  0  0  0  0
  6  7  1  0  0  0  0
  7  8  2  0  0  0  0
  8  9  1  0  0  0  0
  9 10  2  0  0  0  0
 10 11  1  0  0  0  0
 11 12  2  0  0  0  0
 12 13  1  0  0  0  0
 13 14  3  0  0  0  0
 12 15  1  0  0  0  0
 15 16  3  0  0  0  0
  8 17  1  0  0  0  0
 17 18  1  0  0  0  0
 18 19  1  0  0  0  0
 19 20  2  0  0  0  0
 20 21  1  0  0  0  0
 21 22  1  0  0  0  0
 21 23  1  0  0  0  0
  1 24  1  0  0  0  0
 24 25  1  0  0  0  0
 25 26  1  0  0  0  0
 26 27  1  0  0  0  0
 27 28  2  0  0  0  0
 28 29  1  0  0  0  0
 29 30  1  0  0  0  0
 30 31  1  0  0  0  0
 28 32  1  0  0  0  0
 32 33  2  0  0  0  0
 33 34  1  0  0  0  0
 34 35  1  0  0  0  0
 35 36  2  0  0  0  0
 36 37  1  0  0  0  0
 37 38  2  0  0  0  0
 38 39  1  0  0  0  0
 39 40  1  0  0  0  0
 38 41  1  0  0  0  0
 41 42  2  0  0  0  0
 34 43  1  0  0  0  0
 43 44  2  0  0  0  0
 44 45  1  0  0  0  0
 45 46  2  0  0  0  0
 46 47  1  0  0  0  0
 47 48  1  0  0  0  0
 46 49  1  0  0  0  0
 49 50  2  0  0  0  0
 33 51  1  0  0  0  0
 51 52  1  0  0  0  0
 52 53  1  0  0  0  0
 53 54  2  0  0  0  0
 54 55  1  0  0  0  0
 55 56  1  0  0  0  0
 56 57  2  0  0  0  0
 57 58  1  0  0  0  0
 58 59  2  0  0  0  0
 59 60  1  0  0  0  0
 60 61  1  0  0  0  0
 59 62  1  0  0  0  0
 62 63  2  0  0  0  0
 55 64  1  0  0  0  0
 64 65  2  0  0  0  0
 65 66  1  0  0  0  0
 66 67  2  0  0  0  0
 67 68  1  0  0  0  0
 68 69  1  0  0  0  0
 67 70  1  0  0  0  0
 70 71  2  0  0  0  0
 54 72  1  0  0  0  0
 72 73  1  0  0  0  0
 53 74  1  0  0  0  0
 74 75  2  0  0  0  0
 75 76  1  0  0  0  0
 76 77  1  0  0  0  0
 77 78  2  0  0  0  0
 78 79  1  0  0  0  0
 79 80  2  0  0  0  0
 80 81  1  0  0  0  0
 81 82  1  0  0  0  0
 80 83  1  0  0  0  0
 83 84  2  0  0  0  0
 76 85  1  0  0  0  0
 85 86  2  0  0  0  0
 86 87  1  0  0  0  0
 87 88  2  0  0  0  0
 88 89  1  0  0  0  0
 89 90  1  0  0  0  0
 88 91  1  0  0  0  0
 91 92  2  0  0  0  0
 75 93  1  0  0  0  0
 93 94  1  0  0  0  0
 94 95  1  0  0  0  0
 95 96  2  0  0  0  0
 96 97  1  0  0  0  0
 97 98  1  0  0  0  0
 98 99  2  0  0  0  0
 99100  1  0  0  0  0
100101  2  0  0  0  0
101102  1  0  0  0  0
102103  1  0  0  0  0
101104  1  0  0  0  0
104105  2  0  0  0  0
 97106  1  0  0  0  0
106107  2  0  0  0  0
107108  1  0  0  0  0
108109  2  0  0  0  0
109110  1  0  0  0  0
110111  1  0  0  0  0
109112  1  0  0  0  0
112113  2  0  0  0  0
 96114  1  0  0  0  0
114115  1  0  0  0  0
 95116  1  0  0  0  0
116117  2  0  0  0  0
117118  1  0  0  0  0
118119  2  0  0  0  0
118120  1  0  0  0  0
120121  2  0  0  0  0
121122  1  0  0  0  0
122123  2  0  0  0  0
123124  1  0  0  0  0
124125  2  0  0  0  0
125126  1  0  0  0  0
126127  2  0  0  0  0
127128  1  0  0  0  0
128129  3  0  0  0  0
127130  1  0  0  0  0
130131  3  0  0  0  0
123132  1  0  0  0  0
132133  1  0  0  0  0
133134  1  0  0  0  0
134135  2  0  0  0  0
135136  1  0  0  0  0
136137  1  0  0  0  0
136138  1  0  0  0  0
 11  2  1  0  0  0  0
 23 17  1  0  0  0  0
 31 24  2  0  0  0  0
 73 32  1  0  0  0  0
115 74  1  0  0  0  0
126117  1  0  0  0  0
138132  1  0  0  0  0
 10  5  1  0  0  0  0
 22 18  1  0  0  0  0
 30 26  2  0  0  0  0
 42 35  1  0  0  0  0
 50 43  1  0  0  0  0
 72 51  2  0  0  0  0
 84 77  1  0  0  0  0
 92 85  1  0  0  0  0
114 93  2  0  0  0  0
125120  1  0  0  0  0
137133  1  0  0  0  0
 23  7  1  0  0  0  0
 63 56  1  0  0  0  0
 71 64  1  0  0  0  0
105 98  1  0  0  0  0
113106  1  0  0  0  0
138122  1  0  0  0  0
  1139  1  0  0  0  0
  6140  1  0  0  0  0
  9141  1  0  0  0  0
 17142  1  0  0  0  0
 18143  1  0  0  0  0
 19144  1  0  0  0  0
 20145  1  0  0  0  0
 21146  1  0  0  0  0
 22147  1  0  0  0  0
 22148  1  0  0  0  0
 23149  1  0  0  0  0
 27150  1  0  0  0  0
 31151  1  0  0  0  0
 36152  1  0  0  0  0
 37153  1  0  0  0  0
 40154  1  0  0  0  0
 40155  1  0  0  0  0
 40156  1  0  0  0  0
 41157  1  0  0  0  0
 42158  1  0  0  0  0
 44159  1  0  0  0  0
 45160  1  0  0  0  0
 48161  1  0  0  0  0
 48162  1  0  0  0  0
 48163  1  0  0  0  0
 49164  1  0  0  0  0
 50165  1  0  0  0  0
 57166  1  0  0  0  0
 58167  1  0  0  0  0
 61168  1  0  0  0  0
 61169  1  0  0  0  0
 61170  1  0  0  0  0
 62171  1  0  0  0  0
 63172  1  0  0  0  0
 65173  1  0  0  0  0
 66174  1  0  0  0  0
 69175  1  0  0  0  0
 69176  1  0  0  0  0
 69177  1  0  0  0  0
 70178  1  0  0  0  0
 71179  1  0  0  0  0
 78180  1  0  0  0  0
 79181  1  0  0  0  0
 82182  1  0  0  0  0
 82183  1  0  0  0  0
 82184  1  0  0  0  0
 83185  1  0  0  0  0
 84186  1  0  0  0  0
 86187  1  0  0  0  0
 87188  1  0  0  0  0
 90189  1  0  0  0  0
 90190  1  0  0  0  0
 90191  1  0  0  0  0
 91192  1  0  0  0  0
 92193  1  0  0  0  0
 99194  1  0  0  0  0
100195  1  0  0  0  0
103196  1  0  0  0  0
103197  1  0  0  0  0
103198  1  0  0  0  0
104199  1  0  0  0  0
105200  1  0  0  0  0
107201  1  0  0  0  0
108202  1  0  0  0  0
111203  1  0  0  0  0
111204  1  0  0  0  0
111205  1  0  0  0  0
112206  1  0  0  0  0
113207  1  0  0  0  0
116208  1  0  0  0  0
121209  1  0  0  0  0
124210  1  0  0  0  0
132211  1  0  0  0  0
133212  1  0  0  0  0
134213  1  0  0  0  0
135214  1  0  0  0  0
136215  1  0  0  0  0
137216  1  0  0  0  0
137217  1  0  0  0  0
138218  1  0  0  0  0
M  END
