
  xtb     02152204053D
 energy: -295.396194161916 gnorm: 0.000565006449 xtb: 6.4.1 (unknown)
174193  0     0  0            999 V2000
   10.0205    3.5353   -0.1483 C   0  0  0  0  0  0  0  0  0  0  0  0
   11.1462    2.8669    0.2507 C   0  0  0  0  0  0  0  0  0  0  0  0
   11.2240    1.4455    0.6170 C   0  0  0  0  0  0  0  0  0  0  0  0
   10.3328    0.6164    0.5689 O   0  0  0  0  0  0  0  0  0  0  0  0
   12.6043    1.2116    1.0729 C   0  0  0  0  0  0  0  0  0  0  0  0
   13.1372    0.0161    1.5509 C   0  0  0  0  0  0  0  0  0  0  0  0
   14.4589    0.1003    1.9165 C   0  0  0  0  0  0  0  0  0  0  0  0
   15.1963    1.2879    1.8188 C   0  0  0  0  0  0  0  0  0  0  0  0
   14.6825    2.4738    1.3506 C   0  0  0  0  0  0  0  0  0  0  0  0
   13.3391    2.4097    0.9669 C   0  0  0  0  0  0  0  0  0  0  0  0
   12.4630    3.4503    0.4312 C   0  0  0  0  0  0  0  0  0  0  0  0
   12.8495    4.7307    0.1301 C   0  0  0  0  0  0  0  0  0  0  0  0
   12.0254    5.7391   -0.4128 C   0  0  0  0  0  0  0  0  0  0  0  0
   11.4353    6.6199   -0.8555 N   0  0  0  0  0  0  0  0  0  0  0  0
   14.1567    5.2334    0.3020 C   0  0  0  0  0  0  0  0  0  0  0  0
   15.1929    5.7165    0.4086 N   0  0  0  0  0  0  0  0  0  0  0  0
   16.4518    0.6471    2.3561 C   0  0  0  0  0  0  0  0  0  0  0  0
   17.5412    0.2925    1.3221 C   0  0  0  0  0  0  0  0  0  0  0  0
   18.4004   -0.7256    2.0367 C   0  0  0  0  0  0  0  0  0  0  0  0
   17.7026   -1.8507    2.1263 C   0  0  0  0  0  0  0  0  0  0  0  0
   16.3599   -1.6119    1.4741 C   0  0  0  0  0  0  0  0  0  0  0  0
   16.7744   -0.6327    0.3682 C   0  0  0  0  0  0  0  0  0  0  0  0
   15.6302   -0.6776    2.4628 C   0  0  0  0  0  0  0  0  0  0  0  0
    8.7114    3.0747   -0.3706 C   0  0  0  0  0  0  0  0  0  0  0  0
    8.1464    1.4131   -0.2444 S   0  0  0  0  0  0  0  0  0  0  0  0
    6.5622    1.9059   -0.7179 C   0  0  0  0  0  0  0  0  0  0  0  0
    5.3480    1.2480   -0.9007 C   0  0  0  0  0  0  0  0  0  0  0  0
    4.3268    2.1114   -1.2461 C   0  0  0  0  0  0  0  0  0  0  0  0
    4.8909    3.7729   -1.3821 S   0  0  0  0  0  0  0  0  0  0  0  0
    6.4854    3.2921   -0.9395 C   0  0  0  0  0  0  0  0  0  0  0  0
    7.6899    3.9451   -0.7531 C   0  0  0  0  0  0  0  0  0  0  0  0
    2.9332    1.7975   -1.4033 C   0  0  0  0  0  0  0  0  0  0  0  0
    2.0044    2.7619   -1.7802 C   0  0  0  0  0  0  0  0  0  0  0  0
    2.4067    3.9903   -2.1478 F   0  0  0  0  0  0  0  0  0  0  0  0
    0.6276    2.5470   -1.7568 C   0  0  0  0  0  0  0  0  0  0  0  0
   -0.1743    3.5650   -2.1153 F   0  0  0  0  0  0  0  0  0  0  0  0
    0.0757    1.3398   -1.3688 C   0  0  0  0  0  0  0  0  0  0  0  0
    0.9902    0.2747   -1.1461 C   0  0  0  0  0  0  0  0  0  0  0  0
    0.4931   -0.9444   -0.9052 N   0  0  0  0  0  0  0  0  0  0  0  0
    1.2979   -1.9441   -0.6381 C   0  0  0  0  0  0  0  0  0  0  0  0
    0.6329   -3.2674   -0.4097 C   0  0  0  0  0  0  0  0  0  0  0  0
    0.4787   -3.5600    1.0840 C   0  0  0  0  0  0  0  0  0  0  0  0
    2.6983   -1.7201   -0.5661 C   0  0  0  0  0  0  0  0  0  0  0  0
    3.1953   -0.5296   -0.8132 N   0  0  0  0  0  0  0  0  0  0  0  0
    2.3924    0.4982   -1.1259 C   0  0  0  0  0  0  0  0  0  0  0  0
    3.7022   -2.7777   -0.2101 C   0  0  0  0  0  0  0  0  0  0  0  0
    4.3312   -2.4998    1.1571 C   0  0  0  0  0  0  0  0  0  0  0  0
   -1.3294    1.1860   -1.1090 C   0  0  0  0  0  0  0  0  0  0  0  0
   -2.1333    2.0910   -0.4236 C   0  0  0  0  0  0  0  0  0  0  0  0
   -1.6754    3.2184    0.2307 N   0  0  0  0  0  0  0  0  0  0  0  0
   -2.4854    4.3593    0.2987 C   0  0  0  0  0  0  0  0  0  0  0  0
   -2.4756    5.1595    1.4370 C   0  0  0  0  0  0  0  0  0  0  0  0
   -3.2723    6.2847    1.5132 C   0  0  0  0  0  0  0  0  0  0  0  0
   -4.1004    6.6239    0.4512 C   0  0  0  0  0  0  0  0  0  0  0  0
   -5.1670    8.0289    0.4341 S   0  0  0  0  0  0  0  0  0  0  0  0
   -4.7928    8.8844    1.9914 C   0  0  0  0  0  0  0  0  0  0  0  0
   -4.1119    5.8241   -0.6903 C   0  0  0  0  0  0  0  0  0  0  0  0
   -3.3114    4.7075   -0.7703 C   0  0  0  0  0  0  0  0  0  0  0  0
   -0.3910    3.2216    0.7954 C   0  0  0  0  0  0  0  0  0  0  0  0
    0.4392    4.3376    0.6806 C   0  0  0  0  0  0  0  0  0  0  0  0
    1.7442    4.2811    1.1199 C   0  0  0  0  0  0  0  0  0  0  0  0
    2.2517    3.1126    1.6835 C   0  0  0  0  0  0  0  0  0  0  0  0
    3.9593    3.1106    2.1313 S   0  0  0  0  0  0  0  0  0  0  0  0
    4.3316    1.3478    2.3572 C   0  0  0  0  0  0  0  0  0  0  0  0
    1.4077    2.0241    1.8670 C   0  0  0  0  0  0  0  0  0  0  0  0
    0.0998    2.0825    1.4314 C   0  0  0  0  0  0  0  0  0  0  0  0
   -3.4723    1.6318   -0.3887 C   0  0  0  0  0  0  0  0  0  0  0  0
   -4.9559    2.2468    0.2470 S   0  0  0  0  0  0  0  0  0  0  0  0
   -5.8127    0.7951   -0.2560 C   0  0  0  0  0  0  0  0  0  0  0  0
   -4.9719   -0.1139   -0.8981 C   0  0  0  0  0  0  0  0  0  0  0  0
   -5.3665   -1.2480   -1.5915 N   0  0  0  0  0  0  0  0  0  0  0  0
   -5.9396   -2.3481   -0.9262 C   0  0  0  0  0  0  0  0  0  0  0  0
   -7.1509   -2.8818   -1.3601 C   0  0  0  0  0  0  0  0  0  0  0  0
   -7.7121   -3.9458   -0.6910 C   0  0  0  0  0  0  0  0  0  0  0  0
   -7.0648   -4.5071    0.4103 C   0  0  0  0  0  0  0  0  0  0  0  0
   -7.8905   -5.8595    1.1876 S   0  0  0  0  0  0  0  0  0  0  0  0
   -6.7916   -6.3187    2.5579 C   0  0  0  0  0  0  0  0  0  0  0  0
   -5.8476   -3.9923    0.8287 C   0  0  0  0  0  0  0  0  0  0  0  0
   -5.2921   -2.9125    0.1657 C   0  0  0  0  0  0  0  0  0  0  0  0
   -5.0411   -1.3484   -2.9453 C   0  0  0  0  0  0  0  0  0  0  0  0
   -4.8458   -2.5924   -3.5407 C   0  0  0  0  0  0  0  0  0  0  0  0
   -4.5324   -2.6935   -4.8819 C   0  0  0  0  0  0  0  0  0  0  0  0
   -4.3996   -1.5488   -5.6554 C   0  0  0  0  0  0  0  0  0  0  0  0
   -3.9858   -1.5507   -7.3713 S   0  0  0  0  0  0  0  0  0  0  0  0
   -4.0534   -3.3050   -7.8349 C   0  0  0  0  0  0  0  0  0  0  0  0
   -4.5938   -0.3014   -5.0647 C   0  0  0  0  0  0  0  0  0  0  0  0
   -4.9161   -0.2001   -3.7315 C   0  0  0  0  0  0  0  0  0  0  0  0
   -3.6505    0.3888   -0.9750 C   0  0  0  0  0  0  0  0  0  0  0  0
   -2.1679   -0.2734   -1.5719 S   0  0  0  0  0  0  0  0  0  0  0  0
   -7.2324    0.8018   -0.1989 C   0  0  0  0  0  0  0  0  0  0  0  0
   -8.0208   -0.2105    0.2612 C   0  0  0  0  0  0  0  0  0  0  0  0
   -7.5859   -1.1724    1.2966 C   0  0  0  0  0  0  0  0  0  0  0  0
   -6.4732   -1.2829    1.7708 O   0  0  0  0  0  0  0  0  0  0  0  0
   -8.8108   -1.8675    1.7319 C   0  0  0  0  0  0  0  0  0  0  0  0
   -8.9149   -2.8467    2.7171 C   0  0  0  0  0  0  0  0  0  0  0  0
  -10.1901   -3.3221    2.9069 C   0  0  0  0  0  0  0  0  0  0  0  0
  -11.2919   -2.8387    2.1888 C   0  0  0  0  0  0  0  0  0  0  0  0
  -11.2084   -1.8642    1.2232 C   0  0  0  0  0  0  0  0  0  0  0  0
   -9.9150   -1.3830    1.0013 C   0  0  0  0  0  0  0  0  0  0  0  0
   -9.4426   -0.3739    0.0611 C   0  0  0  0  0  0  0  0  0  0  0  0
  -10.1717    0.2254   -0.9334 C   0  0  0  0  0  0  0  0  0  0  0  0
   -9.6072    1.0820   -1.9017 C   0  0  0  0  0  0  0  0  0  0  0  0
   -9.1973    1.7550   -2.7370 N   0  0  0  0  0  0  0  0  0  0  0  0
  -11.5494    0.0235   -1.1472 C   0  0  0  0  0  0  0  0  0  0  0  0
  -12.6704   -0.0978   -1.3645 N   0  0  0  0  0  0  0  0  0  0  0  0
  -12.2611   -3.7428    2.9090 C   0  0  0  0  0  0  0  0  0  0  0  0
  -12.7549   -4.9821    2.1340 C   0  0  0  0  0  0  0  0  0  0  0  0
  -13.2720   -5.9039    3.2144 C   0  0  0  0  0  0  0  0  0  0  0  0
  -12.2242   -6.3712    3.8812 C   0  0  0  0  0  0  0  0  0  0  0  0
  -10.9820   -5.7719    3.2630 C   0  0  0  0  0  0  0  0  0  0  0  0
  -11.4320   -5.6818    1.7998 C   0  0  0  0  0  0  0  0  0  0  0  0
  -11.0305   -4.2921    3.6998 C   0  0  0  0  0  0  0  0  0  0  0  0
   10.1228    4.5992   -0.3256 H   0  0  0  0  0  0  0  0  0  0  0  0
   12.5305   -0.8735    1.6156 H   0  0  0  0  0  0  0  0  0  0  0  0
   15.2625    3.3791    1.2895 H   0  0  0  0  0  0  0  0  0  0  0  0
   16.8554    1.0850    3.2669 H   0  0  0  0  0  0  0  0  0  0  0  0
   18.0528    1.1474    0.8887 H   0  0  0  0  0  0  0  0  0  0  0  0
   19.3734   -0.5130    2.4389 H   0  0  0  0  0  0  0  0  0  0  0  0
   17.9762   -2.7655    2.6186 H   0  0  0  0  0  0  0  0  0  0  0  0
   15.7957   -2.4924    1.1786 H   0  0  0  0  0  0  0  0  0  0  0  0
   15.9380   -0.1539   -0.1375 H   0  0  0  0  0  0  0  0  0  0  0  0
   17.4278   -1.0968   -0.3686 H   0  0  0  0  0  0  0  0  0  0  0  0
   15.4877   -1.1248    3.4449 H   0  0  0  0  0  0  0  0  0  0  0  0
    5.1972    0.1919   -0.7909 H   0  0  0  0  0  0  0  0  0  0  0  0
    7.8449    5.0011   -0.8815 H   0  0  0  0  0  0  0  0  0  0  0  0
    1.1999   -4.0661   -0.8906 H   0  0  0  0  0  0  0  0  0  0  0  0
   -0.3560   -3.2150   -0.8673 H   0  0  0  0  0  0  0  0  0  0  0  0
   -0.0981   -2.7704    1.5596 H   0  0  0  0  0  0  0  0  0  0  0  0
   -0.0433   -4.5031    1.2254 H   0  0  0  0  0  0  0  0  0  0  0  0
    1.4472   -3.6255    1.5736 H   0  0  0  0  0  0  0  0  0  0  0  0
    4.4914   -2.7651   -0.9647 H   0  0  0  0  0  0  0  0  0  0  0  0
    3.2387   -3.7627   -0.2099 H   0  0  0  0  0  0  0  0  0  0  0  0
    3.5706   -2.4736    1.9351 H   0  0  0  0  0  0  0  0  0  0  0  0
    5.0495   -3.2780    1.4016 H   0  0  0  0  0  0  0  0  0  0  0  0
    4.8467   -1.5433    1.1480 H   0  0  0  0  0  0  0  0  0  0  0  0
   -1.8400    4.8960    2.2695 H   0  0  0  0  0  0  0  0  0  0  0  0
   -3.2419    6.8814    2.4103 H   0  0  0  0  0  0  0  0  0  0  0  0
   -3.7408    9.1521    2.0235 H   0  0  0  0  0  0  0  0  0  0  0  0
   -5.0696    8.2612    2.8368 H   0  0  0  0  0  0  0  0  0  0  0  0
   -5.4015    9.7832    1.9831 H   0  0  0  0  0  0  0  0  0  0  0  0
   -4.7491    6.0984   -1.5166 H   0  0  0  0  0  0  0  0  0  0  0  0
   -3.3022    4.1118   -1.6700 H   0  0  0  0  0  0  0  0  0  0  0  0
    0.0659    5.2319    0.2055 H   0  0  0  0  0  0  0  0  0  0  0  0
    2.3958    5.1325    0.9988 H   0  0  0  0  0  0  0  0  0  0  0  0
    5.4143    1.2790    2.3984 H   0  0  0  0  0  0  0  0  0  0  0  0
    3.9566    0.7891    1.5050 H   0  0  0  0  0  0  0  0  0  0  0  0
    3.9054    0.9875    3.2894 H   0  0  0  0  0  0  0  0  0  0  0  0
    1.7573    1.1252    2.3492 H   0  0  0  0  0  0  0  0  0  0  0  0
   -0.5453    1.2269    1.5675 H   0  0  0  0  0  0  0  0  0  0  0  0
   -7.6487   -2.4450   -2.2136 H   0  0  0  0  0  0  0  0  0  0  0  0
   -8.6606   -4.3536   -1.0071 H   0  0  0  0  0  0  0  0  0  0  0  0
   -5.8279   -6.6376    2.1719 H   0  0  0  0  0  0  0  0  0  0  0  0
   -7.2787   -7.1507    3.0571 H   0  0  0  0  0  0  0  0  0  0  0  0
   -6.6848   -5.4856    3.2463 H   0  0  0  0  0  0  0  0  0  0  0  0
   -5.3249   -4.4064    1.6749 H   0  0  0  0  0  0  0  0  0  0  0  0
   -4.3526   -2.4999    0.4989 H   0  0  0  0  0  0  0  0  0  0  0  0
   -4.9346   -3.4899   -2.9470 H   0  0  0  0  0  0  0  0  0  0  0  0
   -4.3845   -3.6736   -5.3059 H   0  0  0  0  0  0  0  0  0  0  0  0
   -3.8999   -3.3288   -8.9092 H   0  0  0  0  0  0  0  0  0  0  0  0
   -3.2599   -3.8562   -7.3384 H   0  0  0  0  0  0  0  0  0  0  0  0
   -5.0303   -3.7122   -7.5920 H   0  0  0  0  0  0  0  0  0  0  0  0
   -4.5006    0.5865   -5.6705 H   0  0  0  0  0  0  0  0  0  0  0  0
   -5.0900    0.7722   -3.2967 H   0  0  0  0  0  0  0  0  0  0  0  0
   -7.6998    1.7175   -0.5452 H   0  0  0  0  0  0  0  0  0  0  0  0
   -8.0442   -3.1729    3.2640 H   0  0  0  0  0  0  0  0  0  0  0  0
  -12.0649   -1.4894    0.6874 H   0  0  0  0  0  0  0  0  0  0  0  0
  -13.0528   -3.2414    3.4626 H   0  0  0  0  0  0  0  0  0  0  0  0
  -13.4305   -4.7643    1.3113 H   0  0  0  0  0  0  0  0  0  0  0  0
  -14.3145   -6.0726    3.4115 H   0  0  0  0  0  0  0  0  0  0  0  0
  -12.2178   -7.0076    4.7469 H   0  0  0  0  0  0  0  0  0  0  0  0
  -10.0413   -6.2764    3.4631 H   0  0  0  0  0  0  0  0  0  0  0  0
  -11.5822   -6.6643    1.3564 H   0  0  0  0  0  0  0  0  0  0  0  0
  -10.7645   -5.0989    1.1694 H   0  0  0  0  0  0  0  0  0  0  0  0
  -11.0075   -4.1671    4.7811 H   0  0  0  0  0  0  0  0  0  0  0  0
  1  2  2  0  0  0  0
  2  3  1  0  0  0  0
  3  4  2  0  0  0  0
  3  5  1  0  0  0  0
  5  6  2  0  0  0  0
  6  7  1  0  0  0  0
  7  8  2  0  0  0  0
  8  9  1  0  0  0  0
  9 10  2  0  0  0  0
 10 11  1  0  0  0  0
 11 12  2  0  0  0  0
 12 13  1  0  0  0  0
 13 14  3  0  0  0  0
 12 15  1  0  0  0  0
 15 16  3  0  0  0  0
  8 17  1  0  0  0  0
 17 18  1  0  0  0  0
 18 19  1  0  0  0  0
 19 20  2  0  0  0  0
 20 21  1  0  0  0  0
 21 22  1  0  0  0  0
 21 23  1  0  0  0  0
  1 24  1  0  0  0  0
 24 25  1  0  0  0  0
 25 26  1  0  0  0  0
 26 27  1  0  0  0  0
 27 28  2  0  0  0  0
 28 29  1  0  0  0  0
 29 30  1  0  0  0  0
 30 31  1  0  0  0  0
 28 32  1  0  0  0  0
 32 33  2  0  0  0  0
 33 34  1  0  0  0  0
 33 35  1  0  0  0  0
 35 36  1  0  0  0  0
 35 37  2  0  0  0  0
 37 38  1  0  0  0  0
 38 39  2  0  0  0  0
 39 40  1  0  0  0  0
 40 41  1  0  0  0  0
 41 42  1  0  0  0  0
 40 43  2  0  0  0  0
 43 44  1  0  0  0  0
 44 45  2  0  0  0  0
 43 46  1  0  0  0  0
 46 47  1  0  0  0  0
 37 48  1  0  0  0  0
 48 49  2  0  0  0  0
 49 50  1  0  0  0  0
 50 51  1  0  0  0  0
 51 52  2  0  0  0  0
 52 53  1  0  0  0  0
 53 54  2  0  0  0  0
 54 55  1  0  0  0  0
 55 56  1  0  0  0  0
 54 57  1  0  0  0  0
 57 58  2  0  0  0  0
 50 59  1  0  0  0  0
 59 60  2  0  0  0  0
 60 61  1  0  0  0  0
 61 62  2  0  0  0  0
 62 63  1  0  0  0  0
 63 64  1  0  0  0  0
 62 65  1  0  0  0  0
 65 66  2  0  0  0  0
 49 67  1  0  0  0  0
 67 68  1  0  0  0  0
 68 69  1  0  0  0  0
 69 70  2  0  0  0  0
 70 71  1  0  0  0  0
 71 72  1  0  0  0  0
 72 73  2  0  0  0  0
 73 74  1  0  0  0  0
 74 75  2  0  0  0  0
 75 76  1  0  0  0  0
 76 77  1  0  0  0  0
 75 78  1  0  0  0  0
 78 79  2  0  0  0  0
 71 80  1  0  0  0  0
 80 81  2  0  0  0  0
 81 82  1  0  0  0  0
 82 83  2  0  0  0  0
 83 84  1  0  0  0  0
 84 85  1  0  0  0  0
 83 86  1  0  0  0  0
 86 87  2  0  0  0  0
 70 88  1  0  0  0  0
 88 89  1  0  0  0  0
 69 90  1  0  0  0  0
 90 91  2  0  0  0  0
 91 92  1  0  0  0  0
 92 93  2  0  0  0  0
 92 94  1  0  0  0  0
 94 95  2  0  0  0  0
 95 96  1  0  0  0  0
 96 97  2  0  0  0  0
 97 98  1  0  0  0  0
 98 99  2  0  0  0  0
 99100  1  0  0  0  0
100101  2  0  0  0  0
101102  1  0  0  0  0
102103  3  0  0  0  0
101104  1  0  0  0  0
104105  3  0  0  0  0
 97106  1  0  0  0  0
106107  1  0  0  0  0
107108  1  0  0  0  0
108109  2  0  0  0  0
109110  1  0  0  0  0
110111  1  0  0  0  0
110112  1  0  0  0  0
 11  2  1  0  0  0  0
 23 17  1  0  0  0  0
 31 24  2  0  0  0  0
 45 32  1  0  0  0  0
 89 48  1  0  0  0  0
100 91  1  0  0  0  0
112106  1  0  0  0  0
 10  5  1  0  0  0  0
 22 18  1  0  0  0  0
 30 26  2  0  0  0  0
 45 38  1  0  0  0  0
 58 51  1  0  0  0  0
 66 59  1  0  0  0  0
 88 67  2  0  0  0  0
 99 94  1  0  0  0  0
111107  1  0  0  0  0
 23  7  1  0  0  0  0
 79 72  1  0  0  0  0
 87 80  1  0  0  0  0
112 96  1  0  0  0  0
  1113  1  0  0  0  0
  6114  1  0  0  0  0
  9115  1  0  0  0  0
 17116  1  0  0  0  0
 18117  1  0  0  0  0
 19118  1  0  0  0  0
 20119  1  0  0  0  0
 21120  1  0  0  0  0
 22121  1  0  0  0  0
 22122  1  0  0  0  0
 23123  1  0  0  0  0
 27124  1  0  0  0  0
 31125  1  0  0  0  0
 41126  1  0  0  0  0
 41127  1  0  0  0  0
 42128  1  0  0  0  0
 42129  1  0  0  0  0
 42130  1  0  0  0  0
 46131  1  0  0  0  0
 46132  1  0  0  0  0
 47133  1  0  0  0  0
 47134  1  0  0  0  0
 47135  1  0  0  0  0
 52136  1  0  0  0  0
 53137  1  0  0  0  0
 56138  1  0  0  0  0
 56139  1  0  0  0  0
 56140  1  0  0  0  0
 57141  1  0  0  0  0
 58142  1  0  0  0  0
 60143  1  0  0  0  0
 61144  1  0  0  0  0
 64145  1  0  0  0  0
 64146  1  0  0  0  0
 64147  1  0  0  0  0
 65148  1  0  0  0  0
 66149  1  0  0  0  0
 73150  1  0  0  0  0
 74151  1  0  0  0  0
 77152  1  0  0  0  0
 77153  1  0  0  0  0
 77154  1  0  0  0  0
 78155  1  0  0  0  0
 79156  1  0  0  0  0
 81157  1  0  0  0  0
 82158  1  0  0  0  0
 85159  1  0  0  0  0
 85160  1  0  0  0  0
 85161  1  0  0  0  0
 86162  1  0  0  0  0
 87163  1  0  0  0  0
 90164  1  0  0  0  0
 95165  1  0  0  0  0
 98166  1  0  0  0  0
106167  1  0  0  0  0
107168  1  0  0  0  0
108169  1  0  0  0  0
109170  1  0  0  0  0
110171  1  0  0  0  0
111172  1  0  0  0  0
111173  1  0  0  0  0
112174  1  0  0  0  0
M  END
