258

C         -4.23620       -9.37180       -1.50320
C         -3.82760       -9.93290       -2.68090
C         -2.75230       -9.44030       -3.57790
O         -2.04910       -8.45610       -3.45360
C         -2.61350      -10.45140       -4.63780
C         -1.74280      -10.39260       -5.72510
C         -1.83610      -11.46900       -6.57220
C         -2.72260      -12.53190       -6.34860
C         -3.58340      -12.60250       -5.27940
C         -3.51110      -11.51140       -4.40640
C         -4.27460      -11.21690       -3.19610
C         -5.28330      -11.99530       -2.69070
C         -5.68400      -13.23450       -3.23370
N         -6.06180      -14.25120       -3.61070
C         -6.08710      -11.68750       -1.57210
N         -6.80180      -11.51500       -0.68960
C         -2.27970      -13.26630       -7.58980
C         -1.32650      -14.46230       -7.38260
C         -0.70090      -14.66520       -8.74370
C          0.13510      -13.65730       -8.95810
C          0.08870      -12.75610       -7.74540
C         -0.15240      -13.80140       -6.64870
C         -1.29500      -12.07930       -7.84080
C         -3.96810       -8.06500       -1.03360
C         -3.61810       -6.94230       -1.74120
C         -3.41910       -5.80550       -0.93920
C         -2.94680       -4.54250       -1.35190
C         -2.46870       -4.28210       -2.68990
C         -2.47640       -3.10060       -3.38400
C         -1.73560       -3.18310       -4.57690
Cl        -1.55630       -1.85210       -5.64730
C         -1.14760       -4.39350       -4.81640
Si         0.03980       -4.90150       -6.19450
C         -0.90950       -4.85270       -7.85410
C         -0.00100       -4.77840       -9.07700
C          0.61150       -6.66300       -5.70440
C          1.17830       -7.48950       -6.85380
C          1.50940       -3.67050       -6.18250
C          1.94730       -3.25020       -4.78170
S         -1.54460       -5.48230       -3.54420
C         -2.78670       -3.59440       -0.35250
C         -3.01830       -3.84530        1.02280
C         -3.48670       -5.10910        1.43090
C         -3.69800       -5.43960        2.82670
S         -5.11890       -6.30990        3.32130
C         -4.63980       -6.31670        4.97940
Si        -5.64850       -7.22510        6.29880
C         -4.58740       -8.71310        6.86780
C         -4.04510       -9.53860        5.70410
C         -7.25350       -7.82900        5.45490
C         -8.23540       -6.70760        5.12620
C         -6.02070       -6.03050        7.74320
C         -6.86170       -6.68050        8.83700
C         -3.43640       -5.68240        5.10060
C         -2.89780       -5.17470        3.90250
Cl        -2.62810       -5.52260        6.60690
C         -3.68880       -6.05650        0.43080
S         -4.15830       -7.71140        0.67920
C         -2.58050       -2.76200        1.83290
C         -1.96980       -1.77500        1.12580
S         -2.08580       -2.02980       -0.60690
C         -1.15500       -0.66890        1.53780
C          0.10800       -0.42380        1.01940
N          0.82390       -1.29330        0.21110
C          1.58910       -0.76670       -0.84020
C          2.81720       -1.33460       -1.16430
C          3.56900       -0.83930       -2.21080
C          3.10640        0.24310       -2.94700
S          3.97120        0.95740       -4.31040
C          5.49620       -0.02110       -4.42560
C          1.88110        0.82010       -2.62010
C          1.12730        0.31980       -1.58230
C          0.69100       -2.68410        0.34190
C          0.52590       -3.27220        1.59620
C          0.27660       -4.62260        1.70400
C          0.18800       -5.42210        0.56680
S         -0.27230       -7.10650        0.81650
C         -0.11390       -7.86550       -0.82350
C          0.42910       -4.85680       -0.67770
C          0.67510       -3.50300       -0.78650
C          0.59970        0.82570        1.47310
S          2.00180        1.77580        1.10890
C          1.40850        3.05370        2.13610
C          0.17950        2.77530        2.70170
N         -0.56940        3.72470        3.39970
C         -0.94360        3.47090        4.71620
C         -2.01940        4.14150        5.30240
C         -2.34280        3.91370        6.62060
C         -1.61910        2.99860        7.38320
S         -2.09610        2.82600        9.07800
C         -0.78960        1.78390        9.79060
C         -0.58210        2.29210        6.79170
C         -0.24540        2.53250        5.47400
C         -0.70270        4.98350        2.78520
C         -0.89440        5.03860        1.40600
C         -0.92710        6.24590        0.73700
C         -0.76350        7.43240        1.43860
S         -0.70920        9.03150        0.69780
C         -1.15210        8.73930       -1.03850
C         -0.60820        7.38700        2.82280
C         -0.58860        6.18240        3.48980
C         -0.26550        1.48470        2.33470
S         -1.69490        0.56840        2.65400
C          2.08020        4.31780        2.30650
C          2.51100        5.23670        1.39700
C          2.82780        6.41050        2.13470
C          3.22250        7.70140        1.76160
C          3.35230        8.20860        0.39430
C          4.33010        9.15420        0.08670
C          4.38020        9.73550       -1.16340
C          3.46350        9.39160       -2.14840
C          3.53050       10.02210       -3.50850
C          4.46930        9.23220       -4.42260
C          2.51150        8.42450       -1.85260
C          2.44910        7.84320       -0.60120
C          3.38120        8.55970        2.83990
C          3.19630        8.22470        4.20670
C          2.82070        6.91960        4.58220
C          2.65910        6.50220        5.97490
C          1.69760        5.56210        6.34480
C          1.53270        5.20000        7.66550
C          2.33280        5.74170        8.66320
C          2.16950        5.30640       10.09020
C          3.00250        4.05180       10.36280
C          3.32170        6.64510        8.29270
C          3.48280        7.02310        6.97440
C          2.60740        6.07200        3.49840
O          2.15600        4.79750        3.57740
C          3.36980        9.44820        4.90850
C          3.62320       10.41690        3.96570
O          3.65830        9.87240        2.71840
C          3.86000       11.81930        4.04230
C          3.77660       12.64750        2.96750
C          4.52280       13.93500        2.90670
O          4.98270       14.55710        3.83640
C          4.64570       14.23400        1.46360
C          5.40650       15.23930        0.86860
C          5.35520       15.24450       -0.50500
C          4.59760       14.32320       -1.24210
C          3.83650       13.33160       -0.67270
C          3.88100       13.30720        0.72300
C          3.20030       12.41680        1.65350
C          2.07170       11.68860        1.38680
C          1.32920       11.06420        2.41180
N          0.70960       10.60220        3.26020
C          1.50520       11.55130        0.10550
N          1.02310       11.41050       -0.92730
C          5.02130       14.90930       -2.56500
C          6.09180       14.14680       -3.38420
C          6.91320       13.36340       -2.39100
C          7.63490       14.22820       -1.69090
C          7.31690       15.61230       -2.20020
C          7.06020       15.30200       -3.68390
C          5.87070       15.93160       -1.74580
H         -4.82340       -9.98060       -0.82710
H         -1.07910       -9.55280       -5.85850
H         -4.25970      -13.42650       -5.12680
H         -3.05670      -13.46430       -8.32550
H         -1.78250      -15.33240       -6.91850
H         -0.96380      -15.46430       -9.41150
H          0.70980      -13.44620       -9.84080
H          0.92230      -12.07160       -7.61200
H         -0.41570      -13.37730       -5.68140
H          0.69250      -14.47790       -6.53190
H         -1.41650      -11.48390       -8.74380
H         -3.53650       -6.93070       -2.81010
H         -3.01160       -2.22010       -3.07950
H         -1.57620       -3.98960       -7.86320
H         -1.54800       -5.73370       -7.93640
H          0.61320       -3.88260       -9.04270
H          0.65950       -5.63990       -9.12480
H         -0.59030       -4.75090       -9.99190
H          1.36880       -6.58960       -4.92160
H         -0.22690       -7.20120       -5.25780
H          1.50860       -8.46610       -6.50200
H          2.03190       -6.98880       -7.30500
H          0.42690       -7.64300       -7.62470
H          1.24120       -2.77450       -6.74270
H          2.35910       -4.11640       -6.70180
H          1.13960       -2.73330       -4.26890
H          2.79720       -2.57190       -4.83090
H          2.23270       -4.11320       -4.18400
H         -5.17920       -9.36010        7.51600
H         -3.74950       -8.35750        7.46830
H         -3.44810      -10.37260        6.06850
H         -4.85750       -9.93820        5.10260
H         -3.41710       -8.92660        5.06080
H         -7.00250       -8.35220        4.53110
H         -7.75140       -8.55710        6.09640
H         -9.11860       -7.10490        4.62950
H         -8.55590       -6.19610        6.03020
H         -7.77500       -5.97740        4.46530
H         -6.54300       -5.14950        7.36760
H         -5.09070       -5.67110        8.18290
H         -6.34090       -7.53450        9.26240
H         -7.06620       -5.97310        9.63870
H         -7.81210       -7.02700        8.43930
H         -1.94350       -4.68620        3.84110
H         -2.65350       -2.74930        2.90430
H          3.18190       -2.17450       -0.59190
H          4.51490       -1.30490       -2.43510
H          6.07160        0.07770       -3.50970
H          5.25920       -1.06060       -4.63350
H          6.05180        0.40200       -5.25660
H          1.52400        1.65680       -3.20040
H          0.16700        0.75570       -1.35060
H          0.57960       -2.66020        2.48440
H          0.13890       -5.07800        2.67240
H         -0.31100       -8.92240       -0.67030
H         -0.84420       -7.45750       -1.51660
H          0.89840       -7.73200       -1.19270
H          0.39750       -5.45450       -1.57360
H          0.81840       -3.06750       -1.76400
H         -2.59340        4.84480        4.71910
H         -3.16360        4.44420        7.07840
H         -0.99790        1.74260       10.85520
H         -0.83380        0.78360        9.36960
H          0.18160        2.24050        9.62270
H         -0.01490        1.56160        7.34600
H          0.58600        2.00090        5.03530
H         -1.00900        4.12100        0.84720
H         -1.07830        6.24490       -0.33070
H         -2.15970        8.33920       -1.10270
H         -1.10100        9.71760       -1.50590
H         -0.42950        8.07740       -1.50370
H         -0.48250        8.31210        3.36380
H         -0.46540        6.17610        4.56110
H          2.57050        5.09430        0.33810
H          5.05890        9.43350        0.83240
H          5.13690       10.47920       -1.37350
H          3.89490       11.04830       -3.42060
H          2.53290       10.05180       -3.95000
H          5.47390        9.20900       -4.00530
H          4.12110        8.20720       -4.52830
H          4.51340        9.68720       -5.40960
H          1.79900        8.13920       -2.61390
H          1.67480        7.12700       -0.37110
H          1.06730        5.11300        5.59710
H          0.76170        4.48810        7.92250
H          2.48960        6.10380       10.76350
H          1.11730        5.09200       10.29000
H          2.86720        3.71810       11.38910
H          4.05830        4.25640       10.20000
H          2.70730        3.24740        9.69210
H          3.97360        7.05950        9.04920
H          4.27760        7.70380        6.70950
H          3.25740        9.61680        5.95960
H          4.22650       12.22390        4.97590
H          5.97470       15.93380        1.46760
H          3.26300       12.61730       -1.24020
H          4.22000       15.29880       -3.19000
H          5.70070       13.58900       -4.23130
H          6.84870       12.29820       -2.26590
H          8.28930       14.03050       -0.86220
H          8.04390       16.38650       -1.96960
H          6.59790       16.12590       -4.22580
H          7.95750       14.97500       -4.20730
H          5.63010       16.98840       -1.84340
