
  xtb     02062211503D
 energy: -311.647814208648 gnorm: 0.000966122564 xtb: 6.4.1 (unknown)
182201  0     0  0            999 V2000
   -2.5993   -7.1561   -2.0213 C   0  0  0  0  0  0  0  0  0  0  0  0
   -2.2498   -7.8444   -3.1304 C   0  0  0  0  0  0  0  0  0  0  0  0
   -1.1912   -7.4071   -4.0848 C   0  0  0  0  0  0  0  0  0  0  0  0
   -0.3860   -6.5138   -3.9171 O   0  0  0  0  0  0  0  0  0  0  0  0
   -1.2128   -8.3779   -5.1843 C   0  0  0  0  0  0  0  0  0  0  0  0
   -0.4505   -8.3379   -6.3508 C   0  0  0  0  0  0  0  0  0  0  0  0
   -0.6503   -9.4101   -7.1850 C   0  0  0  0  0  0  0  0  0  0  0  0
   -1.5428  -10.4493   -6.8841 C   0  0  0  0  0  0  0  0  0  0  0  0
   -2.3090  -10.4954   -5.7445 C   0  0  0  0  0  0  0  0  0  0  0  0
   -2.1221   -9.4135   -4.8775 C   0  0  0  0  0  0  0  0  0  0  0  0
   -2.7607   -9.1239   -3.5983 C   0  0  0  0  0  0  0  0  0  0  0  0
   -3.7053   -9.8964   -2.9789 C   0  0  0  0  0  0  0  0  0  0  0  0
   -4.3513   -9.5778   -1.7646 C   0  0  0  0  0  0  0  0  0  0  0  0
   -4.9263   -9.3978   -0.7874 N   0  0  0  0  0  0  0  0  0  0  0  0
   -4.1738  -11.1351   -3.4671 C   0  0  0  0  0  0  0  0  0  0  0  0
   -4.5985  -12.1491   -3.7975 N   0  0  0  0  0  0  0  0  0  0  0  0
   -1.2166  -11.2020   -8.1493 C   0  0  0  0  0  0  0  0  0  0  0  0
   -0.2801  -12.4307   -8.0327 C   0  0  0  0  0  0  0  0  0  0  0  0
    0.5855  -12.1975   -6.8193 C   0  0  0  0  0  0  0  0  0  0  0  0
    1.4271  -11.2133   -7.1059 C   0  0  0  0  0  0  0  0  0  0  0  0
    1.1458  -10.7628   -8.5182 C   0  0  0  0  0  0  0  0  0  0  0  0
    0.7234  -12.0993   -9.1489 C   0  0  0  0  0  0  0  0  0  0  0  0
   -0.2257  -10.0432   -8.4858 C   0  0  0  0  0  0  0  0  0  0  0  0
   -2.1805   -5.8043   -1.7512 C   0  0  0  0  0  0  0  0  0  0  0  0
   -2.0261   -5.4490   -0.4595 N   0  0  0  0  0  0  0  0  0  0  0  0
   -1.5907   -4.3109   -0.1127 N   0  0  0  0  0  0  0  0  0  0  0  0
   -1.2741   -3.3359   -0.9941 C   0  0  0  0  0  0  0  0  0  0  0  0
   -1.6904   -3.5206   -2.3280 C   0  0  0  0  0  0  0  0  0  0  0  0
   -2.0189   -2.5815   -3.4162 C   0  0  0  0  0  0  0  0  0  0  0  0
   -2.0352   -1.3743   -3.4167 O   0  0  0  0  0  0  0  0  0  0  0  0
   -2.4380   -3.3829   -4.4740 N   0  0  0  0  0  0  0  0  0  0  0  0
   -2.8692   -2.8515   -5.7487 C   0  0  0  0  0  0  0  0  0  0  0  0
   -4.3430   -2.4622   -5.7242 C   0  0  0  0  0  0  0  0  0  0  0  0
   -2.5718   -4.7097   -4.1241 C   0  0  0  0  0  0  0  0  0  0  0  0
   -2.9989   -5.5783   -4.8453 O   0  0  0  0  0  0  0  0  0  0  0  0
   -2.1023   -4.7914   -2.7129 C   0  0  0  0  0  0  0  0  0  0  0  0
   -0.6415   -2.1938   -0.4511 C   0  0  0  0  0  0  0  0  0  0  0  0
    0.0709   -1.1569   -1.0622 C   0  0  0  0  0  0  0  0  0  0  0  0
    0.4624   -1.0705   -2.3747 N   0  0  0  0  0  0  0  0  0  0  0  0
    0.6881    0.2292   -2.8773 C   0  0  0  0  0  0  0  0  0  0  0  0
    1.8901    0.5580   -3.5002 C   0  0  0  0  0  0  0  0  0  0  0  0
    2.1603    1.8712   -3.8181 C   0  0  0  0  0  0  0  0  0  0  0  0
    1.2445    2.8747   -3.5066 C   0  0  0  0  0  0  0  0  0  0  0  0
    1.7494    4.5449   -3.7667 S   0  0  0  0  0  0  0  0  0  0  0  0
    0.6624    5.4784   -2.6515 C   0  0  0  0  0  0  0  0  0  0  0  0
    0.0016    2.5325   -2.9905 C   0  0  0  0  0  0  0  0  0  0  0  0
   -0.2742    1.2156   -2.6834 C   0  0  0  0  0  0  0  0  0  0  0  0
    0.7951   -2.1722   -3.1655 C   0  0  0  0  0  0  0  0  0  0  0  0
    0.6507   -2.0862   -4.5540 C   0  0  0  0  0  0  0  0  0  0  0  0
    1.0170   -3.1374   -5.3611 C   0  0  0  0  0  0  0  0  0  0  0  0
    1.5450   -4.3039   -4.8089 C   0  0  0  0  0  0  0  0  0  0  0  0
    2.0250   -5.5573   -5.9421 S   0  0  0  0  0  0  0  0  0  0  0  0
    2.6346   -6.8999   -4.8866 C   0  0  0  0  0  0  0  0  0  0  0  0
    1.6870   -4.3985   -3.4308 C   0  0  0  0  0  0  0  0  0  0  0  0
    1.3129   -3.3459   -2.6203 C   0  0  0  0  0  0  0  0  0  0  0  0
    0.3996   -0.1643   -0.1039 C   0  0  0  0  0  0  0  0  0  0  0  0
    1.2985    1.3199   -0.1835 S   0  0  0  0  0  0  0  0  0  0  0  0
    0.9392    1.6266    1.4995 C   0  0  0  0  0  0  0  0  0  0  0  0
    0.3535    0.5303    2.1391 C   0  0  0  0  0  0  0  0  0  0  0  0
    0.2512    0.3860    3.5019 N   0  0  0  0  0  0  0  0  0  0  0  0
    1.1975    0.9940    4.3446 C   0  0  0  0  0  0  0  0  0  0  0  0
    2.5396    1.0744    3.9692 C   0  0  0  0  0  0  0  0  0  0  0  0
    3.4400    1.7576    4.7532 C   0  0  0  0  0  0  0  0  0  0  0  0
    3.0288    2.3673    5.9382 C   0  0  0  0  0  0  0  0  0  0  0  0
    4.2577    3.2669    6.8271 S   0  0  0  0  0  0  0  0  0  0  0  0
    3.3133    4.1363    8.1104 C   0  0  0  0  0  0  0  0  0  0  0  0
    1.7085    2.2356    6.3469 C   0  0  0  0  0  0  0  0  0  0  0  0
    0.8036    1.5545    5.5561 C   0  0  0  0  0  0  0  0  0  0  0  0
   -0.7697   -0.4039    4.0468 C   0  0  0  0  0  0  0  0  0  0  0  0
   -2.0490   -0.3727    3.4992 C   0  0  0  0  0  0  0  0  0  0  0  0
   -3.0492   -1.1790    4.0045 C   0  0  0  0  0  0  0  0  0  0  0  0
   -2.7850   -2.0271    5.0717 C   0  0  0  0  0  0  0  0  0  0  0  0
   -3.9834   -3.1047    5.7857 S   0  0  0  0  0  0  0  0  0  0  0  0
   -5.2741   -3.1997    4.5121 C   0  0  0  0  0  0  0  0  0  0  0  0
   -1.5137   -2.0339    5.6446 C   0  0  0  0  0  0  0  0  0  0  0  0
   -0.5149   -1.2347    5.1382 C   0  0  0  0  0  0  0  0  0  0  0  0
    0.0087   -0.4675    1.1928 C   0  0  0  0  0  0  0  0  0  0  0  0
   -0.7714   -2.0087    1.2945 S   0  0  0  0  0  0  0  0  0  0  0  0
    1.2162    2.9296    2.0056 C   0  0  0  0  0  0  0  0  0  0  0  0
    0.5042    3.5537    3.0229 C   0  0  0  0  0  0  0  0  0  0  0  0
   -0.5888    2.9669    3.5492 F   0  0  0  0  0  0  0  0  0  0  0  0
    0.8248    4.8330    3.4712 C   0  0  0  0  0  0  0  0  0  0  0  0
    0.1041    5.3250    4.5003 F   0  0  0  0  0  0  0  0  0  0  0  0
    1.8492    5.5907    2.9228 C   0  0  0  0  0  0  0  0  0  0  0  0
    2.5560    5.0098    1.8334 C   0  0  0  0  0  0  0  0  0  0  0  0
    3.4844    5.7317    1.1857 N   0  0  0  0  0  0  0  0  0  0  0  0
    4.0668    5.2266    0.1246 C   0  0  0  0  0  0  0  0  0  0  0  0
    5.0172    6.1302   -0.5975 C   0  0  0  0  0  0  0  0  0  0  0  0
    4.2673    6.8955   -1.6921 C   0  0  0  0  0  0  0  0  0  0  0  0
    3.7436    3.9182   -0.3329 C   0  0  0  0  0  0  0  0  0  0  0  0
    2.8415    3.2091    0.3016 N   0  0  0  0  0  0  0  0  0  0  0  0
    2.2208    3.7183    1.3712 C   0  0  0  0  0  0  0  0  0  0  0  0
    4.4176    3.2469   -1.4867 C   0  0  0  0  0  0  0  0  0  0  0  0
    5.7055    2.5627   -1.0202 C   0  0  0  0  0  0  0  0  0  0  0  0
    2.2023    6.9085    3.3782 C   0  0  0  0  0  0  0  0  0  0  0  0
    1.3738    7.8910    3.7959 C   0  0  0  0  0  0  0  0  0  0  0  0
    1.9005    9.0429    4.5849 C   0  0  0  0  0  0  0  0  0  0  0  0
    3.0600    9.3571    4.7197 O   0  0  0  0  0  0  0  0  0  0  0  0
    0.7129    9.6629    5.2012 C   0  0  0  0  0  0  0  0  0  0  0  0
    0.6936   10.6940    6.1393 C   0  0  0  0  0  0  0  0  0  0  0  0
   -0.5665   11.0476    6.5575 C   0  0  0  0  0  0  0  0  0  0  0  0
   -1.7283   10.4210    6.0843 C   0  0  0  0  0  0  0  0  0  0  0  0
   -1.7272    9.4096    5.1539 C   0  0  0  0  0  0  0  0  0  0  0  0
   -0.4543    9.0380    4.7104 C   0  0  0  0  0  0  0  0  0  0  0  0
   -0.0676    8.0403    3.7189 C   0  0  0  0  0  0  0  0  0  0  0  0
   -0.8800    7.5250    2.7442 C   0  0  0  0  0  0  0  0  0  0  0  0
   -2.2643    7.7820    2.6524 C   0  0  0  0  0  0  0  0  0  0  0  0
   -3.3938    7.9466    2.5316 N   0  0  0  0  0  0  0  0  0  0  0  0
   -0.4287    6.7557    1.6530 C   0  0  0  0  0  0  0  0  0  0  0  0
   -0.1268    6.1729    0.7097 N   0  0  0  0  0  0  0  0  0  0  0  0
   -2.6318   11.2670    6.9464 C   0  0  0  0  0  0  0  0  0  0  0  0
   -3.1988   10.5991    8.2171 C   0  0  0  0  0  0  0  0  0  0  0  0
   -3.6243   11.7653    9.0797 C   0  0  0  0  0  0  0  0  0  0  0  0
   -2.5249   12.3594    9.5260 C   0  0  0  0  0  0  0  0  0  0  0  0
   -1.3378   11.6048    8.9722 C   0  0  0  0  0  0  0  0  0  0  0  0
   -1.9160   10.1839    8.9491 C   0  0  0  0  0  0  0  0  0  0  0  0
   -1.3374   11.9672    7.4716 C   0  0  0  0  0  0  0  0  0  0  0  0
   -3.2354   -7.5941   -1.2646 H   0  0  0  0  0  0  0  0  0  0  0  0
    0.2173   -7.5149   -6.5526 H   0  0  0  0  0  0  0  0  0  0  0  0
   -2.9948  -11.2984   -5.5320 H   0  0  0  0  0  0  0  0  0  0  0  0
   -2.0482  -11.3777   -8.8285 H   0  0  0  0  0  0  0  0  0  0  0  0
   -0.7870  -13.3905   -8.0826 H   0  0  0  0  0  0  0  0  0  0  0  0
    0.4627  -12.7177   -5.8872 H   0  0  0  0  0  0  0  0  0  0  0  0
    2.1488  -10.7478   -6.4599 H   0  0  0  0  0  0  0  0  0  0  0  0
    1.9371  -10.2039   -9.0109 H   0  0  0  0  0  0  0  0  0  0  0  0
    0.2616  -11.9897  -10.1292 H   0  0  0  0  0  0  0  0  0  0  0  0
    1.5416  -12.8157   -9.2056 H   0  0  0  0  0  0  0  0  0  0  0  0
   -0.4094   -9.4587   -9.3850 H   0  0  0  0  0  0  0  0  0  0  0  0
   -2.6896   -3.6273   -6.4969 H   0  0  0  0  0  0  0  0  0  0  0  0
   -2.2484   -1.9785   -5.9623 H   0  0  0  0  0  0  0  0  0  0  0  0
   -4.5163   -1.7005   -4.9675 H   0  0  0  0  0  0  0  0  0  0  0  0
   -4.6348   -2.0664   -6.6928 H   0  0  0  0  0  0  0  0  0  0  0  0
   -4.9579   -3.3313   -5.5012 H   0  0  0  0  0  0  0  0  0  0  0  0
    2.6228   -0.2110   -3.6953 H   0  0  0  0  0  0  0  0  0  0  0  0
    3.0979    2.1393   -4.2804 H   0  0  0  0  0  0  0  0  0  0  0  0
    0.6667    5.0220   -1.6664 H   0  0  0  0  0  0  0  0  0  0  0  0
    1.0808    6.4784   -2.5961 H   0  0  0  0  0  0  0  0  0  0  0  0
   -0.3433    5.5293   -3.0578 H   0  0  0  0  0  0  0  0  0  0  0  0
   -0.7487    3.2840   -2.8071 H   0  0  0  0  0  0  0  0  0  0  0  0
   -1.2326    0.9396   -2.2726 H   0  0  0  0  0  0  0  0  0  0  0  0
    0.2458   -1.1831   -4.9853 H   0  0  0  0  0  0  0  0  0  0  0  0
    0.9025   -3.0680   -6.4323 H   0  0  0  0  0  0  0  0  0  0  0  0
    2.8959   -7.7120   -5.5584 H   0  0  0  0  0  0  0  0  0  0  0  0
    1.8389   -7.2081   -4.2151 H   0  0  0  0  0  0  0  0  0  0  0  0
    3.5156   -6.5728   -4.3420 H   0  0  0  0  0  0  0  0  0  0  0  0
    2.0872   -5.2868   -2.9723 H   0  0  0  0  0  0  0  0  0  0  0  0
    1.4511   -3.4292   -1.5526 H   0  0  0  0  0  0  0  0  0  0  0  0
    2.8713    0.6100    3.0528 H   0  0  0  0  0  0  0  0  0  0  0  0
    4.4751    1.8318    4.4571 H   0  0  0  0  0  0  0  0  0  0  0  0
    2.5220    4.7210    7.6503 H   0  0  0  0  0  0  0  0  0  0  0  0
    4.0238    4.7957    8.5993 H   0  0  0  0  0  0  0  0  0  0  0  0
    2.9151    3.4269    8.8304 H   0  0  0  0  0  0  0  0  0  0  0  0
    1.3640    2.6717    7.2703 H   0  0  0  0  0  0  0  0  0  0  0  0
   -0.2288    1.4833    5.8631 H   0  0  0  0  0  0  0  0  0  0  0  0
   -2.2627    0.3018    2.6841 H   0  0  0  0  0  0  0  0  0  0  0  0
   -4.0313   -1.1295    3.5634 H   0  0  0  0  0  0  0  0  0  0  0  0
   -5.9302   -4.0089    4.8175 H   0  0  0  0  0  0  0  0  0  0  0  0
   -5.8348   -2.2700    4.4706 H   0  0  0  0  0  0  0  0  0  0  0  0
   -4.8183   -3.4320    3.5544 H   0  0  0  0  0  0  0  0  0  0  0  0
   -1.3194   -2.6869    6.4813 H   0  0  0  0  0  0  0  0  0  0  0  0
    0.4735   -1.2594    5.5724 H   0  0  0  0  0  0  0  0  0  0  0  0
    5.4204    6.8432    0.1222 H   0  0  0  0  0  0  0  0  0  0  0  0
    5.8373    5.5631   -1.0364 H   0  0  0  0  0  0  0  0  0  0  0  0
    3.8392    6.2132   -2.4233 H   0  0  0  0  0  0  0  0  0  0  0  0
    3.4630    7.4774   -1.2486 H   0  0  0  0  0  0  0  0  0  0  0  0
    4.9459    7.5725   -2.2047 H   0  0  0  0  0  0  0  0  0  0  0  0
    3.7344    2.4902   -1.8735 H   0  0  0  0  0  0  0  0  0  0  0  0
    4.6382    3.9641   -2.2763 H   0  0  0  0  0  0  0  0  0  0  0  0
    6.1887    2.0691   -1.8594 H   0  0  0  0  0  0  0  0  0  0  0  0
    5.4761    1.8166   -0.2634 H   0  0  0  0  0  0  0  0  0  0  0  0
    6.4014    3.2817   -0.5932 H   0  0  0  0  0  0  0  0  0  0  0  0
    3.2647    7.1228    3.4096 H   0  0  0  0  0  0  0  0  0  0  0  0
    1.6098   11.1513    6.4787 H   0  0  0  0  0  0  0  0  0  0  0  0
   -2.6246    8.9294    4.8001 H   0  0  0  0  0  0  0  0  0  0  0  0
   -3.3692   11.8650    6.4147 H   0  0  0  0  0  0  0  0  0  0  0  0
   -3.9430    9.8291    8.0330 H   0  0  0  0  0  0  0  0  0  0  0  0
   -4.6463   12.0616    9.2265 H   0  0  0  0  0  0  0  0  0  0  0  0
   -2.4451   13.2510   10.1198 H   0  0  0  0  0  0  0  0  0  0  0  0
   -0.3864   11.7510    9.4766 H   0  0  0  0  0  0  0  0  0  0  0  0
   -2.1178    9.8058    9.9500 H   0  0  0  0  0  0  0  0  0  0  0  0
   -1.3069    9.4649    8.4043 H   0  0  0  0  0  0  0  0  0  0  0  0
   -1.2116   13.0329    7.2908 H   0  0  0  0  0  0  0  0  0  0  0  0
  1  2  2  0  0  0  0
  2  3  1  0  0  0  0
  3  4  2  0  0  0  0
  3  5  1  0  0  0  0
  5  6  2  0  0  0  0
  6  7  1  0  0  0  0
  7  8  2  0  0  0  0
  8  9  1  0  0  0  0
  9 10  2  0  0  0  0
 10 11  1  0  0  0  0
 11 12  2  0  0  0  0
 12 13  1  0  0  0  0
 13 14  3  0  0  0  0
 12 15  1  0  0  0  0
 15 16  3  0  0  0  0
  8 17  1  0  0  0  0
 17 18  1  0  0  0  0
 18 19  1  0  0  0  0
 19 20  2  0  0  0  0
 20 21  1  0  0  0  0
 21 22  1  0  0  0  0
 21 23  1  0  0  0  0
  1 24  1  0  0  0  0
 24 25  2  0  0  0  0
 25 26  1  0  0  0  0
 26 27  2  0  0  0  0
 27 28  1  0  0  0  0
 28 29  1  0  0  0  0
 29 30  2  0  0  0  0
 29 31  1  0  0  0  0
 31 32  1  0  0  0  0
 32 33  1  0  0  0  0
 31 34  1  0  0  0  0
 34 35  2  0  0  0  0
 34 36  1  0  0  0  0
 27 37  1  0  0  0  0
 37 38  2  0  0  0  0
 38 39  1  0  0  0  0
 39 40  1  0  0  0  0
 40 41  2  0  0  0  0
 41 42  1  0  0  0  0
 42 43  2  0  0  0  0
 43 44  1  0  0  0  0
 44 45  1  0  0  0  0
 43 46  1  0  0  0  0
 46 47  2  0  0  0  0
 39 48  1  0  0  0  0
 48 49  2  0  0  0  0
 49 50  1  0  0  0  0
 50 51  2  0  0  0  0
 51 52  1  0  0  0  0
 52 53  1  0  0  0  0
 51 54  1  0  0  0  0
 54 55  2  0  0  0  0
 38 56  1  0  0  0  0
 56 57  1  0  0  0  0
 57 58  1  0  0  0  0
 58 59  2  0  0  0  0
 59 60  1  0  0  0  0
 60 61  1  0  0  0  0
 61 62  2  0  0  0  0
 62 63  1  0  0  0  0
 63 64  2  0  0  0  0
 64 65  1  0  0  0  0
 65 66  1  0  0  0  0
 64 67  1  0  0  0  0
 67 68  2  0  0  0  0
 60 69  1  0  0  0  0
 69 70  2  0  0  0  0
 70 71  1  0  0  0  0
 71 72  2  0  0  0  0
 72 73  1  0  0  0  0
 73 74  1  0  0  0  0
 72 75  1  0  0  0  0
 75 76  2  0  0  0  0
 59 77  1  0  0  0  0
 77 78  1  0  0  0  0
 58 79  1  0  0  0  0
 79 80  2  0  0  0  0
 80 81  1  0  0  0  0
 80 82  1  0  0  0  0
 82 83  1  0  0  0  0
 82 84  2  0  0  0  0
 84 85  1  0  0  0  0
 85 86  2  0  0  0  0
 86 87  1  0  0  0  0
 87 88  1  0  0  0  0
 88 89  1  0  0  0  0
 87 90  2  0  0  0  0
 90 91  1  0  0  0  0
 91 92  2  0  0  0  0
 90 93  1  0  0  0  0
 93 94  1  0  0  0  0
 84 95  1  0  0  0  0
 95 96  2  0  0  0  0
 96 97  1  0  0  0  0
 97 98  2  0  0  0  0
 97 99  1  0  0  0  0
 99100  2  0  0  0  0
100101  1  0  0  0  0
101102  2  0  0  0  0
102103  1  0  0  0  0
103104  2  0  0  0  0
104105  1  0  0  0  0
105106  2  0  0  0  0
106107  1  0  0  0  0
107108  3  0  0  0  0
106109  1  0  0  0  0
109110  3  0  0  0  0
102111  1  0  0  0  0
111112  1  0  0  0  0
112113  1  0  0  0  0
113114  2  0  0  0  0
114115  1  0  0  0  0
115116  1  0  0  0  0
115117  1  0  0  0  0
 11  2  1  0  0  0  0
 23 17  1  0  0  0  0
 36 24  1  0  0  0  0
 78 37  1  0  0  0  0
 92 79  1  0  0  0  0
105 96  1  0  0  0  0
117111  1  0  0  0  0
 10  5  1  0  0  0  0
 22 18  1  0  0  0  0
 36 28  2  0  0  0  0
 47 40  1  0  0  0  0
 55 48  1  0  0  0  0
 77 56  2  0  0  0  0
 92 85  1  0  0  0  0
104 99  1  0  0  0  0
116112  1  0  0  0  0
 23  7  1  0  0  0  0
 68 61  1  0  0  0  0
 76 69  1  0  0  0  0
117101  1  0  0  0  0
  1118  1  0  0  0  0
  6119  1  0  0  0  0
  9120  1  0  0  0  0
 17121  1  0  0  0  0
 18122  1  0  0  0  0
 19123  1  0  0  0  0
 20124  1  0  0  0  0
 21125  1  0  0  0  0
 22126  1  0  0  0  0
 22127  1  0  0  0  0
 23128  1  0  0  0  0
 32129  1  0  0  0  0
 32130  1  0  0  0  0
 33131  1  0  0  0  0
 33132  1  0  0  0  0
 33133  1  0  0  0  0
 41134  1  0  0  0  0
 42135  1  0  0  0  0
 45136  1  0  0  0  0
 45137  1  0  0  0  0
 45138  1  0  0  0  0
 46139  1  0  0  0  0
 47140  1  0  0  0  0
 49141  1  0  0  0  0
 50142  1  0  0  0  0
 53143  1  0  0  0  0
 53144  1  0  0  0  0
 53145  1  0  0  0  0
 54146  1  0  0  0  0
 55147  1  0  0  0  0
 62148  1  0  0  0  0
 63149  1  0  0  0  0
 66150  1  0  0  0  0
 66151  1  0  0  0  0
 66152  1  0  0  0  0
 67153  1  0  0  0  0
 68154  1  0  0  0  0
 70155  1  0  0  0  0
 71156  1  0  0  0  0
 74157  1  0  0  0  0
 74158  1  0  0  0  0
 74159  1  0  0  0  0
 75160  1  0  0  0  0
 76161  1  0  0  0  0
 88162  1  0  0  0  0
 88163  1  0  0  0  0
 89164  1  0  0  0  0
 89165  1  0  0  0  0
 89166  1  0  0  0  0
 93167  1  0  0  0  0
 93168  1  0  0  0  0
 94169  1  0  0  0  0
 94170  1  0  0  0  0
 94171  1  0  0  0  0
 95172  1  0  0  0  0
100173  1  0  0  0  0
103174  1  0  0  0  0
111175  1  0  0  0  0
112176  1  0  0  0  0
113177  1  0  0  0  0
114178  1  0  0  0  0
115179  1  0  0  0  0
116180  1  0  0  0  0
116181  1  0  0  0  0
117182  1  0  0  0  0
M  END
