
  xtb     02132209143D
 energy: -232.674210343508 gnorm: 0.000184647180 xtb: 6.4.1 (unknown)
127143  0     0  0            999 V2000
    4.5836   -0.4489   -6.7554 C   0  0  0  0  0  0  0  0  0  0  0  0
    4.3164   -1.7659   -7.0306 C   0  0  0  0  0  0  0  0  0  0  0  0
    4.0689   -2.8210   -6.0411 C   0  0  0  0  0  0  0  0  0  0  0  0
    4.2063   -2.7562   -4.8322 O   0  0  0  0  0  0  0  0  0  0  0  0
    3.6108   -3.9985   -6.7978 C   0  0  0  0  0  0  0  0  0  0  0  0
    3.1853   -5.2160   -6.2717 C   0  0  0  0  0  0  0  0  0  0  0  0
    2.7667   -6.1172   -7.2206 C   0  0  0  0  0  0  0  0  0  0  0  0
    2.7759   -5.8302   -8.5919 C   0  0  0  0  0  0  0  0  0  0  0  0
    3.2067   -4.6376   -9.1239 C   0  0  0  0  0  0  0  0  0  0  0  0
    3.6335   -3.7031   -8.1751 C   0  0  0  0  0  0  0  0  0  0  0  0
    4.1253   -2.3361   -8.3496 C   0  0  0  0  0  0  0  0  0  0  0  0
    4.3717   -1.7327   -9.5569 C   0  0  0  0  0  0  0  0  0  0  0  0
    4.1766   -2.3472  -10.8112 C   0  0  0  0  0  0  0  0  0  0  0  0
    4.0420   -2.7785  -11.8671 N   0  0  0  0  0  0  0  0  0  0  0  0
    4.8726   -0.4270   -9.7370 C   0  0  0  0  0  0  0  0  0  0  0  0
    5.2784    0.6214   -9.9759 N   0  0  0  0  0  0  0  0  0  0  0  0
    2.1949   -7.1739   -8.9579 C   0  0  0  0  0  0  0  0  0  0  0  0
    0.6941   -7.1986   -9.3183 C   0  0  0  0  0  0  0  0  0  0  0  0
    0.3067   -8.6508   -9.1557 C   0  0  0  0  0  0  0  0  0  0  0  0
    0.3009   -8.9241   -7.8573 C   0  0  0  0  0  0  0  0  0  0  0  0
    0.6845   -7.6612   -7.1205 C   0  0  0  0  0  0  0  0  0  0  0  0
    0.0589   -6.6134   -8.0502 C   0  0  0  0  0  0  0  0  0  0  0  0
    2.1879   -7.4945   -7.4287 C   0  0  0  0  0  0  0  0  0  0  0  0
    4.6667    0.2257   -5.5287 C   0  0  0  0  0  0  0  0  0  0  0  0
    4.5576   -0.5125   -3.9301 S   0  0  0  0  0  0  0  0  0  0  0  0
    4.6135    1.0465   -3.2113 C   0  0  0  0  0  0  0  0  0  0  0  0
    4.4920    1.6681   -1.9707 C   0  0  0  0  0  0  0  0  0  0  0  0
    4.5222    3.0626   -2.2014 C   0  0  0  0  0  0  0  0  0  0  0  0
    4.7075    3.3096   -3.5368 N   0  0  0  0  0  0  0  0  0  0  0  0
    4.6689    4.6010   -4.1736 C   0  0  0  0  0  0  0  0  0  0  0  0
    3.2367    5.0362   -4.4780 C   0  0  0  0  0  0  0  0  0  0  0  0
    4.7258    2.0907   -4.1696 C   0  0  0  0  0  0  0  0  0  0  0  0
    4.7741    1.6203   -5.4685 C   0  0  0  0  0  0  0  0  0  0  0  0
    4.2898    3.8193   -1.0505 C   0  0  0  0  0  0  0  0  0  0  0  0
    4.0940    3.0112    0.0512 C   0  0  0  0  0  0  0  0  0  0  0  0
    4.2467    1.2985   -0.3075 S   0  0  0  0  0  0  0  0  0  0  0  0
    3.6481    3.3650    1.3686 C   0  0  0  0  0  0  0  0  0  0  0  0
    3.6664    2.4087    2.4097 C   0  0  0  0  0  0  0  0  0  0  0  0
    4.1980    1.1812    2.4411 N   0  0  0  0  0  0  0  0  0  0  0  0
    3.8809    0.7211    3.6179 N   0  0  0  0  0  0  0  0  0  0  0  0
    4.2579   -0.6000    4.0307 C   0  0  0  0  0  0  0  0  0  0  0  0
    3.4219   -1.6398    3.2920 C   0  0  0  0  0  0  0  0  0  0  0  0
    3.1799    1.5044    4.3851 N   0  0  0  0  0  0  0  0  0  0  0  0
    3.0196    2.6206    3.6606 C   0  0  0  0  0  0  0  0  0  0  0  0
    2.3051    3.8036    3.9278 C   0  0  0  0  0  0  0  0  0  0  0  0
    2.3756    4.7659    2.9408 C   0  0  0  0  0  0  0  0  0  0  0  0
    3.0373    4.5627    1.7157 C   0  0  0  0  0  0  0  0  0  0  0  0
    2.9849    5.5743    0.8268 F   0  0  0  0  0  0  0  0  0  0  0  0
    1.7945    5.9606    3.1295 F   0  0  0  0  0  0  0  0  0  0  0  0
    1.4105    3.8656    5.0823 C   0  0  0  0  0  0  0  0  0  0  0  0
    0.0268    4.0805    4.8589 C   0  0  0  0  0  0  0  0  0  0  0  0
   -0.4091    4.3492    3.6076 N   0  0  0  0  0  0  0  0  0  0  0  0
   -1.6759    4.5383    3.4218 C   0  0  0  0  0  0  0  0  0  0  0  0
   -2.6049    4.4780    4.5043 C   0  0  0  0  0  0  0  0  0  0  0  0
   -3.8747    4.7718    4.2461 O   0  0  0  0  0  0  0  0  0  0  0  0
   -4.8071    4.6737    5.3205 C   0  0  0  0  0  0  0  0  0  0  0  0
   -5.3404    3.2537    5.4534 C   0  0  0  0  0  0  0  0  0  0  0  0
   -2.2147    4.1547    5.7127 N   0  0  0  0  0  0  0  0  0  0  0  0
   -0.9026    3.9283    5.9146 C   0  0  0  0  0  0  0  0  0  0  0  0
   -0.4562    3.5339    7.2057 C   0  0  0  0  0  0  0  0  0  0  0  0
    0.9028    3.4169    7.4093 C   0  0  0  0  0  0  0  0  0  0  0  0
    1.8244    3.5608    6.3612 C   0  0  0  0  0  0  0  0  0  0  0  0
    3.1260    3.3877    6.6284 F   0  0  0  0  0  0  0  0  0  0  0  0
    1.3585    3.0685    8.6223 F   0  0  0  0  0  0  0  0  0  0  0  0
   -1.4369    3.2495    8.2375 C   0  0  0  0  0  0  0  0  0  0  0  0
   -2.4520    2.3905    8.0074 C   0  0  0  0  0  0  0  0  0  0  0  0
   -2.4579    1.4230    6.8686 C   0  0  0  0  0  0  0  0  0  0  0  0
   -1.6461    1.3199    5.9755 O   0  0  0  0  0  0  0  0  0  0  0  0
   -3.6162    0.5458    7.1017 C   0  0  0  0  0  0  0  0  0  0  0  0
   -4.0102   -0.5296    6.3074 C   0  0  0  0  0  0  0  0  0  0  0  0
   -5.1466   -1.1619    6.7466 C   0  0  0  0  0  0  0  0  0  0  0  0
   -5.8372   -0.7631    7.9006 C   0  0  0  0  0  0  0  0  0  0  0  0
   -5.4490    0.2825    8.7033 C   0  0  0  0  0  0  0  0  0  0  0  0
   -4.2982    0.9497    8.2685 C   0  0  0  0  0  0  0  0  0  0  0  0
   -3.6150    2.1060    8.8363 C   0  0  0  0  0  0  0  0  0  0  0  0
   -4.0418    2.8575    9.8953 C   0  0  0  0  0  0  0  0  0  0  0  0
   -3.3935    4.0229   10.3606 C   0  0  0  0  0  0  0  0  0  0  0  0
   -2.9345    4.9870   10.7808 N   0  0  0  0  0  0  0  0  0  0  0  0
   -5.2088    2.5943   10.6445 C   0  0  0  0  0  0  0  0  0  0  0  0
   -6.1454    2.4369   11.2887 N   0  0  0  0  0  0  0  0  0  0  0  0
   -6.8969   -1.8216    7.7258 C   0  0  0  0  0  0  0  0  0  0  0  0
   -8.2677   -1.3743    7.1588 C   0  0  0  0  0  0  0  0  0  0  0  0
   -8.0075   -0.1459    6.3222 C   0  0  0  0  0  0  0  0  0  0  0  0
   -7.3522   -0.5279    5.2342 C   0  0  0  0  0  0  0  0  0  0  0  0
   -7.1566   -2.0218    5.3159 C   0  0  0  0  0  0  0  0  0  0  0  0
   -8.4452   -2.4243    6.0503 C   0  0  0  0  0  0  0  0  0  0  0  0
   -6.1245   -2.2681    6.4444 C   0  0  0  0  0  0  0  0  0  0  0  0
    4.6934    0.2111   -7.6077 H   0  0  0  0  0  0  0  0  0  0  0  0
    3.1935   -5.3922   -5.2074 H   0  0  0  0  0  0  0  0  0  0  0  0
    3.2079   -4.4352  -10.1818 H   0  0  0  0  0  0  0  0  0  0  0  0
    2.8012   -7.7913   -9.6177 H   0  0  0  0  0  0  0  0  0  0  0  0
    0.4458   -6.7289  -10.2661 H   0  0  0  0  0  0  0  0  0  0  0  0
    0.1366   -9.3219   -9.9771 H   0  0  0  0  0  0  0  0  0  0  0  0
    0.1254   -9.8690   -7.3773 H   0  0  0  0  0  0  0  0  0  0  0  0
    0.4275   -7.6125   -6.0657 H   0  0  0  0  0  0  0  0  0  0  0  0
   -1.0281   -6.6759   -8.0682 H   0  0  0  0  0  0  0  0  0  0  0  0
    0.3609   -5.5905   -7.8333 H   0  0  0  0  0  0  0  0  0  0  0  0
    2.7915   -8.3252   -7.0679 H   0  0  0  0  0  0  0  0  0  0  0  0
    5.2498    4.5414   -5.0974 H   0  0  0  0  0  0  0  0  0  0  0  0
    5.1468    5.3245   -3.5078 H   0  0  0  0  0  0  0  0  0  0  0  0
    3.2379    6.0099   -4.9596 H   0  0  0  0  0  0  0  0  0  0  0  0
    2.7567    4.3187   -5.1395 H   0  0  0  0  0  0  0  0  0  0  0  0
    2.6593    5.1012   -3.5590 H   0  0  0  0  0  0  0  0  0  0  0  0
    4.8523    2.2243   -6.3549 H   0  0  0  0  0  0  0  0  0  0  0  0
    4.2491    4.8915   -1.0139 H   0  0  0  0  0  0  0  0  0  0  0  0
    4.0959   -0.6541    5.1081 H   0  0  0  0  0  0  0  0  0  0  0  0
    5.3171   -0.7376    3.8012 H   0  0  0  0  0  0  0  0  0  0  0  0
    3.5629   -1.5327    2.2194 H   0  0  0  0  0  0  0  0  0  0  0  0
    3.7278   -2.6382    3.5907 H   0  0  0  0  0  0  0  0  0  0  0  0
    2.3676   -1.5116    3.5247 H   0  0  0  0  0  0  0  0  0  0  0  0
   -2.0158    4.7505    2.4189 H   0  0  0  0  0  0  0  0  0  0  0  0
   -5.6100    5.3682    5.0631 H   0  0  0  0  0  0  0  0  0  0  0  0
   -4.3213    4.9901    6.2484 H   0  0  0  0  0  0  0  0  0  0  0  0
   -6.0270    3.1913    6.2929 H   0  0  0  0  0  0  0  0  0  0  0  0
   -5.8628    2.9610    4.5461 H   0  0  0  0  0  0  0  0  0  0  0  0
   -4.5170    2.5636    5.6188 H   0  0  0  0  0  0  0  0  0  0  0  0
   -1.3197    3.7510    9.1889 H   0  0  0  0  0  0  0  0  0  0  0  0
   -3.4481   -0.8014    5.4275 H   0  0  0  0  0  0  0  0  0  0  0  0
   -5.9824    0.5671    9.5949 H   0  0  0  0  0  0  0  0  0  0  0  0
   -6.9978   -2.5379    8.5383 H   0  0  0  0  0  0  0  0  0  0  0  0
   -9.0566   -1.2908    7.9011 H   0  0  0  0  0  0  0  0  0  0  0  0
   -8.2696    0.8509    6.6249 H   0  0  0  0  0  0  0  0  0  0  0  0
   -6.9555    0.0858    4.4468 H   0  0  0  0  0  0  0  0  0  0  0  0
   -6.9332   -2.5290    4.3811 H   0  0  0  0  0  0  0  0  0  0  0  0
   -9.3397   -2.2580    5.4522 H   0  0  0  0  0  0  0  0  0  0  0  0
   -8.4332   -3.4496    6.4172 H   0  0  0  0  0  0  0  0  0  0  0  0
   -5.7142   -3.2755    6.4205 H   0  0  0  0  0  0  0  0  0  0  0  0
  1  2  2  0  0  0  0
  2  3  1  0  0  0  0
  3  4  2  0  0  0  0
  3  5  1  0  0  0  0
  5  6  2  0  0  0  0
  6  7  1  0  0  0  0
  7  8  2  0  0  0  0
  8  9  1  0  0  0  0
  9 10  2  0  0  0  0
 10 11  1  0  0  0  0
 11 12  2  0  0  0  0
 12 13  1  0  0  0  0
 13 14  3  0  0  0  0
 12 15  1  0  0  0  0
 15 16  3  0  0  0  0
  8 17  1  0  0  0  0
 17 18  1  0  0  0  0
 18 19  1  0  0  0  0
 19 20  2  0  0  0  0
 20 21  1  0  0  0  0
 21 22  1  0  0  0  0
 21 23  1  0  0  0  0
  1 24  1  0  0  0  0
 24 25  1  0  0  0  0
 25 26  1  0  0  0  0
 26 27  1  0  0  0  0
 27 28  2  0  0  0  0
 28 29  1  0  0  0  0
 29 30  1  0  0  0  0
 30 31  1  0  0  0  0
 29 32  1  0  0  0  0
 32 33  1  0  0  0  0
 28 34  1  0  0  0  0
 34 35  2  0  0  0  0
 35 36  1  0  0  0  0
 35 37  1  0  0  0  0
 37 38  1  0  0  0  0
 38 39  2  0  0  0  0
 39 40  1  0  0  0  0
 40 41  1  0  0  0  0
 41 42  1  0  0  0  0
 40 43  1  0  0  0  0
 43 44  2  0  0  0  0
 44 45  1  0  0  0  0
 45 46  2  0  0  0  0
 46 47  1  0  0  0  0
 47 48  1  0  0  0  0
 46 49  1  0  0  0  0
 45 50  1  0  0  0  0
 50 51  1  0  0  0  0
 51 52  2  0  0  0  0
 52 53  1  0  0  0  0
 53 54  2  0  0  0  0
 54 55  1  0  0  0  0
 55 56  1  0  0  0  0
 56 57  1  0  0  0  0
 54 58  1  0  0  0  0
 58 59  2  0  0  0  0
 59 60  1  0  0  0  0
 60 61  2  0  0  0  0
 61 62  1  0  0  0  0
 62 63  1  0  0  0  0
 61 64  1  0  0  0  0
 60 65  1  0  0  0  0
 65 66  2  0  0  0  0
 66 67  1  0  0  0  0
 67 68  2  0  0  0  0
 67 69  1  0  0  0  0
 69 70  2  0  0  0  0
 70 71  1  0  0  0  0
 71 72  2  0  0  0  0
 72 73  1  0  0  0  0
 73 74  2  0  0  0  0
 74 75  1  0  0  0  0
 75 76  2  0  0  0  0
 76 77  1  0  0  0  0
 77 78  3  0  0  0  0
 76 79  1  0  0  0  0
 79 80  3  0  0  0  0
 72 81  1  0  0  0  0
 81 82  1  0  0  0  0
 82 83  1  0  0  0  0
 83 84  2  0  0  0  0
 84 85  1  0  0  0  0
 85 86  1  0  0  0  0
 85 87  1  0  0  0  0
 11  2  1  0  0  0  0
 23 17  1  0  0  0  0
 33 24  2  0  0  0  0
 47 37  2  0  0  0  0
 62 50  2  0  0  0  0
 75 66  1  0  0  0  0
 87 81  1  0  0  0  0
 10  5  1  0  0  0  0
 22 18  1  0  0  0  0
 32 26  2  0  0  0  0
 44 38  1  0  0  0  0
 59 51  1  0  0  0  0
 74 69  1  0  0  0  0
 86 82  1  0  0  0  0
 23  7  1  0  0  0  0
 36 27  1  0  0  0  0
 87 71  1  0  0  0  0
  1 88  1  0  0  0  0
  6 89  1  0  0  0  0
  9 90  1  0  0  0  0
 17 91  1  0  0  0  0
 18 92  1  0  0  0  0
 19 93  1  0  0  0  0
 20 94  1  0  0  0  0
 21 95  1  0  0  0  0
 22 96  1  0  0  0  0
 22 97  1  0  0  0  0
 23 98  1  0  0  0  0
 30 99  1  0  0  0  0
 30100  1  0  0  0  0
 31101  1  0  0  0  0
 31102  1  0  0  0  0
 31103  1  0  0  0  0
 33104  1  0  0  0  0
 34105  1  0  0  0  0
 41106  1  0  0  0  0
 41107  1  0  0  0  0
 42108  1  0  0  0  0
 42109  1  0  0  0  0
 42110  1  0  0  0  0
 53111  1  0  0  0  0
 56112  1  0  0  0  0
 56113  1  0  0  0  0
 57114  1  0  0  0  0
 57115  1  0  0  0  0
 57116  1  0  0  0  0
 65117  1  0  0  0  0
 70118  1  0  0  0  0
 73119  1  0  0  0  0
 81120  1  0  0  0  0
 82121  1  0  0  0  0
 83122  1  0  0  0  0
 84123  1  0  0  0  0
 85124  1  0  0  0  0
 86125  1  0  0  0  0
 86126  1  0  0  0  0
 87127  1  0  0  0  0
M  END
