
  xtb     02042210593D
 energy: -443.202643099521 gnorm: 0.000623340405 xtb: 6.4.1 (unknown)
282307  0     0  0            999 V2000
   -1.5696   11.2572    1.8883 C   0  0  0  0  0  0  0  0  0  0  0  0
   -2.4002   12.0858    1.1843 C   0  0  0  0  0  0  0  0  0  0  0  0
   -3.6267   11.7673    0.4146 C   0  0  0  0  0  0  0  0  0  0  0  0
   -4.2821   10.7428    0.3924 O   0  0  0  0  0  0  0  0  0  0  0  0
   -3.9514   12.9811   -0.3531 C   0  0  0  0  0  0  0  0  0  0  0  0
   -4.9792   13.1179   -1.2849 C   0  0  0  0  0  0  0  0  0  0  0  0
   -5.0303   14.3538   -1.8811 C   0  0  0  0  0  0  0  0  0  0  0  0
   -4.1272   15.3801   -1.5706 C   0  0  0  0  0  0  0  0  0  0  0  0
   -3.1190   15.2618   -0.6439 C   0  0  0  0  0  0  0  0  0  0  0  0
   -3.0493   14.0095   -0.0238 C   0  0  0  0  0  0  0  0  0  0  0  0
   -2.1320   13.5066    0.9956 C   0  0  0  0  0  0  0  0  0  0  0  0
   -1.2267   14.2755    1.6784 C   0  0  0  0  0  0  0  0  0  0  0  0
   -0.3859   13.8495    2.7299 C   0  0  0  0  0  0  0  0  0  0  0  0
    0.3216   13.6122    3.6032 N   0  0  0  0  0  0  0  0  0  0  0  0
   -1.0276   15.6552    1.4562 C   0  0  0  0  0  0  0  0  0  0  0  0
   -0.8065   16.7754    1.3350 N   0  0  0  0  0  0  0  0  0  0  0  0
   -4.7474   16.3336   -2.5616 C   0  0  0  0  0  0  0  0  0  0  0  0
   -3.9899   16.5338   -3.8915 C   0  0  0  0  0  0  0  0  0  0  0  0
   -5.0354   17.1065   -4.8211 C   0  0  0  0  0  0  0  0  0  0  0  0
   -5.8907   16.1352   -5.1139 C   0  0  0  0  0  0  0  0  0  0  0  0
   -5.4378   14.8897   -4.3868 C   0  0  0  0  0  0  0  0  0  0  0  0
   -3.9184   15.0983   -4.4283 C   0  0  0  0  0  0  0  0  0  0  0  0
   -5.7547   15.1900   -2.9061 C   0  0  0  0  0  0  0  0  0  0  0  0
   -1.6130    9.8635    2.1087 C   0  0  0  0  0  0  0  0  0  0  0  0
   -2.5100    8.9078    1.7007 C   0  0  0  0  0  0  0  0  0  0  0  0
   -2.1748    7.5992    2.0848 C   0  0  0  0  0  0  0  0  0  0  0  0
   -2.8915    6.4097    1.8033 C   0  0  0  0  0  0  0  0  0  0  0  0
   -4.2066    6.4364    1.2054 C   0  0  0  0  0  0  0  0  0  0  0  0
   -4.8060    5.5136    0.3845 C   0  0  0  0  0  0  0  0  0  0  0  0
   -6.1053    5.9008    0.0154 C   0  0  0  0  0  0  0  0  0  0  0  0
   -7.0869    4.9590   -1.0380 Cl  0  0  0  0  0  0  0  0  0  0  0  0
   -6.5416    7.0856    0.5431 C   0  0  0  0  0  0  0  0  0  0  0  0
   -8.0564    8.1252    0.0830 Si  0  0  0  0  0  4  0  0  0  0  0  0
   -7.8009    9.8416    0.8807 C   0  0  0  0  0  0  0  0  0  0  0  0
   -8.0079    9.8535    2.3931 C   0  0  0  0  0  0  0  0  0  0  0  0
   -8.0650    8.2389   -1.8325 C   0  0  0  0  0  0  0  0  0  0  0  0
   -8.6271    9.5491   -2.3753 C   0  0  0  0  0  0  0  0  0  0  0  0
   -9.6345    7.2613    0.7340 C   0  0  0  0  0  0  0  0  0  0  0  0
  -10.9114    8.0068    0.3596 C   0  0  0  0  0  0  0  0  0  0  0  0
   -5.3068    7.7402    1.5441 S   0  0  0  0  0  0  0  0  0  0  0  0
   -2.2596    5.2264    2.1602 C   0  0  0  0  0  0  0  0  0  0  0  0
   -1.0490    5.1708    2.8990 C   0  0  0  0  0  0  0  0  0  0  0  0
   -0.3830    6.3619    3.2595 C   0  0  0  0  0  0  0  0  0  0  0  0
    0.8077    6.3712    4.0836 C   0  0  0  0  0  0  0  0  0  0  0  0
    0.9422    5.3661    5.4997 S   0  0  0  0  0  0  0  0  0  0  0  0
    2.4630    6.0492    5.9485 C   0  0  0  0  0  0  0  0  0  0  0  0
    3.2813    5.6542    7.6109 Si  0  0  0  0  0  4  0  0  0  0  0  0
    2.8299    7.1561    8.7128 C   0  0  0  0  0  0  0  0  0  0  0  0
    3.4561    7.1231   10.1023 C   0  0  0  0  0  0  0  0  0  0  0  0
    5.1692    5.4405    7.3978 C   0  0  0  0  0  0  0  0  0  0  0  0
    5.8257    4.6545    8.5295 C   0  0  0  0  0  0  0  0  0  0  0  0
    2.4451    4.0679    8.2727 C   0  0  0  0  0  0  0  0  0  0  0  0
    2.6731    2.8452    7.3895 C   0  0  0  0  0  0  0  0  0  0  0  0
    2.8210    6.9857    5.0219 C   0  0  0  0  0  0  0  0  0  0  0  0
    1.9045    7.1815    3.9710 C   0  0  0  0  0  0  0  0  0  0  0  0
    4.2878    7.8735    5.1324 Cl  0  0  0  0  0  0  0  0  0  0  0  0
   -0.9440    7.5476    2.7949 C   0  0  0  0  0  0  0  0  0  0  0  0
   -0.2861    9.1406    3.0192 S   0  0  0  0  0  0  0  0  0  0  0  0
   -0.6437    3.8415    3.1363 C   0  0  0  0  0  0  0  0  0  0  0  0
   -1.4825    2.8931    2.6043 C   0  0  0  0  0  0  0  0  0  0  0  0
   -2.8477    3.6316    1.7984 S   0  0  0  0  0  0  0  0  0  0  0  0
   -1.2166    1.5004    2.5351 C   0  0  0  0  0  0  0  0  0  0  0  0
   -1.8810    0.4715    1.8684 C   0  0  0  0  0  0  0  0  0  0  0  0
   -3.1352    0.5127    1.2917 N   0  0  0  0  0  0  0  0  0  0  0  0
   -3.3423   -0.2659    0.1380 C   0  0  0  0  0  0  0  0  0  0  0  0
   -2.4080   -0.2339   -0.8945 C   0  0  0  0  0  0  0  0  0  0  0  0
   -2.5356   -1.0715   -1.9842 C   0  0  0  0  0  0  0  0  0  0  0  0
   -3.6076   -1.9504   -2.0590 C   0  0  0  0  0  0  0  0  0  0  0  0
   -3.8082   -3.1004   -3.3843 S   0  0  0  0  0  0  0  0  0  0  0  0
   -2.0897   -3.4244   -3.8768 C   0  0  0  0  0  0  0  0  0  0  0  0
   -4.5803   -1.9360   -1.0629 C   0  0  0  0  0  0  0  0  0  0  0  0
   -4.4498   -1.1052    0.0277 C   0  0  0  0  0  0  0  0  0  0  0  0
   -4.2194    1.1583    1.8947 C   0  0  0  0  0  0  0  0  0  0  0  0
   -4.2970    1.3067    3.2801 C   0  0  0  0  0  0  0  0  0  0  0  0
   -5.3311    2.0206    3.8422 C   0  0  0  0  0  0  0  0  0  0  0  0
   -6.3159    2.5947    3.0403 C   0  0  0  0  0  0  0  0  0  0  0  0
   -7.5565    3.5343    3.8667 S   0  0  0  0  0  0  0  0  0  0  0  0
   -8.5740    4.1950    2.5182 C   0  0  0  0  0  0  0  0  0  0  0  0
   -6.2700    2.4066    1.6648 C   0  0  0  0  0  0  0  0  0  0  0  0
   -5.2324    1.6946    1.1007 C   0  0  0  0  0  0  0  0  0  0  0  0
   -1.0593   -0.6828    1.7955 C   0  0  0  0  0  0  0  0  0  0  0  0
   -1.2386   -2.2133    1.0219 S   0  0  0  0  0  0  0  0  0  0  0  0
    0.4072   -2.6577    1.4565 C   0  0  0  0  0  0  0  0  0  0  0  0
    1.0173   -1.7054    2.2736 C   0  0  0  0  0  0  0  0  0  0  0  0
    2.2611   -1.7881    2.8647 N   0  0  0  0  0  0  0  0  0  0  0  0
    2.9389   -0.5830    3.1440 C   0  0  0  0  0  0  0  0  0  0  0  0
    3.0463    0.4032    2.1688 C   0  0  0  0  0  0  0  0  0  0  0  0
    3.6269    1.6229    2.4608 C   0  0  0  0  0  0  0  0  0  0  0  0
    4.1213    1.8662    3.7345 C   0  0  0  0  0  0  0  0  0  0  0  0
    4.8230    3.4014    4.2419 S   0  0  0  0  0  0  0  0  0  0  0  0
    4.3456    4.5546    2.9262 C   0  0  0  0  0  0  0  0  0  0  0  0
    4.0753    0.8537    4.6927 C   0  0  0  0  0  0  0  0  0  0  0  0
    3.4851   -0.3550    4.4061 C   0  0  0  0  0  0  0  0  0  0  0  0
    2.8310   -2.9974    3.2735 C   0  0  0  0  0  0  0  0  0  0  0  0
    2.0444   -4.0897    3.6348 C   0  0  0  0  0  0  0  0  0  0  0  0
    2.6246   -5.3055    3.9363 C   0  0  0  0  0  0  0  0  0  0  0  0
    4.0041   -5.4488    3.8923 C   0  0  0  0  0  0  0  0  0  0  0  0
    4.8209   -6.9812    4.2185 S   0  0  0  0  0  0  0  0  0  0  0  0
    3.6336   -8.1879    3.5564 C   0  0  0  0  0  0  0  0  0  0  0  0
    4.7977   -4.3459    3.5958 C   0  0  0  0  0  0  0  0  0  0  0  0
    4.2219   -3.1355    3.2837 C   0  0  0  0  0  0  0  0  0  0  0  0
    0.1692   -0.5753    2.4248 C   0  0  0  0  0  0  0  0  0  0  0  0
    0.3356    0.9693    3.1863 S   0  0  0  0  0  0  0  0  0  0  0  0
    0.9030   -3.8369    0.8359 C   0  0  0  0  0  0  0  0  0  0  0  0
    2.1816   -4.2892    0.6634 C   0  0  0  0  0  0  0  0  0  0  0  0
    2.2705   -5.4636   -0.1176 C   0  0  0  0  0  0  0  0  0  0  0  0
    3.4322   -6.1940   -0.4328 C   0  0  0  0  0  0  0  0  0  0  0  0
    4.7365   -5.8214    0.0808 C   0  0  0  0  0  0  0  0  0  0  0  0
    5.3205   -4.5873    0.1401 C   0  0  0  0  0  0  0  0  0  0  0  0
    6.6136   -4.6384    0.6984 C   0  0  0  0  0  0  0  0  0  0  0  0
    7.5809   -3.2281    0.8644 Cl  0  0  0  0  0  0  0  0  0  0  0  0
    7.0343   -5.8757    1.0906 C   0  0  0  0  0  0  0  0  0  0  0  0
    8.7003   -6.5022    1.7414 Si  0  0  0  0  0  4  0  0  0  0  0  0
    9.7123   -6.8446    0.1504 C   0  0  0  0  0  0  0  0  0  0  0  0
   11.1035   -7.4144    0.4041 C   0  0  0  0  0  0  0  0  0  0  0  0
    9.6174   -5.2375    2.8423 C   0  0  0  0  0  0  0  0  0  0  0  0
    8.7893   -4.6787    3.9953 C   0  0  0  0  0  0  0  0  0  0  0  0
    8.2618   -8.0879    2.7160 C   0  0  0  0  0  0  0  0  0  0  0  0
    9.3733   -8.6034    3.6246 C   0  0  0  0  0  0  0  0  0  0  0  0
    5.7997   -7.0286    0.7394 S   0  0  0  0  0  0  0  0  0  0  0  0
    3.2647   -7.2916   -1.2696 C   0  0  0  0  0  0  0  0  0  0  0  0
    2.0047   -7.6938   -1.7876 C   0  0  0  0  0  0  0  0  0  0  0  0
    0.8218   -7.0320   -1.3702 C   0  0  0  0  0  0  0  0  0  0  0  0
   -0.4835   -7.5206   -1.7451 C   0  0  0  0  0  0  0  0  0  0  0  0
   -1.8522   -6.4589   -1.9193 S   0  0  0  0  0  0  0  0  0  0  0  0
   -2.9291   -7.7542   -2.2993 C   0  0  0  0  0  0  0  0  0  0  0  0
   -4.7487   -7.3382   -2.6298 Si  0  0  0  0  0  4  0  0  0  0  0  0
   -4.8349   -6.7064   -4.4368 C   0  0  0  0  0  0  0  0  0  0  0  0
   -6.2192   -6.8157   -5.0680 C   0  0  0  0  0  0  0  0  0  0  0  0
   -5.1548   -5.9663   -1.3594 C   0  0  0  0  0  0  0  0  0  0  0  0
   -6.5416   -5.3580   -1.5370 C   0  0  0  0  0  0  0  0  0  0  0  0
   -5.8945   -8.8429   -2.3585 C   0  0  0  0  0  0  0  0  0  0  0  0
   -5.8785   -9.3836   -0.9316 C   0  0  0  0  0  0  0  0  0  0  0  0
   -2.2321   -8.9299   -2.2887 C   0  0  0  0  0  0  0  0  0  0  0  0
   -0.8657   -8.8175   -1.9714 C   0  0  0  0  0  0  0  0  0  0  0  0
   -2.9394  -10.4530   -2.6421 Cl  0  0  0  0  0  0  0  0  0  0  0  0
    1.0024   -5.9089   -0.5725 C   0  0  0  0  0  0  0  0  0  0  0  0
   -0.2624   -4.8690    0.0203 S   0  0  0  0  0  0  0  0  0  0  0  0
    2.1305   -8.7119   -2.7516 C   0  0  0  0  0  0  0  0  0  0  0  0
    3.4238   -9.1253   -2.9584 C   0  0  0  0  0  0  0  0  0  0  0  0
    4.5510   -8.2634   -1.9116 S   0  0  0  0  0  0  0  0  0  0  0  0
    3.9887  -10.0884   -3.8262 C   0  0  0  0  0  0  0  0  0  0  0  0
    3.4572  -10.7689   -4.8832 C   0  0  0  0  0  0  0  0  0  0  0  0
    2.1335  -10.5979   -5.5320 C   0  0  0  0  0  0  0  0  0  0  0  0
    1.1559  -10.0052   -5.1234 O   0  0  0  0  0  0  0  0  0  0  0  0
    2.2281  -11.2999   -6.8248 C   0  0  0  0  0  0  0  0  0  0  0  0
    1.2593  -11.3286   -7.8259 C   0  0  0  0  0  0  0  0  0  0  0  0
    1.6303  -12.0371   -8.9427 C   0  0  0  0  0  0  0  0  0  0  0  0
    2.8730  -12.6762   -9.0552 C   0  0  0  0  0  0  0  0  0  0  0  0
    3.8322  -12.6657   -8.0712 C   0  0  0  0  0  0  0  0  0  0  0  0
    3.4753  -11.9466   -6.9264 C   0  0  0  0  0  0  0  0  0  0  0  0
    4.2202  -11.7075   -5.6952 C   0  0  0  0  0  0  0  0  0  0  0  0
    5.3924  -12.3239   -5.3460 C   0  0  0  0  0  0  0  0  0  0  0  0
    6.0624  -12.1840   -4.1110 C   0  0  0  0  0  0  0  0  0  0  0  0
    6.6628  -12.1521   -3.1325 N   0  0  0  0  0  0  0  0  0  0  0  0
    6.0823  -13.2434   -6.1646 C   0  0  0  0  0  0  0  0  0  0  0  0
    6.7006  -13.9932   -6.7759 N   0  0  0  0  0  0  0  0  0  0  0  0
    2.5804  -13.1741  -10.4482 C   0  0  0  0  0  0  0  0  0  0  0  0
    3.2438  -12.4291  -11.6331 C   0  0  0  0  0  0  0  0  0  0  0  0
    3.4938  -11.0165  -11.1663 C   0  0  0  0  0  0  0  0  0  0  0  0
    2.3185  -10.4114  -11.0593 C   0  0  0  0  0  0  0  0  0  0  0  0
    1.2522  -11.4038  -11.4526 C   0  0  0  0  0  0  0  0  0  0  0  0
    2.0103  -12.2055  -12.5226 C   0  0  0  0  0  0  0  0  0  0  0  0
    1.1964  -12.4625  -10.3230 C   0  0  0  0  0  0  0  0  0  0  0  0
   -0.6993   11.7244    2.3338 H   0  0  0  0  0  0  0  0  0  0  0  0
   -5.6495   12.2985   -1.4930 H   0  0  0  0  0  0  0  0  0  0  0  0
   -2.4351   16.0624   -0.4184 H   0  0  0  0  0  0  0  0  0  0  0  0
   -5.1342   17.2629   -2.1482 H   0  0  0  0  0  0  0  0  0  0  0  0
   -3.0571   17.0842   -3.8054 H   0  0  0  0  0  0  0  0  0  0  0  0
   -5.0751   18.1385   -5.1160 H   0  0  0  0  0  0  0  0  0  0  0  0
   -6.7877   16.1938   -5.7021 H   0  0  0  0  0  0  0  0  0  0  0  0
   -5.8239   13.9419   -4.7523 H   0  0  0  0  0  0  0  0  0  0  0  0
   -3.3587   14.4139   -3.7934 H   0  0  0  0  0  0  0  0  0  0  0  0
   -3.5252   15.0577   -5.4427 H   0  0  0  0  0  0  0  0  0  0  0  0
   -6.8146   15.3563   -2.7229 H   0  0  0  0  0  0  0  0  0  0  0  0
   -3.3683    9.1652    1.1116 H   0  0  0  0  0  0  0  0  0  0  0  0
   -4.3327    4.6254    0.0105 H   0  0  0  0  0  0  0  0  0  0  0  0
   -6.7889   10.1899    0.6658 H   0  0  0  0  0  0  0  0  0  0  0  0
   -8.4835   10.5639    0.4316 H   0  0  0  0  0  0  0  0  0  0  0  0
   -7.8097   10.8446    2.7969 H   0  0  0  0  0  0  0  0  0  0  0  0
   -7.3355    9.1514    2.8794 H   0  0  0  0  0  0  0  0  0  0  0  0
   -9.0296    9.5820    2.6477 H   0  0  0  0  0  0  0  0  0  0  0  0
   -8.6474    7.4116   -2.2395 H   0  0  0  0  0  0  0  0  0  0  0  0
   -7.0492    8.1137   -2.2102 H   0  0  0  0  0  0  0  0  0  0  0  0
   -8.0180   10.3891   -2.0522 H   0  0  0  0  0  0  0  0  0  0  0  0
   -9.6434    9.7111   -2.0251 H   0  0  0  0  0  0  0  0  0  0  0  0
   -8.6409    9.5379   -3.4641 H   0  0  0  0  0  0  0  0  0  0  0  0
   -9.6926    6.2454    0.3408 H   0  0  0  0  0  0  0  0  0  0  0  0
   -9.5828    7.1708    1.8198 H   0  0  0  0  0  0  0  0  0  0  0  0
  -10.8924    9.0224    0.7469 H   0  0  0  0  0  0  0  0  0  0  0  0
  -11.0221    8.0563   -0.7205 H   0  0  0  0  0  0  0  0  0  0  0  0
  -11.7870    7.5040    0.7666 H   0  0  0  0  0  0  0  0  0  0  0  0
    1.7445    7.2137    8.8151 H   0  0  0  0  0  0  0  0  0  0  0  0
    3.1378    8.0748    8.2114 H   0  0  0  0  0  0  0  0  0  0  0  0
    4.5400    7.1628   10.0338 H   0  0  0  0  0  0  0  0  0  0  0  0
    3.1779    6.2139   10.6297 H   0  0  0  0  0  0  0  0  0  0  0  0
    3.1246    7.9745   10.6942 H   0  0  0  0  0  0  0  0  0  0  0  0
    5.6408    6.4217    7.3372 H   0  0  0  0  0  0  0  0  0  0  0  0
    5.3823    4.9363    6.4546 H   0  0  0  0  0  0  0  0  0  0  0  0
    5.4261    3.6458    8.5837 H   0  0  0  0  0  0  0  0  0  0  0  0
    6.9000    4.5836    8.3689 H   0  0  0  0  0  0  0  0  0  0  0  0
    5.6573    5.1358    9.4891 H   0  0  0  0  0  0  0  0  0  0  0  0
    1.3713    4.2347    8.3723 H   0  0  0  0  0  0  0  0  0  0  0  0
    2.8186    3.8535    9.2744 H   0  0  0  0  0  0  0  0  0  0  0  0
    2.2582    3.0032    6.3975 H   0  0  0  0  0  0  0  0  0  0  0  0
    3.7353    2.6464    7.2803 H   0  0  0  0  0  0  0  0  0  0  0  0
    2.1994    1.9633    7.8174 H   0  0  0  0  0  0  0  0  0  0  0  0
    2.0695    7.8728    3.1656 H   0  0  0  0  0  0  0  0  0  0  0  0
    0.2576    3.5768    3.6594 H   0  0  0  0  0  0  0  0  0  0  0  0
   -1.5687    0.4435   -0.8297 H   0  0  0  0  0  0  0  0  0  0  0  0
   -1.7951   -1.0345   -2.7671 H   0  0  0  0  0  0  0  0  0  0  0  0
   -1.7118   -2.6168   -4.4973 H   0  0  0  0  0  0  0  0  0  0  0  0
   -2.1093   -4.3477   -4.4469 H   0  0  0  0  0  0  0  0  0  0  0  0
   -1.4860   -3.5559   -2.9842 H   0  0  0  0  0  0  0  0  0  0  0  0
   -5.4229   -2.6038   -1.1432 H   0  0  0  0  0  0  0  0  0  0  0  0
   -5.1872   -1.1208    0.8161 H   0  0  0  0  0  0  0  0  0  0  0  0
   -3.5352    0.8740    3.9110 H   0  0  0  0  0  0  0  0  0  0  0  0
   -5.3843    2.1494    4.9124 H   0  0  0  0  0  0  0  0  0  0  0  0
   -9.0460    3.3827    1.9735 H   0  0  0  0  0  0  0  0  0  0  0  0
   -9.3336    4.8031    2.9993 H   0  0  0  0  0  0  0  0  0  0  0  0
   -7.9662    4.8123    1.8635 H   0  0  0  0  0  0  0  0  0  0  0  0
   -7.0216    2.8256    1.0170 H   0  0  0  0  0  0  0  0  0  0  0  0
   -5.1880    1.5762    0.0286 H   0  0  0  0  0  0  0  0  0  0  0  0
    2.6579    0.2169    1.1779 H   0  0  0  0  0  0  0  0  0  0  0  0
    3.6837    2.3723    1.6880 H   0  0  0  0  0  0  0  0  0  0  0  0
    4.6268    5.5397    3.2850 H   0  0  0  0  0  0  0  0  0  0  0  0
    3.2711    4.5107    2.7733 H   0  0  0  0  0  0  0  0  0  0  0  0
    4.8859    4.3297    2.0111 H   0  0  0  0  0  0  0  0  0  0  0  0
    4.4890    1.0378    5.6709 H   0  0  0  0  0  0  0  0  0  0  0  0
    3.4259   -1.1250    5.1603 H   0  0  0  0  0  0  0  0  0  0  0  0
    0.9710   -3.9878    3.6803 H   0  0  0  0  0  0  0  0  0  0  0  0
    1.9926   -6.1369    4.2060 H   0  0  0  0  0  0  0  0  0  0  0  0
    2.8258   -8.3569    4.2625 H   0  0  0  0  0  0  0  0  0  0  0  0
    4.1911   -9.1072    3.4083 H   0  0  0  0  0  0  0  0  0  0  0  0
    3.2548   -7.8261    2.6052 H   0  0  0  0  0  0  0  0  0  0  0  0
    5.8693   -4.4603    3.5872 H   0  0  0  0  0  0  0  0  0  0  0  0
    4.8465   -2.2965    3.0162 H   0  0  0  0  0  0  0  0  0  0  0  0
    3.0470   -3.7956    1.0553 H   0  0  0  0  0  0  0  0  0  0  0  0
    4.8797   -3.6864   -0.2456 H   0  0  0  0  0  0  0  0  0  0  0  0
    9.1583   -7.5357   -0.4873 H   0  0  0  0  0  0  0  0  0  0  0  0
    9.8102   -5.9166   -0.4165 H   0  0  0  0  0  0  0  0  0  0  0  0
   11.6813   -6.7516    1.0433 H   0  0  0  0  0  0  0  0  0  0  0  0
   11.6441   -7.5416   -0.5321 H   0  0  0  0  0  0  0  0  0  0  0  0
   11.0365   -8.3850    0.8880 H   0  0  0  0  0  0  0  0  0  0  0  0
   10.4994   -5.7333    3.2499 H   0  0  0  0  0  0  0  0  0  0  0  0
    9.9865   -4.4079    2.2385 H   0  0  0  0  0  0  0  0  0  0  0  0
    8.0002   -4.0362    3.6141 H   0  0  0  0  0  0  0  0  0  0  0  0
    8.3322   -5.4777    4.5742 H   0  0  0  0  0  0  0  0  0  0  0  0
    9.4106   -4.0834    4.6624 H   0  0  0  0  0  0  0  0  0  0  0  0
    7.3744   -7.9024    3.3240 H   0  0  0  0  0  0  0  0  0  0  0  0
    7.9880   -8.8739    2.0100 H   0  0  0  0  0  0  0  0  0  0  0  0
   10.2725   -8.8249    3.0558 H   0  0  0  0  0  0  0  0  0  0  0  0
    9.6246   -7.8653    4.3817 H   0  0  0  0  0  0  0  0  0  0  0  0
    9.0606   -9.5143    4.1319 H   0  0  0  0  0  0  0  0  0  0  0  0
   -4.5214   -5.6618   -4.4600 H   0  0  0  0  0  0  0  0  0  0  0  0
   -4.1245   -7.2596   -5.0539 H   0  0  0  0  0  0  0  0  0  0  0  0
   -6.9511   -6.2575   -4.4910 H   0  0  0  0  0  0  0  0  0  0  0  0
   -6.5402   -7.8530   -5.1140 H   0  0  0  0  0  0  0  0  0  0  0  0
   -6.2106   -6.4171   -6.0809 H   0  0  0  0  0  0  0  0  0  0  0  0
   -4.4098   -5.1732   -1.4321 H   0  0  0  0  0  0  0  0  0  0  0  0
   -5.0698   -6.3706   -0.3491 H   0  0  0  0  0  0  0  0  0  0  0  0
   -6.6030   -4.8306   -2.4855 H   0  0  0  0  0  0  0  0  0  0  0  0
   -7.3091   -6.1281   -1.5206 H   0  0  0  0  0  0  0  0  0  0  0  0
   -6.7597   -4.6511   -0.7377 H   0  0  0  0  0  0  0  0  0  0  0  0
   -6.9142   -8.5488   -2.6101 H   0  0  0  0  0  0  0  0  0  0  0  0
   -5.6306   -9.6464   -3.0455 H   0  0  0  0  0  0  0  0  0  0  0  0
   -4.8767   -9.6971   -0.6503 H   0  0  0  0  0  0  0  0  0  0  0  0
   -6.2081   -8.6241   -0.2272 H   0  0  0  0  0  0  0  0  0  0  0  0
   -6.5414  -10.2423   -0.8400 H   0  0  0  0  0  0  0  0  0  0  0  0
   -0.2195   -9.6694   -1.8727 H   0  0  0  0  0  0  0  0  0  0  0  0
    1.3102   -9.0999   -3.3245 H   0  0  0  0  0  0  0  0  0  0  0  0
    5.0396  -10.2642   -3.6258 H   0  0  0  0  0  0  0  0  0  0  0  0
    0.3155  -10.8223   -7.6970 H   0  0  0  0  0  0  0  0  0  0  0  0
    4.7839  -13.1592   -8.1748 H   0  0  0  0  0  0  0  0  0  0  0  0
    2.5892  -14.2541  -10.5801 H   0  0  0  0  0  0  0  0  0  0  0  0
    4.0920  -12.9464  -12.0731 H   0  0  0  0  0  0  0  0  0  0  0  0
    4.4649  -10.6320  -10.9147 H   0  0  0  0  0  0  0  0  0  0  0  0
    2.1113   -9.4204  -10.6997 H   0  0  0  0  0  0  0  0  0  0  0  0
    0.2872  -10.9871  -11.7291 H   0  0  0  0  0  0  0  0  0  0  0  0
    1.5091  -13.1288  -12.8097 H   0  0  0  0  0  0  0  0  0  0  0  0
    2.2331  -11.6163  -13.4109 H   0  0  0  0  0  0  0  0  0  0  0  0
    0.3002  -13.0775  -10.3749 H   0  0  0  0  0  0  0  0  0  0  0  0
  1  2  2  0  0  0  0
  2  3  1  0  0  0  0
  3  4  2  0  0  0  0
  3  5  1  0  0  0  0
  5  6  2  0  0  0  0
  6  7  1  0  0  0  0
  7  8  2  0  0  0  0
  8  9  1  0  0  0  0
  9 10  2  0  0  0  0
 10 11  1  0  0  0  0
 11 12  2  0  0  0  0
 12 13  1  0  0  0  0
 13 14  3  0  0  0  0
 12 15  1  0  0  0  0
 15 16  3  0  0  0  0
  8 17  1  0  0  0  0
 17 18  1  0  0  0  0
 18 19  1  0  0  0  0
 19 20  2  0  0  0  0
 20 21  1  0  0  0  0
 21 22  1  0  0  0  0
 21 23  1  0  0  0  0
  1 24  1  0  0  0  0
 24 25  2  0  0  0  0
 25 26  1  0  0  0  0
 26 27  2  0  0  0  0
 27 28  1  0  0  0  0
 28 29  2  0  0  0  0
 29 30  1  0  0  0  0
 30 31  1  0  0  0  0
 30 32  2  0  0  0  0
 32 33  1  0  0  0  0
 33 34  1  0  0  0  0
 34 35  1  0  0  0  0
 33 36  1  0  0  0  0
 36 37  1  0  0  0  0
 33 38  1  0  0  0  0
 38 39  1  0  0  0  0
 32 40  1  0  0  0  0
 27 41  1  0  0  0  0
 41 42  2  0  0  0  0
 42 43  1  0  0  0  0
 43 44  1  0  0  0  0
 44 45  1  0  0  0  0
 45 46  1  0  0  0  0
 46 47  1  0  0  0  0
 47 48  1  0  0  0  0
 48 49  1  0  0  0  0
 47 50  1  0  0  0  0
 50 51  1  0  0  0  0
 47 52  1  0  0  0  0
 52 53  1  0  0  0  0
 46 54  2  0  0  0  0
 54 55  1  0  0  0  0
 54 56  1  0  0  0  0
 43 57  2  0  0  0  0
 57 58  1  0  0  0  0
 42 59  1  0  0  0  0
 59 60  2  0  0  0  0
 60 61  1  0  0  0  0
 60 62  1  0  0  0  0
 62 63  2  0  0  0  0
 63 64  1  0  0  0  0
 64 65  1  0  0  0  0
 65 66  2  0  0  0  0
 66 67  1  0  0  0  0
 67 68  2  0  0  0  0
 68 69  1  0  0  0  0
 69 70  1  0  0  0  0
 68 71  1  0  0  0  0
 71 72  2  0  0  0  0
 64 73  1  0  0  0  0
 73 74  2  0  0  0  0
 74 75  1  0  0  0  0
 75 76  2  0  0  0  0
 76 77  1  0  0  0  0
 77 78  1  0  0  0  0
 76 79  1  0  0  0  0
 79 80  2  0  0  0  0
 63 81  1  0  0  0  0
 81 82  1  0  0  0  0
 82 83  1  0  0  0  0
 83 84  2  0  0  0  0
 84 85  1  0  0  0  0
 85 86  1  0  0  0  0
 86 87  2  0  0  0  0
 87 88  1  0  0  0  0
 88 89  2  0  0  0  0
 89 90  1  0  0  0  0
 90 91  1  0  0  0  0
 89 92  1  0  0  0  0
 92 93  2  0  0  0  0
 85 94  1  0  0  0  0
 94 95  2  0  0  0  0
 95 96  1  0  0  0  0
 96 97  2  0  0  0  0
 97 98  1  0  0  0  0
 98 99  1  0  0  0  0
 97100  1  0  0  0  0
100101  2  0  0  0  0
 84102  1  0  0  0  0
102103  1  0  0  0  0
 83104  1  0  0  0  0
104105  2  0  0  0  0
105106  1  0  0  0  0
106107  2  0  0  0  0
107108  1  0  0  0  0
108109  2  0  0  0  0
109110  1  0  0  0  0
110111  1  0  0  0  0
110112  2  0  0  0  0
112113  1  0  0  0  0
113114  1  0  0  0  0
114115  1  0  0  0  0
113116  1  0  0  0  0
116117  1  0  0  0  0
113118  1  0  0  0  0
118119  1  0  0  0  0
112120  1  0  0  0  0
107121  1  0  0  0  0
121122  2  0  0  0  0
122123  1  0  0  0  0
123124  1  0  0  0  0
124125  1  0  0  0  0
125126  1  0  0  0  0
126127  1  0  0  0  0
127128  1  0  0  0  0
128129  1  0  0  0  0
127130  1  0  0  0  0
130131  1  0  0  0  0
127132  1  0  0  0  0
132133  1  0  0  0  0
126134  2  0  0  0  0
134135  1  0  0  0  0
134136  1  0  0  0  0
123137  2  0  0  0  0
137138  1  0  0  0  0
122139  1  0  0  0  0
139140  2  0  0  0  0
140141  1  0  0  0  0
140142  1  0  0  0  0
142143  2  0  0  0  0
143144  1  0  0  0  0
144145  2  0  0  0  0
144146  1  0  0  0  0
146147  2  0  0  0  0
147148  1  0  0  0  0
148149  2  0  0  0  0
149150  1  0  0  0  0
150151  2  0  0  0  0
151152  1  0  0  0  0
152153  2  0  0  0  0
153154  1  0  0  0  0
154155  3  0  0  0  0
153156  1  0  0  0  0
156157  3  0  0  0  0
149158  1  0  0  0  0
158159  1  0  0  0  0
159160  1  0  0  0  0
160161  2  0  0  0  0
161162  1  0  0  0  0
162163  1  0  0  0  0
162164  1  0  0  0  0
 11  2  1  0  0  0  0
 23 17  1  0  0  0  0
 58 24  1  0  0  0  0
103 62  1  0  0  0  0
138104  1  0  0  0  0
152143  1  0  0  0  0
164158  1  0  0  0  0
 10  5  1  0  0  0  0
 22 18  1  0  0  0  0
 57 26  1  0  0  0  0
 72 65  1  0  0  0  0
 80 73  1  0  0  0  0
102 81  2  0  0  0  0
137106  1  0  0  0  0
151146  1  0  0  0  0
163159  1  0  0  0  0
 23  7  1  0  0  0  0
 40 28  1  0  0  0  0
 61 41  1  0  0  0  0
 93 86  1  0  0  0  0
101 94  1  0  0  0  0
120108  1  0  0  0  0
141121  1  0  0  0  0
164148  1  0  0  0  0
 55 44  2  0  0  0  0
135124  2  0  0  0  0
  1165  1  0  0  0  0
  6166  1  0  0  0  0
  9167  1  0  0  0  0
 17168  1  0  0  0  0
 18169  1  0  0  0  0
 19170  1  0  0  0  0
 20171  1  0  0  0  0
 21172  1  0  0  0  0
 22173  1  0  0  0  0
 22174  1  0  0  0  0
 23175  1  0  0  0  0
 25176  1  0  0  0  0
 29177  1  0  0  0  0
 34178  1  0  0  0  0
 34179  1  0  0  0  0
 35180  1  0  0  0  0
 35181  1  0  0  0  0
 35182  1  0  0  0  0
 36183  1  0  0  0  0
 36184  1  0  0  0  0
 37185  1  0  0  0  0
 37186  1  0  0  0  0
 37187  1  0  0  0  0
 38188  1  0  0  0  0
 38189  1  0  0  0  0
 39190  1  0  0  0  0
 39191  1  0  0  0  0
 39192  1  0  0  0  0
 48193  1  0  0  0  0
 48194  1  0  0  0  0
 49195  1  0  0  0  0
 49196  1  0  0  0  0
 49197  1  0  0  0  0
 50198  1  0  0  0  0
 50199  1  0  0  0  0
 51200  1  0  0  0  0
 51201  1  0  0  0  0
 51202  1  0  0  0  0
 52203  1  0  0  0  0
 52204  1  0  0  0  0
 53205  1  0  0  0  0
 53206  1  0  0  0  0
 53207  1  0  0  0  0
 55208  1  0  0  0  0
 59209  1  0  0  0  0
 66210  1  0  0  0  0
 67211  1  0  0  0  0
 70212  1  0  0  0  0
 70213  1  0  0  0  0
 70214  1  0  0  0  0
 71215  1  0  0  0  0
 72216  1  0  0  0  0
 74217  1  0  0  0  0
 75218  1  0  0  0  0
 78219  1  0  0  0  0
 78220  1  0  0  0  0
 78221  1  0  0  0  0
 79222  1  0  0  0  0
 80223  1  0  0  0  0
 87224  1  0  0  0  0
 88225  1  0  0  0  0
 91226  1  0  0  0  0
 91227  1  0  0  0  0
 91228  1  0  0  0  0
 92229  1  0  0  0  0
 93230  1  0  0  0  0
 95231  1  0  0  0  0
 96232  1  0  0  0  0
 99233  1  0  0  0  0
 99234  1  0  0  0  0
 99235  1  0  0  0  0
100236  1  0  0  0  0
101237  1  0  0  0  0
105238  1  0  0  0  0
109239  1  0  0  0  0
114240  1  0  0  0  0
114241  1  0  0  0  0
115242  1  0  0  0  0
115243  1  0  0  0  0
115244  1  0  0  0  0
116245  1  0  0  0  0
116246  1  0  0  0  0
117247  1  0  0  0  0
117248  1  0  0  0  0
117249  1  0  0  0  0
118250  1  0  0  0  0
118251  1  0  0  0  0
119252  1  0  0  0  0
119253  1  0  0  0  0
119254  1  0  0  0  0
128255  1  0  0  0  0
128256  1  0  0  0  0
129257  1  0  0  0  0
129258  1  0  0  0  0
129259  1  0  0  0  0
130260  1  0  0  0  0
130261  1  0  0  0  0
131262  1  0  0  0  0
131263  1  0  0  0  0
131264  1  0  0  0  0
132265  1  0  0  0  0
132266  1  0  0  0  0
133267  1  0  0  0  0
133268  1  0  0  0  0
133269  1  0  0  0  0
135270  1  0  0  0  0
139271  1  0  0  0  0
142272  1  0  0  0  0
147273  1  0  0  0  0
150274  1  0  0  0  0
158275  1  0  0  0  0
159276  1  0  0  0  0
160277  1  0  0  0  0
161278  1  0  0  0  0
162279  1  0  0  0  0
163280  1  0  0  0  0
163281  1  0  0  0  0
164282  1  0  0  0  0
M  END
