218

C          4.92950        5.94330       -5.35180
C          5.67570        6.35580       -4.28020
C          5.87990        5.59130       -3.04540
O          5.52640        4.44700       -2.81320
C          6.64610        6.46230       -2.14010
C          7.03840        6.17670       -0.83350
C          7.73910        7.19030       -0.22570
C          8.03320        8.39830       -0.87250
C          7.65130        8.69300       -2.16020
C          6.93120        7.67650       -2.79740
C          6.35260        7.62900       -4.14150
C          6.41540        8.64010       -5.06550
C          5.87660        8.59910       -6.36850
N          5.48580        8.65030       -7.44750
C          7.03680        9.88600       -4.84320
N          7.51460       10.92380       -4.72560
C          8.77570        8.94870        0.31950
C         10.31680        8.92630        0.24070
C         10.75430        9.05930        1.68160
C         10.47470        7.91660        2.29540
C          9.84370        6.99180        1.27950
C         10.59550        7.43430        0.01750
C          8.44630        7.60250        1.04150
C          4.05570        4.84960       -5.45150
C          3.21370        4.66200       -6.53710
C          2.23760        3.68340       -6.35110
C          1.25700        3.37170       -7.38790
O          0.51490        2.41540       -7.40370
O          1.25810        4.26810       -8.38560
C          2.29160        3.11560       -5.06580
S          3.67950        3.69490       -4.19790
C          1.38280        2.25070       -4.40620
C          1.13210        2.19850       -3.02620
N          1.53870        3.08120       -2.04380
C          1.75730        2.55960       -0.75090
C          1.20280        3.18980        0.36230
C          1.43080        2.69070        1.62430
C          2.22100        1.55550        1.80570
S          2.46430        1.02620        3.46840
C          3.70990       -0.28340        3.34020
C          2.76740        0.92260        0.69710
C          2.53490        1.42050       -0.57080
C          1.75900        4.44100       -2.26110
C          1.06030        5.15000       -3.24190
C          1.40420        6.45010       -3.53600
C          2.42820        7.08870       -2.83770
S          2.89250        8.70200       -3.38580
C          3.81140        9.38960       -1.97710
C          3.06140        6.42030       -1.79930
C          2.73330        5.11040       -1.51940
C          0.29340        1.10530       -2.71610
S         -0.40600        0.52020       -1.25040
C         -1.22570       -0.77440       -2.13210
C         -0.96390       -0.73160       -3.48650
N         -1.37790       -1.67630       -4.40820
C         -2.68120       -2.19910       -4.32700
C         -2.88710       -3.57360       -4.26860
C         -4.16550       -4.08830       -4.19950
C         -5.25940       -3.23190       -4.19360
S         -6.92690       -3.80900       -4.15060
C         -6.77280       -5.45810       -3.39820
C         -5.05980       -1.85580       -4.26550
C         -3.78130       -1.34280       -4.32590
C         -0.49230       -2.14410       -5.38170
C         -0.97590       -2.71080       -6.56270
C         -0.10410       -3.18500       -7.51720
C          1.27340       -3.08060       -7.33540
S          2.30240       -3.74840       -8.60780
C          3.97960       -3.28570       -8.08970
C          1.75990       -2.49680       -6.17510
C          0.88610       -2.05590       -5.20170
C         -0.10280        0.35450       -3.80840
S          0.48350        1.01730       -5.29050
C         -1.98820       -1.64870       -1.28360
C         -1.43670       -2.23000       -0.15390
N         -0.06510       -2.35040        0.03000
C          0.41860       -2.31800        1.34380
C         -0.11190       -1.39030        2.23790
C          0.24270       -1.41930        3.57010
C          1.14110       -2.37370        4.02520
S          1.58520       -2.49680        5.73360
C         -0.01880       -2.16530        6.52160
C          1.72860       -3.25500        3.12480
C          1.36980       -3.23220        1.79400
C          0.72180       -2.84690       -1.01800
C          2.05490       -2.45480       -1.13640
C          2.85570       -2.99120       -2.12040
C          2.34410       -3.92710       -3.01750
S          3.46850       -4.58440       -4.20950
C          2.47770       -5.78070       -5.14600
C          1.00740       -4.28920       -2.93110
C          0.20780       -3.75510       -1.94010
C         -2.42520       -2.72580        0.72420
S         -2.38260       -3.43480        2.29560
C         -4.14730       -3.53760        2.30610
C         -4.70940       -3.09210        1.08070
N         -6.04170       -3.12920        0.75040
C         -6.55300       -2.10080       -0.06260
C         -6.18460       -0.78030        0.17770
C         -6.63430        0.23770       -0.63960
C         -7.47260       -0.05100       -1.70810
S         -8.08220        1.14870       -2.84630
C         -7.37490        2.71410       -2.25900
C         -7.87380       -1.36790       -1.92790
C         -7.41880       -2.38190       -1.11790
C         -6.85170       -4.23550        1.05170
C         -8.21700       -4.06520        1.28630
C         -9.01120       -5.15460        1.56490
C         -8.46410       -6.43440        1.62990
S         -9.57760       -7.74880        2.00780
C         -8.49020       -9.17660        2.28740
C         -7.10790       -6.60940        1.38350
C         -6.31280       -5.51960        1.09010
C         -3.71550       -2.57460        0.23270
S         -3.73610       -1.81060       -1.32810
C         -4.91650       -3.88380        3.41500
C         -4.54060       -4.24360        4.69150
C         -3.17570       -4.42520        5.18310
O         -2.12750       -4.21800        4.58920
C         -3.29010       -4.90450        6.57060
C         -2.24690       -5.21950        7.43740
C         -2.66110       -5.64180        8.67790
C         -4.01330       -5.74450        9.02760
C         -5.05170       -5.43420        8.18050
C         -4.65300       -5.00130        6.91380
C         -5.45020       -4.55490        5.76960
C         -6.81830       -4.41850        5.76790
C         -7.66010       -4.81100        6.82770
N         -8.41090       -5.12490        7.63850
C         -7.58240       -3.82590        4.74500
N         -8.27540       -3.31310        3.98350
C         -3.69870       -6.24180       10.41620
C         -3.86390       -7.75620       10.69510
C         -3.67180       -8.45940        9.37450
C         -2.39080       -8.36010        9.04520
C         -1.69360       -7.58740       10.13730
C         -2.50770       -8.04780       11.35700
C         -2.19110       -6.12500       10.02720
H          4.92370        6.57550       -6.23080
H          6.78920        5.23210       -0.37580
H          7.88420        9.62880       -2.63930
H          8.38450        9.87450        0.73720
H         10.74600        9.62870       -0.46840
H         11.15840        9.96000        2.10510
H         10.59840        7.67180        3.33400
H          9.84280        5.93140        1.51700
H         11.65790        7.20240        0.06920
H         10.18170        7.03830       -0.90820
H          7.83460        7.62990        1.94160
H          3.28020        5.25450       -7.43190
H          0.61000        4.00700       -9.05860
H          0.59650        4.07290        0.22550
H          1.00330        3.17370        2.48930
H          3.31770       -1.11770        2.76630
H          3.89780       -0.60600        4.35980
H          4.61890        0.11650        2.90030
H          3.38980        0.04980        0.81250
H          2.96940        0.93280       -1.43120
H          0.26700        4.66660       -3.79180
H          0.88990        6.98570       -4.31900
H          3.97930       10.43410       -2.22120
H          3.20870        9.30930       -1.07760
H          4.76670        8.88630       -1.85520
H          3.83870        6.89680       -1.22310
H          3.27410        4.58180       -0.75040
H         -2.03520       -4.23740       -4.28330
H         -4.29960       -5.15750       -4.15770
H         -6.14640       -5.39480       -2.51330
H         -6.37230       -6.16960       -4.11460
H         -7.78020       -5.75210       -3.12010
H         -5.91540       -1.19890       -4.27060
H         -3.62250       -0.27610       -4.37630
H         -2.04030       -2.77520       -6.73030
H         -0.48200       -3.63230       -8.42380
H          4.63690       -3.64490       -8.87550
H          4.23060       -3.76750       -7.14890
H          4.05310       -2.20500       -8.01080
H          2.81770       -2.39550       -5.99980
H          1.28960       -1.65020       -4.28740
H         -0.81040       -0.64840        1.87930
H         -0.18250       -0.69690        4.24790
H         -0.20610       -1.09620        6.56520
H         -0.78890       -2.67730        5.95220
H          0.04260       -2.56700        7.52830
H          2.44490       -3.97790        3.48440
H          1.79720       -3.94690        1.10650
H          2.45320       -1.73260       -0.44100
H          3.89030       -2.69450       -2.20490
H          2.11160       -6.55760       -4.48100
H          1.66300       -5.27210       -5.65440
H          3.15330       -6.21360       -5.87760
H          0.57900       -4.99830       -3.62110
H         -0.82510       -4.06280       -1.86910
H         -5.53850       -0.54990        1.01210
H         -6.32370        1.24790       -0.42840
H         -7.73070        2.92940       -1.25570
H         -7.73480        3.47260       -2.94720
H         -6.29040        2.66870       -2.29430
H         -8.53060       -1.58860       -2.75460
H         -7.72470       -3.39880       -1.30660
H         -8.64580       -3.07670        1.26240
H        -10.06380       -5.02230        1.75760
H         -8.01390       -9.47720        1.35850
H         -9.13930       -9.97200        2.63990
H         -7.75510       -8.93490        3.04940
H         -6.65840       -7.58920        1.40500
H         -5.26060       -5.66600        0.89220
H         -5.98340       -3.83850        3.23620
H         -1.21800       -5.13010        7.12530
H         -6.08610       -5.51760        8.46860
H         -4.06300       -5.62740       11.23720
H         -4.76000       -8.01720       11.25160
H         -4.47330       -8.89240        8.80500
H         -1.90760       -8.69320        8.14530
H         -0.61310       -7.69450       10.18690
H         -2.32440       -7.45290       12.25070
H         -2.36740       -9.10380       11.58300
H         -1.57160       -5.43220       10.59360
