
  xtb     02062206243D
 energy: -410.117804266832 gnorm: 0.000404139866 xtb: 6.4.1 (unknown)
258283  0     0  0            999 V2000
   -4.2362   -9.3718   -1.5032 C   0  0  0  0  0  0  0  0  0  0  0  0
   -3.8276   -9.9329   -2.6809 C   0  0  0  0  0  0  0  0  0  0  0  0
   -2.7523   -9.4403   -3.5779 C   0  0  0  0  0  0  0  0  0  0  0  0
   -2.0491   -8.4561   -3.4536 O   0  0  0  0  0  0  0  0  0  0  0  0
   -2.6135  -10.4514   -4.6378 C   0  0  0  0  0  0  0  0  0  0  0  0
   -1.7428  -10.3926   -5.7251 C   0  0  0  0  0  0  0  0  0  0  0  0
   -1.8361  -11.4690   -6.5722 C   0  0  0  0  0  0  0  0  0  0  0  0
   -2.7226  -12.5319   -6.3486 C   0  0  0  0  0  0  0  0  0  0  0  0
   -3.5834  -12.6025   -5.2794 C   0  0  0  0  0  0  0  0  0  0  0  0
   -3.5111  -11.5114   -4.4064 C   0  0  0  0  0  0  0  0  0  0  0  0
   -4.2746  -11.2169   -3.1961 C   0  0  0  0  0  0  0  0  0  0  0  0
   -5.2833  -11.9953   -2.6907 C   0  0  0  0  0  0  0  0  0  0  0  0
   -5.6840  -13.2345   -3.2337 C   0  0  0  0  0  0  0  0  0  0  0  0
   -6.0618  -14.2512   -3.6107 N   0  0  0  0  0  0  0  0  0  0  0  0
   -6.0871  -11.6875   -1.5721 C   0  0  0  0  0  0  0  0  0  0  0  0
   -6.8018  -11.5150   -0.6896 N   0  0  0  0  0  0  0  0  0  0  0  0
   -2.2797  -13.2663   -7.5898 C   0  0  0  0  0  0  0  0  0  0  0  0
   -1.3265  -14.4623   -7.3826 C   0  0  0  0  0  0  0  0  0  0  0  0
   -0.7009  -14.6652   -8.7437 C   0  0  0  0  0  0  0  0  0  0  0  0
    0.1351  -13.6573   -8.9581 C   0  0  0  0  0  0  0  0  0  0  0  0
    0.0887  -12.7561   -7.7454 C   0  0  0  0  0  0  0  0  0  0  0  0
   -0.1524  -13.8014   -6.6487 C   0  0  0  0  0  0  0  0  0  0  0  0
   -1.2950  -12.0793   -7.8408 C   0  0  0  0  0  0  0  0  0  0  0  0
   -3.9681   -8.0650   -1.0336 C   0  0  0  0  0  0  0  0  0  0  0  0
   -3.6181   -6.9423   -1.7412 C   0  0  0  0  0  0  0  0  0  0  0  0
   -3.4191   -5.8055   -0.9392 C   0  0  0  0  0  0  0  0  0  0  0  0
   -2.9468   -4.5425   -1.3519 C   0  0  0  0  0  0  0  0  0  0  0  0
   -2.4687   -4.2821   -2.6899 C   0  0  0  0  0  0  0  0  0  0  0  0
   -2.4764   -3.1006   -3.3840 C   0  0  0  0  0  0  0  0  0  0  0  0
   -1.7356   -3.1831   -4.5769 C   0  0  0  0  0  0  0  0  0  0  0  0
   -1.5563   -1.8521   -5.6473 Cl  0  0  0  0  0  0  0  0  0  0  0  0
   -1.1476   -4.3935   -4.8164 C   0  0  0  0  0  0  0  0  0  0  0  0
    0.0398   -4.9015   -6.1945 Si  0  0  0  0  0  4  0  0  0  0  0  0
   -0.9095   -4.8527   -7.8541 C   0  0  0  0  0  0  0  0  0  0  0  0
   -0.0010   -4.7784   -9.0770 C   0  0  0  0  0  0  0  0  0  0  0  0
    0.6115   -6.6630   -5.7044 C   0  0  0  0  0  0  0  0  0  0  0  0
    1.1783   -7.4895   -6.8538 C   0  0  0  0  0  0  0  0  0  0  0  0
    1.5094   -3.6705   -6.1825 C   0  0  0  0  0  0  0  0  0  0  0  0
    1.9473   -3.2502   -4.7817 C   0  0  0  0  0  0  0  0  0  0  0  0
   -1.5446   -5.4823   -3.5442 S   0  0  0  0  0  0  0  0  0  0  0  0
   -2.7867   -3.5944   -0.3525 C   0  0  0  0  0  0  0  0  0  0  0  0
   -3.0183   -3.8453    1.0228 C   0  0  0  0  0  0  0  0  0  0  0  0
   -3.4867   -5.1091    1.4309 C   0  0  0  0  0  0  0  0  0  0  0  0
   -3.6980   -5.4396    2.8267 C   0  0  0  0  0  0  0  0  0  0  0  0
   -5.1189   -6.3099    3.3213 S   0  0  0  0  0  0  0  0  0  0  0  0
   -4.6398   -6.3167    4.9794 C   0  0  0  0  0  0  0  0  0  0  0  0
   -5.6485   -7.2251    6.2988 Si  0  0  0  0  0  4  0  0  0  0  0  0
   -4.5874   -8.7131    6.8678 C   0  0  0  0  0  0  0  0  0  0  0  0
   -4.0451   -9.5386    5.7041 C   0  0  0  0  0  0  0  0  0  0  0  0
   -7.2535   -7.8290    5.4549 C   0  0  0  0  0  0  0  0  0  0  0  0
   -8.2354   -6.7076    5.1262 C   0  0  0  0  0  0  0  0  0  0  0  0
   -6.0207   -6.0305    7.7432 C   0  0  0  0  0  0  0  0  0  0  0  0
   -6.8617   -6.6805    8.8370 C   0  0  0  0  0  0  0  0  0  0  0  0
   -3.4364   -5.6824    5.1006 C   0  0  0  0  0  0  0  0  0  0  0  0
   -2.8978   -5.1747    3.9025 C   0  0  0  0  0  0  0  0  0  0  0  0
   -2.6281   -5.5226    6.6069 Cl  0  0  0  0  0  0  0  0  0  0  0  0
   -3.6888   -6.0565    0.4308 C   0  0  0  0  0  0  0  0  0  0  0  0
   -4.1583   -7.7114    0.6792 S   0  0  0  0  0  0  0  0  0  0  0  0
   -2.5805   -2.7620    1.8329 C   0  0  0  0  0  0  0  0  0  0  0  0
   -1.9698   -1.7750    1.1258 C   0  0  0  0  0  0  0  0  0  0  0  0
   -2.0858   -2.0298   -0.6069 S   0  0  0  0  0  0  0  0  0  0  0  0
   -1.1550   -0.6689    1.5378 C   0  0  0  0  0  0  0  0  0  0  0  0
    0.1080   -0.4238    1.0194 C   0  0  0  0  0  0  0  0  0  0  0  0
    0.8239   -1.2933    0.2111 N   0  0  0  0  0  0  0  0  0  0  0  0
    1.5891   -0.7667   -0.8402 C   0  0  0  0  0  0  0  0  0  0  0  0
    2.8172   -1.3346   -1.1643 C   0  0  0  0  0  0  0  0  0  0  0  0
    3.5690   -0.8393   -2.2108 C   0  0  0  0  0  0  0  0  0  0  0  0
    3.1064    0.2431   -2.9470 C   0  0  0  0  0  0  0  0  0  0  0  0
    3.9712    0.9574   -4.3104 S   0  0  0  0  0  0  0  0  0  0  0  0
    5.4962   -0.0211   -4.4256 C   0  0  0  0  0  0  0  0  0  0  0  0
    1.8811    0.8201   -2.6201 C   0  0  0  0  0  0  0  0  0  0  0  0
    1.1273    0.3198   -1.5823 C   0  0  0  0  0  0  0  0  0  0  0  0
    0.6910   -2.6841    0.3419 C   0  0  0  0  0  0  0  0  0  0  0  0
    0.5259   -3.2722    1.5962 C   0  0  0  0  0  0  0  0  0  0  0  0
    0.2766   -4.6226    1.7040 C   0  0  0  0  0  0  0  0  0  0  0  0
    0.1880   -5.4221    0.5668 C   0  0  0  0  0  0  0  0  0  0  0  0
   -0.2723   -7.1065    0.8165 S   0  0  0  0  0  0  0  0  0  0  0  0
   -0.1139   -7.8655   -0.8235 C   0  0  0  0  0  0  0  0  0  0  0  0
    0.4291   -4.8568   -0.6777 C   0  0  0  0  0  0  0  0  0  0  0  0
    0.6751   -3.5030   -0.7865 C   0  0  0  0  0  0  0  0  0  0  0  0
    0.5997    0.8257    1.4731 C   0  0  0  0  0  0  0  0  0  0  0  0
    2.0018    1.7758    1.1089 S   0  0  0  0  0  0  0  0  0  0  0  0
    1.4085    3.0537    2.1361 C   0  0  0  0  0  0  0  0  0  0  0  0
    0.1795    2.7753    2.7017 C   0  0  0  0  0  0  0  0  0  0  0  0
   -0.5694    3.7247    3.3997 N   0  0  0  0  0  0  0  0  0  0  0  0
   -0.9436    3.4709    4.7162 C   0  0  0  0  0  0  0  0  0  0  0  0
   -2.0194    4.1415    5.3024 C   0  0  0  0  0  0  0  0  0  0  0  0
   -2.3428    3.9137    6.6206 C   0  0  0  0  0  0  0  0  0  0  0  0
   -1.6191    2.9986    7.3832 C   0  0  0  0  0  0  0  0  0  0  0  0
   -2.0961    2.8260    9.0780 S   0  0  0  0  0  0  0  0  0  0  0  0
   -0.7896    1.7839    9.7906 C   0  0  0  0  0  0  0  0  0  0  0  0
   -0.5821    2.2921    6.7917 C   0  0  0  0  0  0  0  0  0  0  0  0
   -0.2454    2.5325    5.4740 C   0  0  0  0  0  0  0  0  0  0  0  0
   -0.7027    4.9835    2.7852 C   0  0  0  0  0  0  0  0  0  0  0  0
   -0.8944    5.0386    1.4060 C   0  0  0  0  0  0  0  0  0  0  0  0
   -0.9271    6.2459    0.7370 C   0  0  0  0  0  0  0  0  0  0  0  0
   -0.7635    7.4324    1.4386 C   0  0  0  0  0  0  0  0  0  0  0  0
   -0.7092    9.0315    0.6978 S   0  0  0  0  0  0  0  0  0  0  0  0
   -1.1521    8.7393   -1.0385 C   0  0  0  0  0  0  0  0  0  0  0  0
   -0.6082    7.3870    2.8228 C   0  0  0  0  0  0  0  0  0  0  0  0
   -0.5886    6.1824    3.4898 C   0  0  0  0  0  0  0  0  0  0  0  0
   -0.2655    1.4847    2.3347 C   0  0  0  0  0  0  0  0  0  0  0  0
   -1.6949    0.5684    2.6540 S   0  0  0  0  0  0  0  0  0  0  0  0
    2.0802    4.3178    2.3065 C   0  0  0  0  0  0  0  0  0  0  0  0
    2.5110    5.2367    1.3970 C   0  0  0  0  0  0  0  0  0  0  0  0
    2.8278    6.4105    2.1347 C   0  0  0  0  0  0  0  0  0  0  0  0
    3.2225    7.7014    1.7616 C   0  0  0  0  0  0  0  0  0  0  0  0
    3.3523    8.2086    0.3943 C   0  0  0  0  0  0  0  0  0  0  0  0
    4.3301    9.1542    0.0867 C   0  0  0  0  0  0  0  0  0  0  0  0
    4.3802    9.7355   -1.1634 C   0  0  0  0  0  0  0  0  0  0  0  0
    3.4635    9.3916   -2.1484 C   0  0  0  0  0  0  0  0  0  0  0  0
    3.5305   10.0221   -3.5085 C   0  0  0  0  0  0  0  0  0  0  0  0
    4.4693    9.2322   -4.4226 C   0  0  0  0  0  0  0  0  0  0  0  0
    2.5115    8.4245   -1.8526 C   0  0  0  0  0  0  0  0  0  0  0  0
    2.4491    7.8432   -0.6012 C   0  0  0  0  0  0  0  0  0  0  0  0
    3.3812    8.5597    2.8399 C   0  0  0  0  0  0  0  0  0  0  0  0
    3.1963    8.2247    4.2067 C   0  0  0  0  0  0  0  0  0  0  0  0
    2.8207    6.9196    4.5822 C   0  0  0  0  0  0  0  0  0  0  0  0
    2.6591    6.5022    5.9749 C   0  0  0  0  0  0  0  0  0  0  0  0
    1.6976    5.5621    6.3448 C   0  0  0  0  0  0  0  0  0  0  0  0
    1.5327    5.2000    7.6655 C   0  0  0  0  0  0  0  0  0  0  0  0
    2.3328    5.7417    8.6632 C   0  0  0  0  0  0  0  0  0  0  0  0
    2.1695    5.3064   10.0902 C   0  0  0  0  0  0  0  0  0  0  0  0
    3.0025    4.0518   10.3628 C   0  0  0  0  0  0  0  0  0  0  0  0
    3.3217    6.6451    8.2927 C   0  0  0  0  0  0  0  0  0  0  0  0
    3.4828    7.0231    6.9744 C   0  0  0  0  0  0  0  0  0  0  0  0
    2.6074    6.0720    3.4984 C   0  0  0  0  0  0  0  0  0  0  0  0
    2.1560    4.7975    3.5774 O   0  0  0  0  0  0  0  0  0  0  0  0
    3.3698    9.4482    4.9085 C   0  0  0  0  0  0  0  0  0  0  0  0
    3.6232   10.4169    3.9657 C   0  0  0  0  0  0  0  0  0  0  0  0
    3.6583    9.8724    2.7184 O   0  0  0  0  0  0  0  0  0  0  0  0
    3.8600   11.8193    4.0423 C   0  0  0  0  0  0  0  0  0  0  0  0
    3.7766   12.6475    2.9675 C   0  0  0  0  0  0  0  0  0  0  0  0
    4.5228   13.9350    2.9067 C   0  0  0  0  0  0  0  0  0  0  0  0
    4.9827   14.5571    3.8364 O   0  0  0  0  0  0  0  0  0  0  0  0
    4.6457   14.2340    1.4636 C   0  0  0  0  0  0  0  0  0  0  0  0
    5.4065   15.2393    0.8686 C   0  0  0  0  0  0  0  0  0  0  0  0
    5.3552   15.2445   -0.5050 C   0  0  0  0  0  0  0  0  0  0  0  0
    4.5976   14.3232   -1.2421 C   0  0  0  0  0  0  0  0  0  0  0  0
    3.8365   13.3316   -0.6727 C   0  0  0  0  0  0  0  0  0  0  0  0
    3.8810   13.3072    0.7230 C   0  0  0  0  0  0  0  0  0  0  0  0
    3.2003   12.4168    1.6535 C   0  0  0  0  0  0  0  0  0  0  0  0
    2.0717   11.6886    1.3868 C   0  0  0  0  0  0  0  0  0  0  0  0
    1.3292   11.0642    2.4118 C   0  0  0  0  0  0  0  0  0  0  0  0
    0.7096   10.6022    3.2602 N   0  0  0  0  0  0  0  0  0  0  0  0
    1.5052   11.5513    0.1055 C   0  0  0  0  0  0  0  0  0  0  0  0
    1.0231   11.4105   -0.9273 N   0  0  0  0  0  0  0  0  0  0  0  0
    5.0213   14.9093   -2.5650 C   0  0  0  0  0  0  0  0  0  0  0  0
    6.0918   14.1468   -3.3842 C   0  0  0  0  0  0  0  0  0  0  0  0
    6.9132   13.3634   -2.3910 C   0  0  0  0  0  0  0  0  0  0  0  0
    7.6349   14.2282   -1.6909 C   0  0  0  0  0  0  0  0  0  0  0  0
    7.3169   15.6123   -2.2002 C   0  0  0  0  0  0  0  0  0  0  0  0
    7.0602   15.3020   -3.6839 C   0  0  0  0  0  0  0  0  0  0  0  0
    5.8707   15.9316   -1.7458 C   0  0  0  0  0  0  0  0  0  0  0  0
   -4.8234   -9.9806   -0.8271 H   0  0  0  0  0  0  0  0  0  0  0  0
   -1.0791   -9.5528   -5.8585 H   0  0  0  0  0  0  0  0  0  0  0  0
   -4.2597  -13.4265   -5.1268 H   0  0  0  0  0  0  0  0  0  0  0  0
   -3.0567  -13.4643   -8.3255 H   0  0  0  0  0  0  0  0  0  0  0  0
   -1.7825  -15.3324   -6.9185 H   0  0  0  0  0  0  0  0  0  0  0  0
   -0.9638  -15.4643   -9.4115 H   0  0  0  0  0  0  0  0  0  0  0  0
    0.7098  -13.4462   -9.8408 H   0  0  0  0  0  0  0  0  0  0  0  0
    0.9223  -12.0716   -7.6120 H   0  0  0  0  0  0  0  0  0  0  0  0
   -0.4157  -13.3773   -5.6814 H   0  0  0  0  0  0  0  0  0  0  0  0
    0.6925  -14.4779   -6.5319 H   0  0  0  0  0  0  0  0  0  0  0  0
   -1.4165  -11.4839   -8.7438 H   0  0  0  0  0  0  0  0  0  0  0  0
   -3.5365   -6.9307   -2.8101 H   0  0  0  0  0  0  0  0  0  0  0  0
   -3.0116   -2.2201   -3.0795 H   0  0  0  0  0  0  0  0  0  0  0  0
   -1.5762   -3.9896   -7.8632 H   0  0  0  0  0  0  0  0  0  0  0  0
   -1.5480   -5.7337   -7.9364 H   0  0  0  0  0  0  0  0  0  0  0  0
    0.6132   -3.8826   -9.0427 H   0  0  0  0  0  0  0  0  0  0  0  0
    0.6595   -5.6399   -9.1248 H   0  0  0  0  0  0  0  0  0  0  0  0
   -0.5903   -4.7509   -9.9919 H   0  0  0  0  0  0  0  0  0  0  0  0
    1.3688   -6.5896   -4.9216 H   0  0  0  0  0  0  0  0  0  0  0  0
   -0.2269   -7.2012   -5.2578 H   0  0  0  0  0  0  0  0  0  0  0  0
    1.5086   -8.4661   -6.5020 H   0  0  0  0  0  0  0  0  0  0  0  0
    2.0319   -6.9888   -7.3050 H   0  0  0  0  0  0  0  0  0  0  0  0
    0.4269   -7.6430   -7.6247 H   0  0  0  0  0  0  0  0  0  0  0  0
    1.2412   -2.7745   -6.7427 H   0  0  0  0  0  0  0  0  0  0  0  0
    2.3591   -4.1164   -6.7018 H   0  0  0  0  0  0  0  0  0  0  0  0
    1.1396   -2.7333   -4.2689 H   0  0  0  0  0  0  0  0  0  0  0  0
    2.7972   -2.5719   -4.8309 H   0  0  0  0  0  0  0  0  0  0  0  0
    2.2327   -4.1132   -4.1840 H   0  0  0  0  0  0  0  0  0  0  0  0
   -5.1792   -9.3601    7.5160 H   0  0  0  0  0  0  0  0  0  0  0  0
   -3.7495   -8.3575    7.4683 H   0  0  0  0  0  0  0  0  0  0  0  0
   -3.4481  -10.3726    6.0685 H   0  0  0  0  0  0  0  0  0  0  0  0
   -4.8575   -9.9382    5.1026 H   0  0  0  0  0  0  0  0  0  0  0  0
   -3.4171   -8.9266    5.0608 H   0  0  0  0  0  0  0  0  0  0  0  0
   -7.0025   -8.3522    4.5311 H   0  0  0  0  0  0  0  0  0  0  0  0
   -7.7514   -8.5571    6.0964 H   0  0  0  0  0  0  0  0  0  0  0  0
   -9.1186   -7.1049    4.6295 H   0  0  0  0  0  0  0  0  0  0  0  0
   -8.5559   -6.1961    6.0302 H   0  0  0  0  0  0  0  0  0  0  0  0
   -7.7750   -5.9774    4.4653 H   0  0  0  0  0  0  0  0  0  0  0  0
   -6.5430   -5.1495    7.3676 H   0  0  0  0  0  0  0  0  0  0  0  0
   -5.0907   -5.6711    8.1829 H   0  0  0  0  0  0  0  0  0  0  0  0
   -6.3409   -7.5345    9.2624 H   0  0  0  0  0  0  0  0  0  0  0  0
   -7.0662   -5.9731    9.6387 H   0  0  0  0  0  0  0  0  0  0  0  0
   -7.8121   -7.0270    8.4393 H   0  0  0  0  0  0  0  0  0  0  0  0
   -1.9435   -4.6862    3.8411 H   0  0  0  0  0  0  0  0  0  0  0  0
   -2.6535   -2.7493    2.9043 H   0  0  0  0  0  0  0  0  0  0  0  0
    3.1819   -2.1745   -0.5919 H   0  0  0  0  0  0  0  0  0  0  0  0
    4.5149   -1.3049   -2.4351 H   0  0  0  0  0  0  0  0  0  0  0  0
    6.0716    0.0777   -3.5097 H   0  0  0  0  0  0  0  0  0  0  0  0
    5.2592   -1.0606   -4.6335 H   0  0  0  0  0  0  0  0  0  0  0  0
    6.0518    0.4020   -5.2566 H   0  0  0  0  0  0  0  0  0  0  0  0
    1.5240    1.6568   -3.2004 H   0  0  0  0  0  0  0  0  0  0  0  0
    0.1670    0.7557   -1.3506 H   0  0  0  0  0  0  0  0  0  0  0  0
    0.5796   -2.6602    2.4844 H   0  0  0  0  0  0  0  0  0  0  0  0
    0.1389   -5.0780    2.6724 H   0  0  0  0  0  0  0  0  0  0  0  0
   -0.3110   -8.9224   -0.6703 H   0  0  0  0  0  0  0  0  0  0  0  0
   -0.8442   -7.4575   -1.5166 H   0  0  0  0  0  0  0  0  0  0  0  0
    0.8984   -7.7320   -1.1927 H   0  0  0  0  0  0  0  0  0  0  0  0
    0.3975   -5.4545   -1.5736 H   0  0  0  0  0  0  0  0  0  0  0  0
    0.8184   -3.0675   -1.7640 H   0  0  0  0  0  0  0  0  0  0  0  0
   -2.5934    4.8448    4.7191 H   0  0  0  0  0  0  0  0  0  0  0  0
   -3.1636    4.4442    7.0784 H   0  0  0  0  0  0  0  0  0  0  0  0
   -0.9979    1.7426   10.8552 H   0  0  0  0  0  0  0  0  0  0  0  0
   -0.8338    0.7836    9.3696 H   0  0  0  0  0  0  0  0  0  0  0  0
    0.1816    2.2405    9.6227 H   0  0  0  0  0  0  0  0  0  0  0  0
   -0.0149    1.5616    7.3460 H   0  0  0  0  0  0  0  0  0  0  0  0
    0.5860    2.0009    5.0353 H   0  0  0  0  0  0  0  0  0  0  0  0
   -1.0090    4.1210    0.8472 H   0  0  0  0  0  0  0  0  0  0  0  0
   -1.0783    6.2449   -0.3307 H   0  0  0  0  0  0  0  0  0  0  0  0
   -2.1597    8.3392   -1.1027 H   0  0  0  0  0  0  0  0  0  0  0  0
   -1.1010    9.7176   -1.5059 H   0  0  0  0  0  0  0  0  0  0  0  0
   -0.4295    8.0774   -1.5037 H   0  0  0  0  0  0  0  0  0  0  0  0
   -0.4825    8.3121    3.3638 H   0  0  0  0  0  0  0  0  0  0  0  0
   -0.4654    6.1761    4.5611 H   0  0  0  0  0  0  0  0  0  0  0  0
    2.5705    5.0943    0.3381 H   0  0  0  0  0  0  0  0  0  0  0  0
    5.0589    9.4335    0.8324 H   0  0  0  0  0  0  0  0  0  0  0  0
    5.1369   10.4792   -1.3735 H   0  0  0  0  0  0  0  0  0  0  0  0
    3.8949   11.0483   -3.4206 H   0  0  0  0  0  0  0  0  0  0  0  0
    2.5329   10.0518   -3.9500 H   0  0  0  0  0  0  0  0  0  0  0  0
    5.4739    9.2090   -4.0053 H   0  0  0  0  0  0  0  0  0  0  0  0
    4.1211    8.2072   -4.5283 H   0  0  0  0  0  0  0  0  0  0  0  0
    4.5134    9.6872   -5.4096 H   0  0  0  0  0  0  0  0  0  0  0  0
    1.7990    8.1392   -2.6139 H   0  0  0  0  0  0  0  0  0  0  0  0
    1.6748    7.1270   -0.3711 H   0  0  0  0  0  0  0  0  0  0  0  0
    1.0673    5.1130    5.5971 H   0  0  0  0  0  0  0  0  0  0  0  0
    0.7617    4.4881    7.9225 H   0  0  0  0  0  0  0  0  0  0  0  0
    2.4896    6.1038   10.7635 H   0  0  0  0  0  0  0  0  0  0  0  0
    1.1173    5.0920   10.2900 H   0  0  0  0  0  0  0  0  0  0  0  0
    2.8672    3.7181   11.3891 H   0  0  0  0  0  0  0  0  0  0  0  0
    4.0583    4.2564   10.2000 H   0  0  0  0  0  0  0  0  0  0  0  0
    2.7073    3.2474    9.6921 H   0  0  0  0  0  0  0  0  0  0  0  0
    3.9736    7.0595    9.0492 H   0  0  0  0  0  0  0  0  0  0  0  0
    4.2776    7.7038    6.7095 H   0  0  0  0  0  0  0  0  0  0  0  0
    3.2574    9.6168    5.9596 H   0  0  0  0  0  0  0  0  0  0  0  0
    4.2265   12.2239    4.9759 H   0  0  0  0  0  0  0  0  0  0  0  0
    5.9747   15.9338    1.4676 H   0  0  0  0  0  0  0  0  0  0  0  0
    3.2630   12.6173   -1.2402 H   0  0  0  0  0  0  0  0  0  0  0  0
    4.2200   15.2988   -3.1900 H   0  0  0  0  0  0  0  0  0  0  0  0
    5.7007   13.5890   -4.2313 H   0  0  0  0  0  0  0  0  0  0  0  0
    6.8487   12.2982   -2.2659 H   0  0  0  0  0  0  0  0  0  0  0  0
    8.2893   14.0305   -0.8622 H   0  0  0  0  0  0  0  0  0  0  0  0
    8.0439   16.3865   -1.9696 H   0  0  0  0  0  0  0  0  0  0  0  0
    6.5979   16.1259   -4.2258 H   0  0  0  0  0  0  0  0  0  0  0  0
    7.9575   14.9750   -4.2073 H   0  0  0  0  0  0  0  0  0  0  0  0
    5.6301   16.9884   -1.8434 H   0  0  0  0  0  0  0  0  0  0  0  0
  1  2  2  0  0  0  0
  2  3  1  0  0  0  0
  3  4  2  0  0  0  0
  3  5  1  0  0  0  0
  5  6  2  0  0  0  0
  6  7  1  0  0  0  0
  7  8  2  0  0  0  0
  8  9  1  0  0  0  0
  9 10  2  0  0  0  0
 10 11  1  0  0  0  0
 11 12  2  0  0  0  0
 12 13  1  0  0  0  0
 13 14  3  0  0  0  0
 12 15  1  0  0  0  0
 15 16  3  0  0  0  0
  8 17  1  0  0  0  0
 17 18  1  0  0  0  0
 18 19  1  0  0  0  0
 19 20  2  0  0  0  0
 20 21  1  0  0  0  0
 21 22  1  0  0  0  0
 21 23  1  0  0  0  0
  1 24  1  0  0  0  0
 24 25  2  0  0  0  0
 25 26  1  0  0  0  0
 26 27  2  0  0  0  0
 27 28  1  0  0  0  0
 28 29  2  0  0  0  0
 29 30  1  0  0  0  0
 30 31  1  0  0  0  0
 30 32  2  0  0  0  0
 32 33  1  0  0  0  0
 33 34  1  0  0  0  0
 34 35  1  0  0  0  0
 33 36  1  0  0  0  0
 36 37  1  0  0  0  0
 33 38  1  0  0  0  0
 38 39  1  0  0  0  0
 32 40  1  0  0  0  0
 27 41  1  0  0  0  0
 41 42  2  0  0  0  0
 42 43  1  0  0  0  0
 43 44  1  0  0  0  0
 44 45  1  0  0  0  0
 45 46  1  0  0  0  0
 46 47  1  0  0  0  0
 47 48  1  0  0  0  0
 48 49  1  0  0  0  0
 47 50  1  0  0  0  0
 50 51  1  0  0  0  0
 47 52  1  0  0  0  0
 52 53  1  0  0  0  0
 46 54  2  0  0  0  0
 54 55  1  0  0  0  0
 54 56  1  0  0  0  0
 43 57  2  0  0  0  0
 57 58  1  0  0  0  0
 42 59  1  0  0  0  0
 59 60  2  0  0  0  0
 60 61  1  0  0  0  0
 60 62  1  0  0  0  0
 62 63  2  0  0  0  0
 63 64  1  0  0  0  0
 64 65  1  0  0  0  0
 65 66  2  0  0  0  0
 66 67  1  0  0  0  0
 67 68  2  0  0  0  0
 68 69  1  0  0  0  0
 69 70  1  0  0  0  0
 68 71  1  0  0  0  0
 71 72  2  0  0  0  0
 64 73  1  0  0  0  0
 73 74  2  0  0  0  0
 74 75  1  0  0  0  0
 75 76  2  0  0  0  0
 76 77  1  0  0  0  0
 77 78  1  0  0  0  0
 76 79  1  0  0  0  0
 79 80  2  0  0  0  0
 63 81  1  0  0  0  0
 81 82  1  0  0  0  0
 82 83  1  0  0  0  0
 83 84  2  0  0  0  0
 84 85  1  0  0  0  0
 85 86  1  0  0  0  0
 86 87  2  0  0  0  0
 87 88  1  0  0  0  0
 88 89  2  0  0  0  0
 89 90  1  0  0  0  0
 90 91  1  0  0  0  0
 89 92  1  0  0  0  0
 92 93  2  0  0  0  0
 85 94  1  0  0  0  0
 94 95  2  0  0  0  0
 95 96  1  0  0  0  0
 96 97  2  0  0  0  0
 97 98  1  0  0  0  0
 98 99  1  0  0  0  0
 97100  1  0  0  0  0
100101  2  0  0  0  0
 84102  1  0  0  0  0
102103  1  0  0  0  0
 83104  1  0  0  0  0
104105  2  0  0  0  0
105106  1  0  0  0  0
106107  2  0  0  0  0
107108  1  0  0  0  0
108109  2  0  0  0  0
109110  1  0  0  0  0
110111  2  0  0  0  0
111112  1  0  0  0  0
112113  1  0  0  0  0
111114  1  0  0  0  0
114115  2  0  0  0  0
107116  1  0  0  0  0
116117  2  0  0  0  0
117118  1  0  0  0  0
118119  1  0  0  0  0
119120  2  0  0  0  0
120121  1  0  0  0  0
121122  2  0  0  0  0
122123  1  0  0  0  0
123124  1  0  0  0  0
122125  1  0  0  0  0
125126  2  0  0  0  0
118127  2  0  0  0  0
127128  1  0  0  0  0
117129  1  0  0  0  0
129130  2  0  0  0  0
130131  1  0  0  0  0
130132  1  0  0  0  0
132133  2  0  0  0  0
133134  1  0  0  0  0
134135  2  0  0  0  0
134136  1  0  0  0  0
136137  2  0  0  0  0
137138  1  0  0  0  0
138139  2  0  0  0  0
139140  1  0  0  0  0
140141  2  0  0  0  0
141142  1  0  0  0  0
142143  2  0  0  0  0
143144  1  0  0  0  0
144145  3  0  0  0  0
143146  1  0  0  0  0
146147  3  0  0  0  0
139148  1  0  0  0  0
148149  1  0  0  0  0
149150  1  0  0  0  0
150151  2  0  0  0  0
151152  1  0  0  0  0
152153  1  0  0  0  0
152154  1  0  0  0  0
 11  2  1  0  0  0  0
 23 17  1  0  0  0  0
 58 24  1  0  0  0  0
103 62  1  0  0  0  0
128104  1  0  0  0  0
142133  1  0  0  0  0
154148  1  0  0  0  0
 10  5  1  0  0  0  0
 22 18  1  0  0  0  0
 57 26  1  0  0  0  0
 72 65  1  0  0  0  0
 80 73  1  0  0  0  0
102 81  2  0  0  0  0
127106  1  0  0  0  0
141136  1  0  0  0  0
153149  1  0  0  0  0
 23  7  1  0  0  0  0
 40 28  1  0  0  0  0
 61 41  1  0  0  0  0
 93 86  1  0  0  0  0
101 94  1  0  0  0  0
115108  1  0  0  0  0
131116  1  0  0  0  0
154138  1  0  0  0  0
 55 44  2  0  0  0  0
126119  1  0  0  0  0
  1155  1  0  0  0  0
  6156  1  0  0  0  0
  9157  1  0  0  0  0
 17158  1  0  0  0  0
 18159  1  0  0  0  0
 19160  1  0  0  0  0
 20161  1  0  0  0  0
 21162  1  0  0  0  0
 22163  1  0  0  0  0
 22164  1  0  0  0  0
 23165  1  0  0  0  0
 25166  1  0  0  0  0
 29167  1  0  0  0  0
 34168  1  0  0  0  0
 34169  1  0  0  0  0
 35170  1  0  0  0  0
 35171  1  0  0  0  0
 35172  1  0  0  0  0
 36173  1  0  0  0  0
 36174  1  0  0  0  0
 37175  1  0  0  0  0
 37176  1  0  0  0  0
 37177  1  0  0  0  0
 38178  1  0  0  0  0
 38179  1  0  0  0  0
 39180  1  0  0  0  0
 39181  1  0  0  0  0
 39182  1  0  0  0  0
 48183  1  0  0  0  0
 48184  1  0  0  0  0
 49185  1  0  0  0  0
 49186  1  0  0  0  0
 49187  1  0  0  0  0
 50188  1  0  0  0  0
 50189  1  0  0  0  0
 51190  1  0  0  0  0
 51191  1  0  0  0  0
 51192  1  0  0  0  0
 52193  1  0  0  0  0
 52194  1  0  0  0  0
 53195  1  0  0  0  0
 53196  1  0  0  0  0
 53197  1  0  0  0  0
 55198  1  0  0  0  0
 59199  1  0  0  0  0
 66200  1  0  0  0  0
 67201  1  0  0  0  0
 70202  1  0  0  0  0
 70203  1  0  0  0  0
 70204  1  0  0  0  0
 71205  1  0  0  0  0
 72206  1  0  0  0  0
 74207  1  0  0  0  0
 75208  1  0  0  0  0
 78209  1  0  0  0  0
 78210  1  0  0  0  0
 78211  1  0  0  0  0
 79212  1  0  0  0  0
 80213  1  0  0  0  0
 87214  1  0  0  0  0
 88215  1  0  0  0  0
 91216  1  0  0  0  0
 91217  1  0  0  0  0
 91218  1  0  0  0  0
 92219  1  0  0  0  0
 93220  1  0  0  0  0
 95221  1  0  0  0  0
 96222  1  0  0  0  0
 99223  1  0  0  0  0
 99224  1  0  0  0  0
 99225  1  0  0  0  0
100226  1  0  0  0  0
101227  1  0  0  0  0
105228  1  0  0  0  0
109229  1  0  0  0  0
110230  1  0  0  0  0
112231  1  0  0  0  0
112232  1  0  0  0  0
113233  1  0  0  0  0
113234  1  0  0  0  0
113235  1  0  0  0  0
114236  1  0  0  0  0
115237  1  0  0  0  0
120238  1  0  0  0  0
121239  1  0  0  0  0
123240  1  0  0  0  0
123241  1  0  0  0  0
124242  1  0  0  0  0
124243  1  0  0  0  0
124244  1  0  0  0  0
125245  1  0  0  0  0
126246  1  0  0  0  0
129247  1  0  0  0  0
132248  1  0  0  0  0
137249  1  0  0  0  0
140250  1  0  0  0  0
148251  1  0  0  0  0
149252  1  0  0  0  0
150253  1  0  0  0  0
151254  1  0  0  0  0
152255  1  0  0  0  0
153256  1  0  0  0  0
153257  1  0  0  0  0
154258  1  0  0  0  0
M  END
