233

C          1.67360       -0.18020       -9.96440
C          2.88510       -0.09260      -10.58320
C          4.12310        0.50430      -10.01770
O          4.36750        0.78530       -8.86330
C          4.99660        0.76920      -11.17440
C          6.23900        1.39920      -11.14650
C          6.83270        1.51820      -12.37960
C          6.23170        1.05410      -13.55840
C          5.00620        0.43320      -13.60040
C          4.38890        0.29310      -12.35390
C          3.11000       -0.31160      -12.00180
C          2.30470       -1.04180      -12.83500
C          1.13770       -1.72120      -12.42400
N          0.19800       -2.32330      -12.15410
C          2.56400       -1.25940      -14.20410
N          2.71380       -1.46500      -15.32360
C          7.38730        1.50200      -14.41740
C          8.37950        0.41920      -14.90930
C          8.32730       -0.70030      -13.89920
C          8.89640       -0.26530      -12.78290
C          9.34410        1.15630      -13.01810
C          9.70720        1.08270      -14.50980
C          8.05790        2.01510      -13.10410
C          1.40490       -0.01760       -8.58340
C          2.21180       -0.22770       -7.49680
C          1.60140        0.08000       -6.26370
C          2.17220       -0.01300       -4.97570
C          3.55210       -0.40260       -4.79900
C          4.63730       -0.06070       -5.56180
C          5.81930       -0.65710       -5.08620
Cl         7.34040       -0.40460       -5.83670
C          5.67580       -1.45670       -3.98750
Si         7.00940       -2.42570       -3.05850
C          6.10040       -3.22620       -1.57770
C          6.82060       -4.41850       -0.95710
C          8.32690       -1.14800       -2.50540
C          9.17340       -1.58790       -1.31480
C          7.69790       -3.73360       -4.27770
C          9.08640       -4.25390       -3.91870
S          4.02200       -1.46500       -3.50300
C          1.33050        0.27290       -3.90870
C         -0.03330        0.62480       -4.06500
C         -0.59370        0.75820       -5.35160
C         -1.98130        1.11780       -5.56960
S         -3.25620        0.43950       -4.60370
C         -4.49310        1.24610       -5.49610
Si        -6.29480        0.95250       -4.99020
C         -6.24630       -0.74230       -4.09900
C         -7.60510       -1.40450       -3.89640
C         -7.42780        0.90410       -6.52570
C         -6.96170       -0.08650       -7.58940
C         -6.74860        2.38310       -3.80170
C         -8.18690        2.33470       -3.29870
C         -3.91340        2.00290       -6.47330
C         -2.50630        1.92990       -6.53770
Cl        -4.82210        2.98560       -7.54890
C          0.25230        0.48930       -6.42210
S         -0.20480        0.50950       -8.10170
C         -0.66620        0.81510       -2.81440
C          0.15990        0.62880       -1.74680
S          1.79840        0.26240       -2.23100
C         -0.25640        0.59500       -0.37540
C         -1.36950       -0.08150        0.09710
N         -2.16030       -0.95060       -0.64480
C         -3.55210       -0.82950       -0.53560
C         -4.37930       -1.94850       -0.63530
C         -5.74540       -1.81150       -0.53050
C         -6.31920       -0.55910       -0.31660
S         -8.08150       -0.48990       -0.22420
C         -8.40090        1.12980        0.53350
C         -5.50060        0.55620       -0.21360
C         -4.13090        0.41900       -0.32360
C         -1.56860       -1.73220       -1.64680
C         -2.22710       -1.98970       -2.84510
C         -1.56150       -2.56750       -3.90880
C         -0.22200       -2.90740       -3.79110
S          0.77700       -3.47560       -5.13230
C         -0.26490       -3.18160       -6.58920
C          0.40090       -2.78160       -2.55100
C         -0.26570       -2.21190       -1.49020
C         -1.56180        0.17040        1.47750
S         -2.74260       -0.32830        2.63730
C         -1.93120        0.60580        3.87690
C         -0.75150        1.19000        3.43110
N          0.18820        1.79830        4.24610
C          0.91480        2.89870        3.77230
C          2.23680        3.09280        4.17500
C          2.94390        4.18590        3.73090
C          2.35500        5.10830        2.86680
S          3.35670        6.47410        2.37340
C          2.22150        7.52400        1.42280
C          1.04810        4.90860        2.44700
C          0.33600        3.81570        2.89990
C          0.35990        1.34600        5.56360
C          0.55390        2.24450        6.60970
C          0.60010        1.80540        7.91900
C          0.46740        0.45320        8.20420
S          0.41640       -0.20150        9.84350
C          1.25800        1.07490       10.82450
C          0.33860       -0.45580        7.15670
C          0.29070       -0.01790        5.85280
C         -0.57490        0.96370        2.04440
S          0.62710        1.42650        0.88910
C         -2.44130        0.65450        5.21970
C         -2.45610        1.84360        5.96570
C         -2.20780        3.15690        5.48990
C         -2.22110        4.09570        6.47200
C         -1.94960        5.52300        6.29920
O         -1.68400        6.03820        5.23820
O         -2.01430        6.17590        7.46090
C         -1.74580        7.57740        7.42470
C         -1.75870        8.10050        8.84800
S         -2.56380        3.42860        8.04430
C         -2.69450        1.83440        7.36510
C         -2.99030        0.68720        8.10420
C         -3.04740       -0.49670        7.33710
C         -2.80540       -0.50230        5.92540
N         -2.82670       -1.78400        5.52260
N         -3.05810       -2.45420        6.61130
C         -3.12220       -3.88690        6.61550
C         -1.77750       -4.47000        7.03940
N         -3.18160       -1.77360        7.71420
C         -3.07730        0.73440        9.52580
C         -3.78600       -0.10500       10.32540
C         -4.87070       -1.01640        9.87740
O         -5.41680       -1.02600        8.79450
C         -5.25280       -1.78910       11.07600
C         -4.56050       -1.30310       12.18380
C         -4.76950       -1.86400       13.45220
C         -5.66310       -2.89450       13.58080
C         -6.38050       -3.40740       12.47770
C         -7.29870       -4.46780       12.61710
C         -7.98280       -4.94490       11.53280
C         -7.78000       -4.38670       10.26030
C         -6.89700       -3.35750       10.08510
C         -6.17990       -2.84280       11.18500
C         -3.68270       -0.21370       11.76750
C         -2.89910        0.54490       12.59760
C         -2.82170        0.38590       13.99750
N         -2.69890        0.31920       15.13720
C         -2.06860        1.61000       12.19660
N         -1.37460        2.49920       11.97430
H          0.79580       -0.32600      -10.58350
H          6.66390        1.74510      -10.21720
H          4.55160        0.08920      -14.51460
H          7.15270        2.23190      -15.18960
H          8.25510        0.13280      -15.95010
H          7.84540       -1.64400      -14.07630
H          8.98480       -0.77260      -11.84010
H         10.09860        1.54100      -12.33700
H          9.85990        2.05890      -14.96800
H         10.57010        0.44690      -14.70210
H          8.26390        3.08030      -13.01850
H          3.19590       -0.64400       -7.57710
H          4.60900        0.60860       -6.40240
H          5.93060       -2.47320       -0.80650
H          5.11100       -3.55030       -1.90570
H          6.25260       -4.81560       -0.11730
H          6.94240       -5.21430       -1.68720
H          7.80470       -4.13410       -0.59460
H          8.98760       -0.92570       -3.34400
H          7.83090       -0.20900       -2.25150
H          9.90970       -0.82510       -1.06700
H          8.55000       -1.75130       -0.43970
H          9.70400       -2.51020       -1.53540
H          7.73780       -3.30500       -5.28000
H          7.00580       -4.57600       -4.33340
H          9.41390       -5.00100       -4.63980
H          9.81030       -3.44330       -3.92110
H          9.08830       -4.71170       -2.93300
H         -5.76690       -0.62030       -3.12560
H         -5.61010       -1.42380       -4.66760
H         -8.10190       -1.56800       -4.84910
H         -7.48970       -2.36750       -3.40250
H         -8.25030       -0.78950       -3.27660
H         -7.49660        1.89620       -6.97190
H         -8.43780        0.63850       -6.21130
H         -6.91220       -1.09450       -7.18500
H         -5.97300        0.18090       -7.95360
H         -7.64560       -0.09190       -8.43600
H         -6.58280        3.33660       -4.30610
H         -6.07050        2.36440       -2.94620
H         -8.40140        3.18730       -2.65530
H         -8.36490        1.42420       -2.73330
H         -8.88500        2.35800       -4.13120
H         -1.92040        2.48220       -7.24900
H         -1.69920        1.08580       -2.70070
H         -3.94050       -2.92250       -0.78900
H         -6.38770       -2.67520       -0.60640
H         -8.18020        1.92780       -0.16930
H         -7.81270        1.22760        1.44090
H         -9.45940        1.13800        0.77430
H         -5.91580        1.53940       -0.06160
H         -3.50180        1.29480       -0.25750
H         -3.25850       -1.70010       -2.96360
H         -2.09700       -2.71580       -4.83210
H         -0.62400       -2.15680       -6.58130
H         -1.09080       -3.88670       -6.61050
H          0.37640       -3.34330       -7.45010
H          1.42520       -3.10330       -2.44120
H          0.23980       -2.09560       -0.54330
H          2.70130        2.37990        4.83960
H          3.96500        4.33920        4.04500
H          2.78700        8.41680        1.17460
H          1.91760        7.01610        0.51190
H          1.36430        7.78650        2.03580
H          0.56270        5.59920        1.77780
H         -0.68510        3.68550        2.57420
H          0.63600        3.30010        6.39660
H          0.70950        2.52860        8.71120
H          0.59090        1.91380       11.00680
H          1.50920        0.60190       11.76890
H          2.16260        1.38270       10.30970
H          0.27340       -1.50940        7.38260
H          0.18520       -0.73080        5.04850
H         -2.03900        3.40860        4.45970
H         -2.51110        8.06630        6.81060
H         -0.77310        7.73710        6.94490
H         -2.72930        7.92130        9.30270
H         -1.00140        7.59360        9.43970
H         -1.55610        9.16750        8.84690
H         -3.90280       -4.18180        7.31980
H         -3.38300       -4.20380        5.60440
H         -1.51060       -4.10710        8.02930
H         -1.00190       -4.17890        6.33490
H         -1.83600       -5.55420        7.06650
H         -2.49970        1.53030        9.98040
H         -4.24010       -1.49550       14.31520
H         -5.83500       -3.33550       14.55220
H         -7.45240       -4.89650       13.59700
H         -8.68620       -5.75620       11.64880
H         -8.33170       -4.77820        9.41840
H         -6.73610       -2.91510        9.11470
