230

C          1.00130        9.75340        3.30170
C          2.20850       10.38530        3.22960
C          3.15100       10.38990        2.08230
O          3.14910        9.67900        1.09940
C          4.07550       11.51050        2.33710
C          5.10010       11.94740        1.49940
C          5.80530       13.01900        1.99140
C          5.50800       13.62280        3.22130
C          4.49990       13.20410        4.05650
C          3.77710       12.10610        3.57940
C          2.67360       11.37270        4.18630
C          2.23420       11.49310        5.47910
C          2.71630       12.44740        6.39780
N          3.06000       13.20760        7.18660
C          1.29550       10.62600        6.07780
N          0.57360        9.92670        6.63380
C          6.61610       14.63650        3.08210
C          7.89180       14.37800        3.91160
C          8.94450       15.22040        3.22790
C          9.22830       14.64650        2.06570
C          8.37210       13.40670        1.94410
C          8.30690       12.98590        3.41800
C          6.94990       13.96100        1.71330
C          0.52490        8.68980        2.50240
C          1.21450        7.76160        1.76700
C          0.39640        6.77640        1.18270
C          0.81860        5.66660        0.42050
C          2.19420        5.52060        0.00760
C          3.06210        6.49250       -0.41740
C          4.31390        5.95970       -0.77620
Cl         5.58230        6.93780       -1.38960
C          4.44520        4.60760       -0.61620
Si         5.90040        3.48340       -1.06620
C          7.46740        4.12490       -0.17890
C          8.72190        3.35270       -0.57100
C          6.10580        3.55310       -2.97050
C          4.79200        3.70590       -3.73320
C          5.49150        1.73010       -0.42070
C          4.42910        0.97710       -1.21560
S          2.96240        3.96100       -0.02240
C         -0.15680        4.72450        0.12520
C         -1.51560        4.85140        0.51110
C         -1.95830        6.01400        1.17790
C         -3.34370        6.25520        1.52740
S         -4.42760        5.00000        2.04930
C         -5.74180        6.09510        2.27620
Si        -7.43540        5.51370        2.88350
C         -7.30430        3.62550        3.18210
C         -6.54220        3.24350        4.44700
C         -7.89030        6.47650        4.47470
C         -6.69720        6.82620        5.36130
C         -8.69800        5.85790        1.48900
C        -10.13350        5.54770        1.89770
C         -5.32920        7.35690        1.95470
C         -3.98870        7.46430        1.53990
Cl        -6.37640        8.71460        2.04820
C         -0.97300        6.93990        1.51290
S         -1.20450        8.35940        2.49390
C         -2.25740        3.69400        0.17400
C         -1.51470        2.72520       -0.43100
S          0.13300        3.23250       -0.72130
C         -1.87960        1.35780       -0.64170
C         -2.46850        0.52830        0.30010
N         -2.78900        0.88480        1.60300
C         -4.01350        0.45550        2.12780
C         -5.13780        0.38140        1.31050
C         -6.35710       -0.02050        1.81980
C         -6.47350       -0.34650        3.16320
S         -7.98850       -0.83560        3.92990
C         -9.25060       -0.34490        2.71940
C         -5.34490       -0.29630        3.98060
C         -4.12830        0.09580        3.47090
C         -1.95720        1.75540        2.31970
C         -2.49470        2.69040        3.19890
C         -1.69520        3.64630        3.79510
C         -0.33570        3.68610        3.52220
S          0.76300        4.93570        4.11430
C         -0.28340        5.98170        5.16550
C          0.22190        2.69880        2.71090
C         -0.57380        1.73950        2.12710
C         -2.59390       -0.78840       -0.20490
S         -3.22460       -2.27000        0.42420
C         -2.66900       -3.14220       -1.00610
C         -2.09890       -2.29420       -1.94700
N         -1.62490       -2.65820       -3.19750
C         -0.45830       -2.01240       -3.63970
C          0.61210       -1.85520       -2.75800
C          1.73390       -1.15760       -3.14260
C          1.81840       -0.61050       -4.42120
S          3.29480        0.27790       -4.79970
C          2.91510        1.10550       -6.37000
C          0.77040       -0.79350       -5.31340
C         -0.36090       -1.48310       -4.92240
C         -2.38040       -3.45580       -4.06000
C         -3.76820       -3.50400       -3.96310
C         -4.50970       -4.30870       -4.80640
C         -3.87510       -5.07510       -5.77330
S         -4.71120       -6.13540       -6.91090
C         -6.47030       -5.87390       -6.54410
C         -2.48540       -5.02800       -5.87700
C         -1.74630       -4.23440       -5.03140
C         -2.05190       -0.96260       -1.46710
S         -1.39570        0.50770       -2.09600
C         -2.73790       -4.56020       -1.00090
S         -1.68090       -5.51350       -2.03520
C         -2.24350       -6.96130       -1.28750
C         -2.05090       -8.33980       -1.31760
C         -2.92310       -8.87960       -0.33210
N         -3.61340       -7.86650        0.28840
C         -4.64800       -8.02200        1.27730
C         -6.01670       -8.22740        0.63090
C         -3.21340       -6.69420       -0.29430
C         -3.48460       -5.33520       -0.13390
C         -2.83020      -10.25280       -0.22680
C         -1.88330      -10.78750       -1.10950
S         -1.10910       -9.54760       -2.09970
C         -1.61290      -12.16120       -1.13790
C         -0.69890      -12.88100       -1.86680
C          0.25380      -12.33000       -2.83590
O          0.35960      -11.17180       -3.20020
C          1.07870      -13.46180       -3.29500
C          2.13440      -13.41500       -4.20220
C          2.73140      -14.63220       -4.42710
C          2.30680      -15.80950       -3.79810
C          1.26220      -15.86970       -2.90610
C          0.64170      -14.64110       -2.66000
C         -0.48020      -14.30930       -1.78070
C         -1.18730      -15.21500       -1.02860
C         -2.28100      -14.91900       -0.19020
N         -3.18110      -14.77510        0.51060
C         -0.92590      -16.59990       -0.98860
N         -0.77750      -17.73560       -0.90030
C          3.36180      -16.64800       -4.47660
C          4.58630      -17.03860       -3.62220
C          5.63450      -17.41670       -4.64360
C          6.03640      -16.30210       -5.24080
C          5.26670      -15.15180       -4.63290
C          5.11850      -15.66470       -3.19460
C          3.83470      -15.33490       -5.17910
H          0.29520       10.10530        4.04520
H          5.29200       11.45760        0.55760
H          4.27440       13.68230        4.99530
H          6.30880       15.68050        3.08740
H          7.77340       14.51570        4.98280
H          9.32150       16.14570        3.62210
H          9.88970       14.99690        1.29500
H          8.69210       12.65940        1.22300
H          7.57750       12.20510        3.62540
H          9.27990       12.68630        3.80350
H          6.86690       14.55440        0.80460
H          2.28420        7.74800        1.70350
H          2.81700        7.53520       -0.50590
H          7.33270        4.05810        0.90150
H          7.62090        5.17910       -0.40560
H          8.62260        2.30060       -0.31690
H          9.59520        3.74520       -0.05320
H          8.89860        3.42790       -1.64080
H          6.60880        2.64780       -3.31320
H          6.75880        4.38780       -3.23090
H          4.28420        4.62200       -3.44160
H          4.12760        2.86990       -3.53410
H          4.97810        3.74790       -4.80510
H          5.16460        1.80270        0.61840
H          6.40420        1.13280       -0.41400
H          3.49200        1.52850       -1.23010
H          4.75100        0.81990       -2.24170
H          4.24260        0.00330       -0.76500
H         -6.81770        3.15430        2.32530
H         -8.30720        3.20030        3.24180
H         -6.45640        2.16190        4.53440
H         -7.05450        3.61590        5.33010
H         -5.53880        3.66220        4.42960
H         -8.60520        5.89210        5.05610
H         -8.40050        7.40110        4.20100
H         -6.16650        5.93090        5.67400
H         -7.02660        7.35640        6.25290
H         -5.99820        7.46440        4.82700
H         -8.44420        5.27050        0.60540
H         -8.63650        6.90410        1.19060
H        -10.24120        4.49910        2.16410
H        -10.82300        5.76330        1.08340
H        -10.42440        6.14680        2.75640
H         -3.54410        8.39160        1.22970
H         -3.30130        3.56240        0.38650
H         -5.05800        0.65370        0.26790
H         -7.20850       -0.06560        1.15990
H         -9.21940       -0.99890        1.85260
H         -9.09850        0.69250        2.43670
H        -10.20360       -0.45610        3.22710
H         -5.43830       -0.56990        5.02060
H         -3.25800        0.13350        4.10800
H         -3.55510        2.68750        3.39520
H         -2.15520        4.36950        4.44870
H         -1.09540        6.40610        4.58240
H         -0.66070        5.40270        6.00310
H          0.36070        6.77700        5.52880
H          1.28610        2.70460        2.53050
H         -0.12670        0.98650        1.49550
H          0.54980       -2.27930       -1.76670
H          2.55710       -1.02290       -2.45890
H          2.82810        0.37640       -7.17040
H          2.00550        1.68890       -6.26380
H          3.75600        1.76380       -6.56380
H          0.81390       -0.39360       -6.31350
H         -1.18180       -1.60180       -5.61380
H         -4.27620       -2.90460       -3.22190
H         -5.58240       -4.32080       -4.69900
H         -6.69420       -6.20120       -5.53290
H         -6.72850       -4.82890       -6.68880
H         -7.01070       -6.48870       -7.25710
H         -1.99490       -5.63330       -6.62330
H         -0.67000       -4.21920       -5.10500
H         -4.39610       -8.88220        1.90310
H         -4.65800       -7.12630        1.90390
H         -6.77740       -8.34490        1.39760
H         -6.27250       -7.37110        0.01110
H         -6.00830       -9.11750        0.00640
H         -4.17880       -4.90920        0.56800
H         -3.39460      -10.87300        0.44660
H         -2.22630      -12.72360       -0.44430
H          2.42580      -12.48490       -4.66470
H          0.94810      -16.78560       -2.43470
H          2.99480      -17.46620       -5.09340
H          4.38210      -17.76330       -2.83870
H          5.92540      -18.42820       -4.85870
H          6.73000      -16.19650       -6.05450
H          5.68320      -14.15740       -4.77000
H          6.07660      -15.73570       -2.68210
H          4.42290      -15.08840       -2.58750
H          3.78240      -15.27750       -6.26480
