
  xtb     02052216183D
 energy: -448.511637591987 gnorm: 0.000486949262 xtb: 6.4.1 (unknown)
280306  0     0  0            999 V2000
   -8.0715   -2.4014    7.3216 C   0  0  0  0  0  0  0  0  0  0  0  0
   -8.7959   -1.6605    8.1969 C   0  0  0  0  0  0  0  0  0  0  0  0
   -9.0008   -2.1441    9.5918 C   0  0  0  0  0  0  0  0  0  0  0  0
   -8.8878   -3.2799    9.9911 O   0  0  0  0  0  0  0  0  0  0  0  0
   -9.2901   -0.9273   10.3760 C   0  0  0  0  0  0  0  0  0  0  0  0
   -9.3945   -0.8224   11.7623 C   0  0  0  0  0  0  0  0  0  0  0  0
   -9.6256    0.4556   12.2111 C   0  0  0  0  0  0  0  0  0  0  0  0
   -9.7462    1.5556   11.3500 C   0  0  0  0  0  0  0  0  0  0  0  0
   -9.6607    1.4674    9.9810 C   0  0  0  0  0  0  0  0  0  0  0  0
   -9.4252    0.1752    9.5047 C   0  0  0  0  0  0  0  0  0  0  0  0
   -9.3037   -0.3051    8.1323 C   0  0  0  0  0  0  0  0  0  0  0  0
   -9.8310    0.2921    7.0193 C   0  0  0  0  0  0  0  0  0  0  0  0
  -10.3892    1.5851    7.0057 C   0  0  0  0  0  0  0  0  0  0  0  0
  -10.8344    2.6413    6.9413 N   0  0  0  0  0  0  0  0  0  0  0  0
   -9.9617   -0.3857    5.7872 C   0  0  0  0  0  0  0  0  0  0  0  0
  -10.1445   -0.9344    4.7961 N   0  0  0  0  0  0  0  0  0  0  0  0
   -9.9427    2.5262   12.4877 C   0  0  0  0  0  0  0  0  0  0  0  0
   -8.7245    3.3925   12.8728 C   0  0  0  0  0  0  0  0  0  0  0  0
   -9.0463    3.8679   14.2713 C   0  0  0  0  0  0  0  0  0  0  0  0
   -8.9360    2.8269   15.0866 C   0  0  0  0  0  0  0  0  0  0  0  0
   -8.5376    1.6305   14.2529 C   0  0  0  0  0  0  0  0  0  0  0  0
   -7.6713    2.3241   13.1937 C   0  0  0  0  0  0  0  0  0  0  0  0
   -9.8124    1.3002   13.4473 C   0  0  0  0  0  0  0  0  0  0  0  0
   -7.3682   -1.9795    6.1633 C   0  0  0  0  0  0  0  0  0  0  0  0
   -6.7413   -2.8065    5.2670 C   0  0  0  0  0  0  0  0  0  0  0  0
   -6.0109   -2.1272    4.2693 C   0  0  0  0  0  0  0  0  0  0  0  0
   -5.2525   -2.6875    3.2197 C   0  0  0  0  0  0  0  0  0  0  0  0
   -5.0177   -4.1117    3.1140 C   0  0  0  0  0  0  0  0  0  0  0  0
   -4.7092   -4.9935    4.1146 C   0  0  0  0  0  0  0  0  0  0  0  0
   -4.4415   -6.2844    3.6192 C   0  0  0  0  0  0  0  0  0  0  0  0
   -3.9784   -7.5792    4.6478 Cl  0  0  0  0  0  0  0  0  0  0  0  0
   -4.5599   -6.4258    2.2652 C   0  0  0  0  0  0  0  0  0  0  0  0
   -4.1433   -7.8999    1.1527 Si  0  0  0  0  0  4  0  0  0  0  0  0
   -4.9630   -7.5130   -0.5298 C   0  0  0  0  0  0  0  0  0  0  0  0
   -4.6348   -8.5393   -1.6092 C   0  0  0  0  0  0  0  0  0  0  0  0
   -4.8269   -9.5240    1.8904 C   0  0  0  0  0  0  0  0  0  0  0  0
   -6.3010   -9.4367    2.2741 C   0  0  0  0  0  0  0  0  0  0  0  0
   -2.2342   -7.9398    1.0136 C   0  0  0  0  0  0  0  0  0  0  0  0
   -1.6494   -6.6565    0.4290 C   0  0  0  0  0  0  0  0  0  0  0  0
   -5.0014   -4.9090    1.5699 S   0  0  0  0  0  0  0  0  0  0  0  0
   -4.6764   -1.7913    2.3302 C   0  0  0  0  0  0  0  0  0  0  0  0
   -4.8210   -0.3848    2.4326 C   0  0  0  0  0  0  0  0  0  0  0  0
   -5.5291    0.1824    3.5153 C   0  0  0  0  0  0  0  0  0  0  0  0
   -5.5919    1.6122    3.7293 C   0  0  0  0  0  0  0  0  0  0  0  0
   -5.6229    2.7560    2.4194 S   0  0  0  0  0  0  0  0  0  0  0  0
   -5.5670    4.1178    3.4742 C   0  0  0  0  0  0  0  0  0  0  0  0
   -5.3416    5.8669    2.7889 Si  0  0  0  0  0  4  0  0  0  0  0  0
   -6.8422    6.9213    3.3284 C   0  0  0  0  0  0  0  0  0  0  0  0
   -8.1844    6.2866    2.9711 C   0  0  0  0  0  0  0  0  0  0  0  0
   -3.6856    6.5614    3.4588 C   0  0  0  0  0  0  0  0  0  0  0  0
   -3.6443    8.0856    3.5110 C   0  0  0  0  0  0  0  0  0  0  0  0
   -5.2585    5.6406    0.8919 C   0  0  0  0  0  0  0  0  0  0  0  0
   -4.9949    6.9308    0.1246 C   0  0  0  0  0  0  0  0  0  0  0  0
   -5.5734    3.6747    4.7655 C   0  0  0  0  0  0  0  0  0  0  0  0
   -5.5969    2.2769    4.9278 C   0  0  0  0  0  0  0  0  0  0  0  0
   -5.5228    4.7559    6.1036 Cl  0  0  0  0  0  0  0  0  0  0  0  0
   -6.0966   -0.7185    4.4116 C   0  0  0  0  0  0  0  0  0  0  0  0
   -7.0289   -0.2933    5.8145 S   0  0  0  0  0  0  0  0  0  0  0  0
   -4.0718    0.2834    1.4404 C   0  0  0  0  0  0  0  0  0  0  0  0
   -3.3214   -0.5455    0.6569 C   0  0  0  0  0  0  0  0  0  0  0  0
   -3.5959   -2.2308    1.0347 S   0  0  0  0  0  0  0  0  0  0  0  0
   -2.3179   -0.1550   -0.2732 C   0  0  0  0  0  0  0  0  0  0  0  0
   -1.6007    1.0362   -0.2932 C   0  0  0  0  0  0  0  0  0  0  0  0
   -1.6769    2.0893    0.6090 N   0  0  0  0  0  0  0  0  0  0  0  0
   -1.5921    3.3880    0.0768 C   0  0  0  0  0  0  0  0  0  0  0  0
   -2.3208    3.7070   -1.0650 C   0  0  0  0  0  0  0  0  0  0  0  0
   -2.2728    4.9790   -1.6028 C   0  0  0  0  0  0  0  0  0  0  0  0
   -1.4973    5.9568   -0.9968 C   0  0  0  0  0  0  0  0  0  0  0  0
   -1.3744    7.6235   -1.5650 S   0  0  0  0  0  0  0  0  0  0  0  0
   -2.3793    7.6510   -3.0764 C   0  0  0  0  0  0  0  0  0  0  0  0
   -0.7562    5.6366    0.1405 C   0  0  0  0  0  0  0  0  0  0  0  0
   -0.7945    4.3670    0.6696 C   0  0  0  0  0  0  0  0  0  0  0  0
   -1.7520    1.8803    1.9855 C   0  0  0  0  0  0  0  0  0  0  0  0
   -2.2673    2.8677    2.8240 C   0  0  0  0  0  0  0  0  0  0  0  0
   -2.4061    2.6493    4.1788 C   0  0  0  0  0  0  0  0  0  0  0  0
   -2.0725    1.4187    4.7244 C   0  0  0  0  0  0  0  0  0  0  0  0
   -2.3126    1.0013    6.4229 S   0  0  0  0  0  0  0  0  0  0  0  0
   -2.5146    2.6150    7.2313 C   0  0  0  0  0  0  0  0  0  0  0  0
   -1.5441    0.4309    3.8979 C   0  0  0  0  0  0  0  0  0  0  0  0
   -1.3665    0.6638    2.5525 C   0  0  0  0  0  0  0  0  0  0  0  0
   -0.6350    1.0169   -1.3277 C   0  0  0  0  0  0  0  0  0  0  0  0
    0.5884    2.1314   -1.8213 S   0  0  0  0  0  0  0  0  0  0  0  0
    1.2960    0.9003   -2.8481 C   0  0  0  0  0  0  0  0  0  0  0  0
    0.5435   -0.2551   -2.9003 C   0  0  0  0  0  0  0  0  0  0  0  0
    0.8646   -1.3492   -3.7083 N   0  0  0  0  0  0  0  0  0  0  0  0
    1.1753   -1.0662   -5.0492 C   0  0  0  0  0  0  0  0  0  0  0  0
    2.2211   -1.6846   -5.7359 C   0  0  0  0  0  0  0  0  0  0  0  0
    2.5371   -1.2978   -7.0190 C   0  0  0  0  0  0  0  0  0  0  0  0
    1.8195   -0.2917   -7.6604 C   0  0  0  0  0  0  0  0  0  0  0  0
    2.3480    0.1367   -9.2879 S   0  0  0  0  0  0  0  0  0  0  0  0
    1.2037    1.4544   -9.7834 C   0  0  0  0  0  0  0  0  0  0  0  0
    0.7505    0.2984   -7.0014 C   0  0  0  0  0  0  0  0  0  0  0  0
    0.4347   -0.0901   -5.7147 C   0  0  0  0  0  0  0  0  0  0  0  0
    1.0552   -2.5989   -3.1184 C   0  0  0  0  0  0  0  0  0  0  0  0
    1.0535   -3.7730   -3.8691 C   0  0  0  0  0  0  0  0  0  0  0  0
    1.3393   -4.9878   -3.2771 C   0  0  0  0  0  0  0  0  0  0  0  0
    1.6096   -5.0602   -1.9181 C   0  0  0  0  0  0  0  0  0  0  0  0
    2.0362   -6.5603   -1.0837 S   0  0  0  0  0  0  0  0  0  0  0  0
    2.7705   -7.5623   -2.4085 C   0  0  0  0  0  0  0  0  0  0  0  0
    1.5280   -3.9065   -1.1484 C   0  0  0  0  0  0  0  0  0  0  0  0
    1.2592   -2.6946   -1.7407 C   0  0  0  0  0  0  0  0  0  0  0  0
   -0.5631   -0.1805   -2.0200 C   0  0  0  0  0  0  0  0  0  0  0  0
   -1.7520   -1.3071   -1.4741 S   0  0  0  0  0  0  0  0  0  0  0  0
    2.6231    1.0030   -3.4111 C   0  0  0  0  0  0  0  0  0  0  0  0
    3.7161    0.3627   -2.8650 C   0  0  0  0  0  0  0  0  0  0  0  0
    3.7286   -0.2963   -1.6334 N   0  0  0  0  0  0  0  0  0  0  0  0
    4.2787   -1.5839   -1.5849 C   0  0  0  0  0  0  0  0  0  0  0  0
    4.8809   -2.0960   -0.4384 C   0  0  0  0  0  0  0  0  0  0  0  0
    5.3996   -3.3770   -0.4309 C   0  0  0  0  0  0  0  0  0  0  0  0
    5.3391   -4.1667   -1.5701 C   0  0  0  0  0  0  0  0  0  0  0  0
    6.0074   -5.8057   -1.6442 S   0  0  0  0  0  0  0  0  0  0  0  0
    5.7269   -6.4162    0.0442 C   0  0  0  0  0  0  0  0  0  0  0  0
    4.7686   -3.6521   -2.7269 C   0  0  0  0  0  0  0  0  0  0  0  0
    4.2447   -2.3813   -2.7286 C   0  0  0  0  0  0  0  0  0  0  0  0
    3.2382    0.3689   -0.5046 C   0  0  0  0  0  0  0  0  0  0  0  0
    2.6302   -0.3156    0.5480 C   0  0  0  0  0  0  0  0  0  0  0  0
    2.1204    0.3647    1.6366 C   0  0  0  0  0  0  0  0  0  0  0  0
    2.2144    1.7474    1.7050 C   0  0  0  0  0  0  0  0  0  0  0  0
    1.5714    2.6923    3.0577 S   0  0  0  0  0  0  0  0  0  0  0  0
    1.7246    1.5478    4.4585 C   0  0  0  0  0  0  0  0  0  0  0  0
    2.8292    2.4387    0.6671 C   0  0  0  0  0  0  0  0  0  0  0  0
    3.3373    1.7598   -0.4187 C   0  0  0  0  0  0  0  0  0  0  0  0
    4.8270    0.4253   -3.7401 C   0  0  0  0  0  0  0  0  0  0  0  0
    6.3605   -0.3436   -3.7296 S   0  0  0  0  0  0  0  0  0  0  0  0
    6.6858    0.2546   -5.3482 C   0  0  0  0  0  0  0  0  0  0  0  0
    5.6613    1.0654   -5.8393 C   0  0  0  0  0  0  0  0  0  0  0  0
    5.6383    1.5993   -7.1038 N   0  0  0  0  0  0  0  0  0  0  0  0
    4.8858    2.7418   -7.3885 C   0  0  0  0  0  0  0  0  0  0  0  0
    4.3080    2.9040   -8.6493 C   0  0  0  0  0  0  0  0  0  0  0  0
    3.5604    4.0245   -8.9283 C   0  0  0  0  0  0  0  0  0  0  0  0
    3.3645    5.0092   -7.9599 C   0  0  0  0  0  0  0  0  0  0  0  0
    2.3518    6.3778   -8.4280 S   0  0  0  0  0  0  0  0  0  0  0  0
    2.3624    7.4546   -6.9672 C   0  0  0  0  0  0  0  0  0  0  0  0
    3.9622    4.8673   -6.7163 C   0  0  0  0  0  0  0  0  0  0  0  0
    4.7241    3.7484   -6.4393 C   0  0  0  0  0  0  0  0  0  0  0  0
    6.3925    0.9900   -8.1336 C   0  0  0  0  0  0  0  0  0  0  0  0
    7.2257    1.7567   -8.9379 C   0  0  0  0  0  0  0  0  0  0  0  0
    8.0445    1.1532   -9.8727 C   0  0  0  0  0  0  0  0  0  0  0  0
    8.0445   -0.2290  -10.0036 C   0  0  0  0  0  0  0  0  0  0  0  0
    9.1379   -1.1066  -11.0738 S   0  0  0  0  0  0  0  0  0  0  0  0
   10.4208    0.1199  -11.4560 C   0  0  0  0  0  0  0  0  0  0  0  0
    7.1553   -0.9919   -9.2484 C   0  0  0  0  0  0  0  0  0  0  0  0
    6.3296   -0.3894   -8.3261 C   0  0  0  0  0  0  0  0  0  0  0  0
    4.5922    1.1310   -4.9099 C   0  0  0  0  0  0  0  0  0  0  0  0
    2.9881    1.7870   -4.9368 S   0  0  0  0  0  0  0  0  0  0  0  0
    7.8844   -0.1541   -5.9991 C   0  0  0  0  0  0  0  0  0  0  0  0
    8.3803   -1.4185   -5.8925 C   0  0  0  0  0  0  0  0  0  0  0  0
    7.6012   -2.5863   -5.4010 C   0  0  0  0  0  0  0  0  0  0  0  0
    6.3977   -2.6585   -5.2583 O   0  0  0  0  0  0  0  0  0  0  0  0
    8.5664   -3.6879   -5.2759 C   0  0  0  0  0  0  0  0  0  0  0  0
    8.3394   -4.9376   -4.7041 C   0  0  0  0  0  0  0  0  0  0  0  0
    9.4429   -5.7552   -4.7054 C   0  0  0  0  0  0  0  0  0  0  0  0
   10.6783   -5.3656   -5.2417 C   0  0  0  0  0  0  0  0  0  0  0  0
   10.9094   -4.1413   -5.8237 C   0  0  0  0  0  0  0  0  0  0  0  0
    9.8008   -3.2882   -5.8284 C   0  0  0  0  0  0  0  0  0  0  0  0
    9.6715   -1.9184   -6.3213 C   0  0  0  0  0  0  0  0  0  0  0  0
   10.5940   -1.2545   -7.0860 C   0  0  0  0  0  0  0  0  0  0  0  0
   11.8157   -1.8075   -7.5239 C   0  0  0  0  0  0  0  0  0  0  0  0
   12.8235   -2.1876   -7.9216 N   0  0  0  0  0  0  0  0  0  0  0  0
   10.4442    0.0496   -7.5938 C   0  0  0  0  0  0  0  0  0  0  0  0
   10.4086    1.0980   -8.0644 N   0  0  0  0  0  0  0  0  0  0  0  0
   11.3400   -6.6693   -4.8662 C   0  0  0  0  0  0  0  0  0  0  0  0
   12.2498   -6.6434   -3.6194 C   0  0  0  0  0  0  0  0  0  0  0  0
   12.3566   -8.0972   -3.2184 C   0  0  0  0  0  0  0  0  0  0  0  0
   11.1847   -8.4650   -2.7160 C   0  0  0  0  0  0  0  0  0  0  0  0
   10.2654   -7.2667   -2.7703 C   0  0  0  0  0  0  0  0  0  0  0  0
   11.2838   -6.1432   -2.5374 C   0  0  0  0  0  0  0  0  0  0  0  0
    9.9606   -7.1030   -4.2743 C   0  0  0  0  0  0  0  0  0  0  0  0
   -7.9137   -3.4373    7.6055 H   0  0  0  0  0  0  0  0  0  0  0  0
   -9.2968   -1.6917   12.3933 H   0  0  0  0  0  0  0  0  0  0  0  0
   -9.7512    2.3159    9.3224 H   0  0  0  0  0  0  0  0  0  0  0  0
  -10.8765    3.0849   12.4787 H   0  0  0  0  0  0  0  0  0  0  0  0
   -8.4600    4.1550   12.1453 H   0  0  0  0  0  0  0  0  0  0  0  0
   -9.3650    4.8662   14.5071 H   0  0  0  0  0  0  0  0  0  0  0  0
   -9.1441    2.7819   16.1395 H   0  0  0  0  0  0  0  0  0  0  0  0
   -8.1023    0.7877   14.7831 H   0  0  0  0  0  0  0  0  0  0  0  0
   -7.4100    1.6898   12.3486 H   0  0  0  0  0  0  0  0  0  0  0  0
   -6.7661    2.7537   13.6199 H   0  0  0  0  0  0  0  0  0  0  0  0
  -10.6601    1.0405   14.0784 H   0  0  0  0  0  0  0  0  0  0  0  0
   -6.8379   -3.8763    5.3050 H   0  0  0  0  0  0  0  0  0  0  0  0
   -4.6178   -4.7247    5.1511 H   0  0  0  0  0  0  0  0  0  0  0  0
   -4.6452   -6.5260   -0.8690 H   0  0  0  0  0  0  0  0  0  0  0  0
   -6.0462   -7.4577   -0.4116 H   0  0  0  0  0  0  0  0  0  0  0  0
   -3.5621   -8.5880   -1.7782 H   0  0  0  0  0  0  0  0  0  0  0  0
   -5.1159   -8.2788   -2.5504 H   0  0  0  0  0  0  0  0  0  0  0  0
   -4.9775   -9.5287   -1.3164 H   0  0  0  0  0  0  0  0  0  0  0  0
   -4.2490   -9.8112    2.7683 H   0  0  0  0  0  0  0  0  0  0  0  0
   -4.6956  -10.3265    1.1639 H   0  0  0  0  0  0  0  0  0  0  0  0
   -6.9118   -9.1905    1.4092 H   0  0  0  0  0  0  0  0  0  0  0  0
   -6.4536   -8.6678    3.0272 H   0  0  0  0  0  0  0  0  0  0  0  0
   -6.6507  -10.3844    2.6794 H   0  0  0  0  0  0  0  0  0  0  0  0
   -1.9272   -8.7843    0.3959 H   0  0  0  0  0  0  0  0  0  0  0  0
   -1.7992   -8.1080    1.9999 H   0  0  0  0  0  0  0  0  0  0  0  0
   -0.5638   -6.7150    0.3779 H   0  0  0  0  0  0  0  0  0  0  0  0
   -2.0255   -6.4812   -0.5756 H   0  0  0  0  0  0  0  0  0  0  0  0
   -1.9162   -5.7976    1.0407 H   0  0  0  0  0  0  0  0  0  0  0  0
   -6.8072    7.0846    4.4063 H   0  0  0  0  0  0  0  0  0  0  0  0
   -6.7797    7.9075    2.8670 H   0  0  0  0  0  0  0  0  0  0  0  0
   -9.0076    6.9136    3.3075 H   0  0  0  0  0  0  0  0  0  0  0  0
   -8.2852    5.3120    3.4432 H   0  0  0  0  0  0  0  0  0  0  0  0
   -8.2751    6.1533    1.8960 H   0  0  0  0  0  0  0  0  0  0  0  0
   -3.4971    6.1754    4.4610 H   0  0  0  0  0  0  0  0  0  0  0  0
   -2.8626    6.2112    2.8326 H   0  0  0  0  0  0  0  0  0  0  0  0
   -3.8042    8.5116    2.5242 H   0  0  0  0  0  0  0  0  0  0  0  0
   -4.4150    8.4673    4.1752 H   0  0  0  0  0  0  0  0  0  0  0  0
   -2.6785    8.4297    3.8766 H   0  0  0  0  0  0  0  0  0  0  0  0
   -6.1944    5.2034    0.5410 H   0  0  0  0  0  0  0  0  0  0  0  0
   -4.4760    4.9208    0.6422 H   0  0  0  0  0  0  0  0  0  0  0  0
   -4.0148    7.3305    0.3722 H   0  0  0  0  0  0  0  0  0  0  0  0
   -5.7433    7.6829    0.3614 H   0  0  0  0  0  0  0  0  0  0  0  0
   -5.0262    6.7499   -0.9488 H   0  0  0  0  0  0  0  0  0  0  0  0
   -5.5581    1.7962    5.8876 H   0  0  0  0  0  0  0  0  0  0  0  0
   -4.0723    1.3446    1.3018 H   0  0  0  0  0  0  0  0  0  0  0  0
   -2.9388    2.9522   -1.5300 H   0  0  0  0  0  0  0  0  0  0  0  0
   -2.8544    5.1924   -2.4848 H   0  0  0  0  0  0  0  0  0  0  0  0
   -1.9873    6.9383   -3.7960 H   0  0  0  0  0  0  0  0  0  0  0  0
   -3.4180    7.4430   -2.8373 H   0  0  0  0  0  0  0  0  0  0  0  0
   -2.2889    8.6593   -3.4684 H   0  0  0  0  0  0  0  0  0  0  0  0
   -0.1433    6.3981    0.5980 H   0  0  0  0  0  0  0  0  0  0  0  0
   -0.2029    4.1221    1.5382 H   0  0  0  0  0  0  0  0  0  0  0  0
   -2.5829    3.8144    2.4142 H   0  0  0  0  0  0  0  0  0  0  0  0
   -2.8040    3.4411    4.7909 H   0  0  0  0  0  0  0  0  0  0  0  0
   -3.4693    3.0594    6.9672 H   0  0  0  0  0  0  0  0  0  0  0  0
   -1.6896    3.2637    6.9527 H   0  0  0  0  0  0  0  0  0  0  0  0
   -2.4858    2.4140    8.2978 H   0  0  0  0  0  0  0  0  0  0  0  0
   -1.2810   -0.5265    4.3241 H   0  0  0  0  0  0  0  0  0  0  0  0
   -0.9276   -0.1036    1.9336 H   0  0  0  0  0  0  0  0  0  0  0  0
    2.8007   -2.4664   -5.2726 H   0  0  0  0  0  0  0  0  0  0  0  0
    3.3555   -1.7728   -7.5381 H   0  0  0  0  0  0  0  0  0  0  0  0
    1.2947    2.2968   -9.1036 H   0  0  0  0  0  0  0  0  0  0  0  0
    0.1878    1.0714   -9.8133 H   0  0  0  0  0  0  0  0  0  0  0  0
    1.5134    1.7498  -10.7810 H   0  0  0  0  0  0  0  0  0  0  0  0
    0.1571    1.0647   -7.4725 H   0  0  0  0  0  0  0  0  0  0  0  0
   -0.3947    0.3823   -5.2091 H   0  0  0  0  0  0  0  0  0  0  0  0
    0.8273   -3.7388   -4.9238 H   0  0  0  0  0  0  0  0  0  0  0  0
    1.3441   -5.8764   -3.8886 H   0  0  0  0  0  0  0  0  0  0  0  0
    1.9974   -7.9413   -3.0705 H   0  0  0  0  0  0  0  0  0  0  0  0
    3.2675   -8.3914   -1.9148 H   0  0  0  0  0  0  0  0  0  0  0  0
    3.4969   -6.9622   -2.9476 H   0  0  0  0  0  0  0  0  0  0  0  0
    1.6990   -3.9684   -0.0843 H   0  0  0  0  0  0  0  0  0  0  0  0
    1.2281   -1.8032   -1.1365 H   0  0  0  0  0  0  0  0  0  0  0  0
    4.9643   -1.4862    0.4487 H   0  0  0  0  0  0  0  0  0  0  0  0
    5.8660   -3.7461    0.4695 H   0  0  0  0  0  0  0  0  0  0  0  0
    5.8562   -7.4930    0.0012 H   0  0  0  0  0  0  0  0  0  0  0  0
    6.4534   -5.9881    0.7289 H   0  0  0  0  0  0  0  0  0  0  0  0
    4.7113   -6.1743    0.3421 H   0  0  0  0  0  0  0  0  0  0  0  0
    4.7401   -4.2470   -3.6259 H   0  0  0  0  0  0  0  0  0  0  0  0
    3.8050   -1.9923   -3.6293 H   0  0  0  0  0  0  0  0  0  0  0  0
    2.5526   -1.3913    0.5190 H   0  0  0  0  0  0  0  0  0  0  0  0
    1.6438   -0.1930    2.4277 H   0  0  0  0  0  0  0  0  0  0  0  0
    2.6972    1.0671    4.4217 H   0  0  0  0  0  0  0  0  0  0  0  0
    1.6436    2.1586    5.3522 H   0  0  0  0  0  0  0  0  0  0  0  0
    0.9187    0.8200    4.4402 H   0  0  0  0  0  0  0  0  0  0  0  0
    2.9070    3.5133    0.7211 H   0  0  0  0  0  0  0  0  0  0  0  0
    3.8208    2.3097   -1.2121 H   0  0  0  0  0  0  0  0  0  0  0  0
    4.4436    2.1399   -9.3987 H   0  0  0  0  0  0  0  0  0  0  0  0
    3.1132    4.1536   -9.9023 H   0  0  0  0  0  0  0  0  0  0  0  0
    1.7471    8.3093   -7.2310 H   0  0  0  0  0  0  0  0  0  0  0  0
    1.9287    6.9352   -6.1175 H   0  0  0  0  0  0  0  0  0  0  0  0
    3.3759    7.7826   -6.7556 H   0  0  0  0  0  0  0  0  0  0  0  0
    3.8544    5.6216   -5.9540 H   0  0  0  0  0  0  0  0  0  0  0  0
    5.2121    3.6669   -5.4796 H   0  0  0  0  0  0  0  0  0  0  0  0
    7.2521    2.8288   -8.8126 H   0  0  0  0  0  0  0  0  0  0  0  0
    8.6931    1.7688  -10.4727 H   0  0  0  0  0  0  0  0  0  0  0  0
   10.0453    0.8471  -12.1703 H   0  0  0  0  0  0  0  0  0  0  0  0
   11.2404   -0.4396  -11.8961 H   0  0  0  0  0  0  0  0  0  0  0  0
   10.7460    0.5976  -10.5362 H   0  0  0  0  0  0  0  0  0  0  0  0
    7.1313   -2.0621   -9.3865 H   0  0  0  0  0  0  0  0  0  0  0  0
    5.6570   -0.9836   -7.7271 H   0  0  0  0  0  0  0  0  0  0  0  0
    8.4201    0.5915   -6.5723 H   0  0  0  0  0  0  0  0  0  0  0  0
    7.3795   -5.1973   -4.2859 H   0  0  0  0  0  0  0  0  0  0  0  0
   11.8637   -3.8548   -6.2338 H   0  0  0  0  0  0  0  0  0  0  0  0
   11.7608   -7.2445   -5.6885 H   0  0  0  0  0  0  0  0  0  0  0  0
   13.1832   -6.1019   -3.7481 H   0  0  0  0  0  0  0  0  0  0  0  0
   13.2273   -8.7033   -3.3873 H   0  0  0  0  0  0  0  0  0  0  0  0
   10.8817   -9.4400   -2.3819 H   0  0  0  0  0  0  0  0  0  0  0  0
    9.3864   -7.2879   -2.1319 H   0  0  0  0  0  0  0  0  0  0  0  0
   10.8905   -5.1447   -2.7184 H   0  0  0  0  0  0  0  0  0  0  0  0
   11.7240   -6.1864   -1.5423 H   0  0  0  0  0  0  0  0  0  0  0  0
    9.4564   -7.9666   -4.7033 H   0  0  0  0  0  0  0  0  0  0  0  0
  1  2  2  0  0  0  0
  2  3  1  0  0  0  0
  3  4  2  0  0  0  0
  3  5  1  0  0  0  0
  5  6  2  0  0  0  0
  6  7  1  0  0  0  0
  7  8  2  0  0  0  0
  8  9  1  0  0  0  0
  9 10  2  0  0  0  0
 10 11  1  0  0  0  0
 11 12  2  0  0  0  0
 12 13  1  0  0  0  0
 13 14  3  0  0  0  0
 12 15  1  0  0  0  0
 15 16  3  0  0  0  0
  8 17  1  0  0  0  0
 17 18  1  0  0  0  0
 18 19  1  0  0  0  0
 19 20  2  0  0  0  0
 20 21  1  0  0  0  0
 21 22  1  0  0  0  0
 21 23  1  0  0  0  0
  1 24  1  0  0  0  0
 24 25  2  0  0  0  0
 25 26  1  0  0  0  0
 26 27  2  0  0  0  0
 27 28  1  0  0  0  0
 28 29  2  0  0  0  0
 29 30  1  0  0  0  0
 30 31  1  0  0  0  0
 30 32  2  0  0  0  0
 32 33  1  0  0  0  0
 33 34  1  0  0  0  0
 34 35  1  0  0  0  0
 33 36  1  0  0  0  0
 36 37  1  0  0  0  0
 33 38  1  0  0  0  0
 38 39  1  0  0  0  0
 32 40  1  0  0  0  0
 27 41  1  0  0  0  0
 41 42  2  0  0  0  0
 42 43  1  0  0  0  0
 43 44  1  0  0  0  0
 44 45  1  0  0  0  0
 45 46  1  0  0  0  0
 46 47  1  0  0  0  0
 47 48  1  0  0  0  0
 48 49  1  0  0  0  0
 47 50  1  0  0  0  0
 50 51  1  0  0  0  0
 47 52  1  0  0  0  0
 52 53  1  0  0  0  0
 46 54  2  0  0  0  0
 54 55  1  0  0  0  0
 54 56  1  0  0  0  0
 43 57  2  0  0  0  0
 57 58  1  0  0  0  0
 42 59  1  0  0  0  0
 59 60  2  0  0  0  0
 60 61  1  0  0  0  0
 60 62  1  0  0  0  0
 62 63  2  0  0  0  0
 63 64  1  0  0  0  0
 64 65  1  0  0  0  0
 65 66  2  0  0  0  0
 66 67  1  0  0  0  0
 67 68  2  0  0  0  0
 68 69  1  0  0  0  0
 69 70  1  0  0  0  0
 68 71  1  0  0  0  0
 71 72  2  0  0  0  0
 64 73  1  0  0  0  0
 73 74  2  0  0  0  0
 74 75  1  0  0  0  0
 75 76  2  0  0  0  0
 76 77  1  0  0  0  0
 77 78  1  0  0  0  0
 76 79  1  0  0  0  0
 79 80  2  0  0  0  0
 63 81  1  0  0  0  0
 81 82  1  0  0  0  0
 82 83  1  0  0  0  0
 83 84  2  0  0  0  0
 84 85  1  0  0  0  0
 85 86  1  0  0  0  0
 86 87  2  0  0  0  0
 87 88  1  0  0  0  0
 88 89  2  0  0  0  0
 89 90  1  0  0  0  0
 90 91  1  0  0  0  0
 89 92  1  0  0  0  0
 92 93  2  0  0  0  0
 85 94  1  0  0  0  0
 94 95  2  0  0  0  0
 95 96  1  0  0  0  0
 96 97  2  0  0  0  0
 97 98  1  0  0  0  0
 98 99  1  0  0  0  0
 97100  1  0  0  0  0
100101  2  0  0  0  0
 84102  1  0  0  0  0
102103  1  0  0  0  0
 83104  1  0  0  0  0
104105  2  0  0  0  0
105106  1  0  0  0  0
106107  1  0  0  0  0
107108  2  0  0  0  0
108109  1  0  0  0  0
109110  2  0  0  0  0
110111  1  0  0  0  0
111112  1  0  0  0  0
110113  1  0  0  0  0
113114  2  0  0  0  0
106115  1  0  0  0  0
115116  2  0  0  0  0
116117  1  0  0  0  0
117118  2  0  0  0  0
118119  1  0  0  0  0
119120  1  0  0  0  0
118121  1  0  0  0  0
121122  2  0  0  0  0
105123  1  0  0  0  0
123124  1  0  0  0  0
124125  1  0  0  0  0
125126  2  0  0  0  0
126127  1  0  0  0  0
127128  1  0  0  0  0
128129  2  0  0  0  0
129130  1  0  0  0  0
130131  2  0  0  0  0
131132  1  0  0  0  0
132133  1  0  0  0  0
131134  1  0  0  0  0
134135  2  0  0  0  0
127136  1  0  0  0  0
136137  2  0  0  0  0
137138  1  0  0  0  0
138139  2  0  0  0  0
139140  1  0  0  0  0
140141  1  0  0  0  0
139142  1  0  0  0  0
142143  2  0  0  0  0
126144  1  0  0  0  0
144145  1  0  0  0  0
125146  1  0  0  0  0
146147  2  0  0  0  0
147148  1  0  0  0  0
148149  2  0  0  0  0
148150  1  0  0  0  0
150151  2  0  0  0  0
151152  1  0  0  0  0
152153  2  0  0  0  0
153154  1  0  0  0  0
154155  2  0  0  0  0
155156  1  0  0  0  0
156157  2  0  0  0  0
157158  1  0  0  0  0
158159  3  0  0  0  0
157160  1  0  0  0  0
160161  3  0  0  0  0
153162  1  0  0  0  0
162163  1  0  0  0  0
163164  1  0  0  0  0
164165  2  0  0  0  0
165166  1  0  0  0  0
166167  1  0  0  0  0
166168  1  0  0  0  0
 11  2  1  0  0  0  0
 23 17  1  0  0  0  0
 58 24  1  0  0  0  0
103 62  1  0  0  0  0
145104  1  0  0  0  0
156147  1  0  0  0  0
168162  1  0  0  0  0
 10  5  1  0  0  0  0
 22 18  1  0  0  0  0
 57 26  1  0  0  0  0
 72 65  1  0  0  0  0
 80 73  1  0  0  0  0
102 81  2  0  0  0  0
114107  1  0  0  0  0
122115  1  0  0  0  0
144123  2  0  0  0  0
155150  1  0  0  0  0
167163  1  0  0  0  0
 23  7  1  0  0  0  0
 40 28  1  0  0  0  0
 61 41  1  0  0  0  0
 93 86  1  0  0  0  0
101 94  1  0  0  0  0
135128  1  0  0  0  0
143136  1  0  0  0  0
168152  1  0  0  0  0
 55 44  2  0  0  0  0
  1169  1  0  0  0  0
  6170  1  0  0  0  0
  9171  1  0  0  0  0
 17172  1  0  0  0  0
 18173  1  0  0  0  0
 19174  1  0  0  0  0
 20175  1  0  0  0  0
 21176  1  0  0  0  0
 22177  1  0  0  0  0
 22178  1  0  0  0  0
 23179  1  0  0  0  0
 25180  1  0  0  0  0
 29181  1  0  0  0  0
 34182  1  0  0  0  0
 34183  1  0  0  0  0
 35184  1  0  0  0  0
 35185  1  0  0  0  0
 35186  1  0  0  0  0
 36187  1  0  0  0  0
 36188  1  0  0  0  0
 37189  1  0  0  0  0
 37190  1  0  0  0  0
 37191  1  0  0  0  0
 38192  1  0  0  0  0
 38193  1  0  0  0  0
 39194  1  0  0  0  0
 39195  1  0  0  0  0
 39196  1  0  0  0  0
 48197  1  0  0  0  0
 48198  1  0  0  0  0
 49199  1  0  0  0  0
 49200  1  0  0  0  0
 49201  1  0  0  0  0
 50202  1  0  0  0  0
 50203  1  0  0  0  0
 51204  1  0  0  0  0
 51205  1  0  0  0  0
 51206  1  0  0  0  0
 52207  1  0  0  0  0
 52208  1  0  0  0  0
 53209  1  0  0  0  0
 53210  1  0  0  0  0
 53211  1  0  0  0  0
 55212  1  0  0  0  0
 59213  1  0  0  0  0
 66214  1  0  0  0  0
 67215  1  0  0  0  0
 70216  1  0  0  0  0
 70217  1  0  0  0  0
 70218  1  0  0  0  0
 71219  1  0  0  0  0
 72220  1  0  0  0  0
 74221  1  0  0  0  0
 75222  1  0  0  0  0
 78223  1  0  0  0  0
 78224  1  0  0  0  0
 78225  1  0  0  0  0
 79226  1  0  0  0  0
 80227  1  0  0  0  0
 87228  1  0  0  0  0
 88229  1  0  0  0  0
 91230  1  0  0  0  0
 91231  1  0  0  0  0
 91232  1  0  0  0  0
 92233  1  0  0  0  0
 93234  1  0  0  0  0
 95235  1  0  0  0  0
 96236  1  0  0  0  0
 99237  1  0  0  0  0
 99238  1  0  0  0  0
 99239  1  0  0  0  0
100240  1  0  0  0  0
101241  1  0  0  0  0
108242  1  0  0  0  0
109243  1  0  0  0  0
112244  1  0  0  0  0
112245  1  0  0  0  0
112246  1  0  0  0  0
113247  1  0  0  0  0
114248  1  0  0  0  0
116249  1  0  0  0  0
117250  1  0  0  0  0
120251  1  0  0  0  0
120252  1  0  0  0  0
120253  1  0  0  0  0
121254  1  0  0  0  0
122255  1  0  0  0  0
129256  1  0  0  0  0
130257  1  0  0  0  0
133258  1  0  0  0  0
133259  1  0  0  0  0
133260  1  0  0  0  0
134261  1  0  0  0  0
135262  1  0  0  0  0
137263  1  0  0  0  0
138264  1  0  0  0  0
141265  1  0  0  0  0
141266  1  0  0  0  0
141267  1  0  0  0  0
142268  1  0  0  0  0
143269  1  0  0  0  0
146270  1  0  0  0  0
151271  1  0  0  0  0
154272  1  0  0  0  0
162273  1  0  0  0  0
163274  1  0  0  0  0
164275  1  0  0  0  0
165276  1  0  0  0  0
166277  1  0  0  0  0
167278  1  0  0  0  0
167279  1  0  0  0  0
168280  1  0  0  0  0
M  END
