
  xtb     02122217533D
 energy: -324.875449817677 gnorm: 0.000412775483 xtb: 6.4.1 (unknown)
196217  0     0  0            999 V2000
    2.0000   -7.5040   -1.8189 C   0  0  0  0  0  0  0  0  0  0  0  0
    2.7779   -7.7184   -2.9136 C   0  0  0  0  0  0  0  0  0  0  0  0
    3.4243   -6.6484   -3.7198 C   0  0  0  0  0  0  0  0  0  0  0  0
    3.5801   -5.4818   -3.4241 O   0  0  0  0  0  0  0  0  0  0  0  0
    3.7757   -7.2845   -5.0026 C   0  0  0  0  0  0  0  0  0  0  0  0
    4.3131   -6.6533   -6.1210 C   0  0  0  0  0  0  0  0  0  0  0  0
    4.4703   -7.4792   -7.2066 C   0  0  0  0  0  0  0  0  0  0  0  0
    4.1246   -8.8379   -7.1854 C   0  0  0  0  0  0  0  0  0  0  0  0
    3.6071   -9.4770   -6.0853 C   0  0  0  0  0  0  0  0  0  0  0  0
    3.4332   -8.6519   -4.9696 C   0  0  0  0  0  0  0  0  0  0  0  0
    2.8830   -8.9614   -3.6577 C   0  0  0  0  0  0  0  0  0  0  0  0
    2.5856  -10.2075   -3.1719 C   0  0  0  0  0  0  0  0  0  0  0  0
    2.1632  -10.4597   -1.8499 C   0  0  0  0  0  0  0  0  0  0  0  0
    1.8409  -10.7313   -0.7815 N   0  0  0  0  0  0  0  0  0  0  0  0
    2.6989  -11.4013   -3.9129 C   0  0  0  0  0  0  0  0  0  0  0  0
    2.7543  -12.4060   -4.4660 N   0  0  0  0  0  0  0  0  0  0  0  0
    4.4960   -9.0366   -8.6335 C   0  0  0  0  0  0  0  0  0  0  0  0
    3.3389   -9.1115   -9.6614 C   0  0  0  0  0  0  0  0  0  0  0  0
    2.1883   -8.3384   -9.0659 C   0  0  0  0  0  0  0  0  0  0  0  0
    2.5131   -7.0526   -9.0782 C   0  0  0  0  0  0  0  0  0  0  0  0
    3.8885   -6.9329   -9.6881 C   0  0  0  0  0  0  0  0  0  0  0  0
    3.8420   -8.0923  -10.6958 C   0  0  0  0  0  0  0  0  0  0  0  0
    4.8810   -7.5237   -8.6558 C   0  0  0  0  0  0  0  0  0  0  0  0
    1.8647   -6.2516   -1.1361 C   0  0  0  0  0  0  0  0  0  0  0  0
    0.5689   -5.8538   -0.7586 C   0  0  0  0  0  0  0  0  0  0  0  0
    0.3115   -4.5750   -0.3528 C   0  0  0  0  0  0  0  0  0  0  0  0
    1.3166   -3.5873   -0.3201 C   0  0  0  0  0  0  0  0  0  0  0  0
    2.6334   -3.9845   -0.5521 C   0  0  0  0  0  0  0  0  0  0  0  0
    3.9306   -3.3333   -0.4522 C   0  0  0  0  0  0  0  0  0  0  0  0
    4.4670   -2.0968   -0.3952 C   0  0  0  0  0  0  0  0  0  0  0  0
    3.9379   -0.7665   -0.5499 C   0  0  0  0  0  0  0  0  0  0  0  0
    4.4191    0.3297    0.2296 C   0  0  0  0  0  0  0  0  0  0  0  0
    3.8318    1.5031   -0.0905 C   0  0  0  0  0  0  0  0  0  0  0  0
    2.7068    1.3286   -1.3850 S   0  0  0  0  0  0  0  0  0  0  0  0
    3.0163   -0.3523   -1.4709 C   0  0  0  0  0  0  0  0  0  0  0  0
    4.9271   -4.4415   -0.4897 C   0  0  0  0  0  0  0  0  0  0  0  0
    6.1236   -4.3710   -0.3150 O   0  0  0  0  0  0  0  0  0  0  0  0
    4.2463   -5.5972   -0.7989 N   0  0  0  0  0  0  0  0  0  0  0  0
    4.9351   -6.8634   -0.8147 C   0  0  0  0  0  0  0  0  0  0  0  0
    4.4674   -7.8005    0.2930 C   0  0  0  0  0  0  0  0  0  0  0  0
    2.8973   -5.3444   -0.8708 C   0  0  0  0  0  0  0  0  0  0  0  0
    0.8757   -2.2383   -0.0293 C   0  0  0  0  0  0  0  0  0  0  0  0
   -0.2185   -1.6052   -0.5929 C   0  0  0  0  0  0  0  0  0  0  0  0
   -1.0720   -2.1128   -1.5656 N   0  0  0  0  0  0  0  0  0  0  0  0
   -2.4290   -1.7519   -1.4966 C   0  0  0  0  0  0  0  0  0  0  0  0
   -3.1466   -1.4921   -2.6644 C   0  0  0  0  0  0  0  0  0  0  0  0
   -4.4692   -1.1190   -2.5963 C   0  0  0  0  0  0  0  0  0  0  0  0
   -5.1070   -0.9882   -1.3630 C   0  0  0  0  0  0  0  0  0  0  0  0
   -6.8006   -0.4940   -1.3995 S   0  0  0  0  0  0  0  0  0  0  0  0
   -7.1918   -0.1604    0.3418 C   0  0  0  0  0  0  0  0  0  0  0  0
   -4.4020   -1.2603   -0.1995 C   0  0  0  0  0  0  0  0  0  0  0  0
   -3.0765   -1.6435   -0.2693 C   0  0  0  0  0  0  0  0  0  0  0  0
   -0.6685   -3.0593   -2.5137 C   0  0  0  0  0  0  0  0  0  0  0  0
   -1.5128   -4.1134   -2.8613 C   0  0  0  0  0  0  0  0  0  0  0  0
   -1.1033   -5.0820   -3.7555 C   0  0  0  0  0  0  0  0  0  0  0  0
    0.1651   -5.0207   -4.3149 C   0  0  0  0  0  0  0  0  0  0  0  0
    0.7879   -6.2213   -5.4567 S   0  0  0  0  0  0  0  0  0  0  0  0
   -0.1935   -7.7037   -5.0798 C   0  0  0  0  0  0  0  0  0  0  0  0
    0.9998   -3.9516   -4.0057 C   0  0  0  0  0  0  0  0  0  0  0  0
    0.5830   -2.9833   -3.1215 C   0  0  0  0  0  0  0  0  0  0  0  0
   -0.3777   -0.3032   -0.0501 C   0  0  0  0  0  0  0  0  0  0  0  0
   -1.4619    1.0067   -0.3672 S   0  0  0  0  0  0  0  0  0  0  0  0
   -0.6079    2.0185    0.7912 C   0  0  0  0  0  0  0  0  0  0  0  0
    0.4363    1.3570    1.4037 C   0  0  0  0  0  0  0  0  0  0  0  0
    1.3203    1.9173    2.3135 N   0  0  0  0  0  0  0  0  0  0  0  0
    1.9360    1.1055    3.2740 C   0  0  0  0  0  0  0  0  0  0  0  0
    3.2648    1.3310    3.6224 C   0  0  0  0  0  0  0  0  0  0  0  0
    3.8981    0.5276    4.5492 C   0  0  0  0  0  0  0  0  0  0  0  0
    3.2118   -0.5244    5.1420 C   0  0  0  0  0  0  0  0  0  0  0  0
    3.9171   -1.6219    6.3320 S   0  0  0  0  0  0  0  0  0  0  0  0
    5.6903   -1.2349    6.2836 C   0  0  0  0  0  0  0  0  0  0  0  0
    1.8760   -0.7410    4.8128 C   0  0  0  0  0  0  0  0  0  0  0  0
    1.2422    0.0661    3.8945 C   0  0  0  0  0  0  0  0  0  0  0  0
    1.5127    3.3064    2.3509 C   0  0  0  0  0  0  0  0  0  0  0  0
    1.5045    3.9893    3.5629 C   0  0  0  0  0  0  0  0  0  0  0  0
    1.5468    5.3698    3.5933 C   0  0  0  0  0  0  0  0  0  0  0  0
    1.5964    6.0912    2.4082 C   0  0  0  0  0  0  0  0  0  0  0  0
    1.4952    7.8483    2.2970 S   0  0  0  0  0  0  0  0  0  0  0  0
    1.2599    8.3835    4.0136 C   0  0  0  0  0  0  0  0  0  0  0  0
    1.7011    5.4067    1.1987 C   0  0  0  0  0  0  0  0  0  0  0  0
    1.6648    4.0324    1.1703 C   0  0  0  0  0  0  0  0  0  0  0  0
    0.5561    0.0274    0.9153 C   0  0  0  0  0  0  0  0  0  0  0  0
    1.6441   -1.2798    1.2198 S   0  0  0  0  0  0  0  0  0  0  0  0
   -1.1085    3.3439    1.1516 C   0  0  0  0  0  0  0  0  0  0  0  0
   -1.4823    3.5116    2.4943 C   0  0  0  0  0  0  0  0  0  0  0  0
   -1.9323    4.7060    3.0002 C   0  0  0  0  0  0  0  0  0  0  0  0
   -2.0543    5.8294    2.1765 C   0  0  0  0  0  0  0  0  0  0  0  0
   -1.7265    5.6764    0.8304 C   0  0  0  0  0  0  0  0  0  0  0  0
   -1.7981    6.6264   -0.2571 C   0  0  0  0  0  0  0  0  0  0  0  0
   -2.3765    7.8510   -0.1729 C   0  0  0  0  0  0  0  0  0  0  0  0
   -2.4618    8.9392   -1.0935 C   0  0  0  0  0  0  0  0  0  0  0  0
   -3.1476   10.1448   -0.7338 C   0  0  0  0  0  0  0  0  0  0  0  0
   -3.1092   11.0847   -1.7009 C   0  0  0  0  0  0  0  0  0  0  0  0
   -2.2388   10.5394   -3.0895 S   0  0  0  0  0  0  0  0  0  0  0  0
   -1.9209    9.0367   -2.3559 C   0  0  0  0  0  0  0  0  0  0  0  0
   -1.2402    5.9157   -1.4299 C   0  0  0  0  0  0  0  0  0  0  0  0
   -1.1188    6.2978   -2.5779 O   0  0  0  0  0  0  0  0  0  0  0  0
   -0.9007    4.6468   -1.0128 N   0  0  0  0  0  0  0  0  0  0  0  0
   -0.2618    3.7169   -1.9225 C   0  0  0  0  0  0  0  0  0  0  0  0
    0.9955    4.2965   -2.5651 C   0  0  0  0  0  0  0  0  0  0  0  0
   -1.2264    4.4566    0.3205 C   0  0  0  0  0  0  0  0  0  0  0  0
   -2.4017    7.1165    2.7484 C   0  0  0  0  0  0  0  0  0  0  0  0
   -3.4801    7.3502    3.5313 C   0  0  0  0  0  0  0  0  0  0  0  0
   -4.5808    6.3715    3.7639 C   0  0  0  0  0  0  0  0  0  0  0  0
   -4.7157    5.2765    3.2658 O   0  0  0  0  0  0  0  0  0  0  0  0
   -5.5134    7.0362    4.6926 C   0  0  0  0  0  0  0  0  0  0  0  0
   -6.6826    6.4954    5.2255 C   0  0  0  0  0  0  0  0  0  0  0  0
   -7.3590    7.3431    6.0683 C   0  0  0  0  0  0  0  0  0  0  0  0
   -6.9086    8.6391    6.3592 C   0  0  0  0  0  0  0  0  0  0  0  0
   -5.7648    9.1887    5.8341 C   0  0  0  0  0  0  0  0  0  0  0  0
   -5.0586    8.3410    4.9717 C   0  0  0  0  0  0  0  0  0  0  0  0
   -3.8306    8.5838    4.2231 C   0  0  0  0  0  0  0  0  0  0  0  0
   -3.1615    9.7764    4.1582 C   0  0  0  0  0  0  0  0  0  0  0  0
   -3.5407   10.9489    4.8471 C   0  0  0  0  0  0  0  0  0  0  0  0
   -3.7798   11.9384    5.3775 N   0  0  0  0  0  0  0  0  0  0  0  0
   -2.0136   10.0362    3.3798 C   0  0  0  0  0  0  0  0  0  0  0  0
   -1.0906   10.3498    2.7726 N   0  0  0  0  0  0  0  0  0  0  0  0
   -8.0703    8.9228    7.2781 C   0  0  0  0  0  0  0  0  0  0  0  0
   -7.7849    8.8526    8.7933 C   0  0  0  0  0  0  0  0  0  0  0  0
   -9.1551    8.6938    9.4119 C   0  0  0  0  0  0  0  0  0  0  0  0
   -9.5827    7.4683    9.1361 C   0  0  0  0  0  0  0  0  0  0  0  0
   -8.5086    6.7779    8.3268 C   0  0  0  0  0  0  0  0  0  0  0  0
   -7.2596    7.4191    8.9452 C   0  0  0  0  0  0  0  0  0  0  0  0
   -8.5727    7.4793    6.9532 C   0  0  0  0  0  0  0  0  0  0  0  0
    1.3092   -8.2823   -1.5139 H   0  0  0  0  0  0  0  0  0  0  0  0
    4.5567   -5.6029   -6.1008 H   0  0  0  0  0  0  0  0  0  0  0  0
    3.3362  -10.5202   -6.0821 H   0  0  0  0  0  0  0  0  0  0  0  0
    5.2780   -9.7664   -8.8331 H   0  0  0  0  0  0  0  0  0  0  0  0
    3.1136  -10.1142  -10.0146 H   0  0  0  0  0  0  0  0  0  0  0  0
    1.3074   -8.7960   -8.6551 H   0  0  0  0  0  0  0  0  0  0  0  0
    1.9614   -6.2260   -8.6707 H   0  0  0  0  0  0  0  0  0  0  0  0
    4.1620   -5.9514  -10.0661 H   0  0  0  0  0  0  0  0  0  0  0  0
    3.1286   -7.9225  -11.5008 H   0  0  0  0  0  0  0  0  0  0  0  0
    4.8159   -8.3432  -11.1140 H   0  0  0  0  0  0  0  0  0  0  0  0
    5.9145   -7.2623   -8.8739 H   0  0  0  0  0  0  0  0  0  0  0  0
   -0.2371   -6.5683   -0.8382 H   0  0  0  0  0  0  0  0  0  0  0  0
   -0.6897   -4.3004   -0.0590 H   0  0  0  0  0  0  0  0  0  0  0  0
    5.5415   -2.1101   -0.2194 H   0  0  0  0  0  0  0  0  0  0  0  0
    5.1470    0.2146    1.0121 H   0  0  0  0  0  0  0  0  0  0  0  0
    3.9926    2.4716    0.3393 H   0  0  0  0  0  0  0  0  0  0  0  0
    2.5395   -0.9416   -2.2255 H   0  0  0  0  0  0  0  0  0  0  0  0
    5.9910   -6.6130   -0.6709 H   0  0  0  0  0  0  0  0  0  0  0  0
    4.8267   -7.3455   -1.7919 H   0  0  0  0  0  0  0  0  0  0  0  0
    3.4390   -8.1194    0.1389 H   0  0  0  0  0  0  0  0  0  0  0  0
    5.0988   -8.6847    0.3092 H   0  0  0  0  0  0  0  0  0  0  0  0
    4.5369   -7.3049    1.2585 H   0  0  0  0  0  0  0  0  0  0  0  0
   -2.6541   -1.5798   -3.6211 H   0  0  0  0  0  0  0  0  0  0  0  0
   -5.0248   -0.9107   -3.4976 H   0  0  0  0  0  0  0  0  0  0  0  0
   -7.1846   -1.0845    0.9129 H   0  0  0  0  0  0  0  0  0  0  0  0
   -6.4872    0.5615    0.7443 H   0  0  0  0  0  0  0  0  0  0  0  0
   -8.1924    0.2608    0.3404 H   0  0  0  0  0  0  0  0  0  0  0  0
   -4.8708   -1.1864    0.7683 H   0  0  0  0  0  0  0  0  0  0  0  0
   -2.5391   -1.8641    0.6418 H   0  0  0  0  0  0  0  0  0  0  0  0
   -2.4947   -4.1810   -2.4165 H   0  0  0  0  0  0  0  0  0  0  0  0
   -1.7787   -5.8862   -4.0015 H   0  0  0  0  0  0  0  0  0  0  0  0
   -0.2181   -7.8568   -4.0048 H   0  0  0  0  0  0  0  0  0  0  0  0
    0.3199   -8.5287   -5.5649 H   0  0  0  0  0  0  0  0  0  0  0  0
   -1.1967   -7.6096   -5.4848 H   0  0  0  0  0  0  0  0  0  0  0  0
    1.9794   -3.8957   -4.4522 H   0  0  0  0  0  0  0  0  0  0  0  0
    1.2333   -2.1576   -2.8891 H   0  0  0  0  0  0  0  0  0  0  0  0
    3.8029    2.1449    3.1593 H   0  0  0  0  0  0  0  0  0  0  0  0
    4.9280    0.7297    4.7959 H   0  0  0  0  0  0  0  0  0  0  0  0
    6.1674   -1.9736    6.9200 H   0  0  0  0  0  0  0  0  0  0  0  0
    5.8706   -0.2394    6.6791 H   0  0  0  0  0  0  0  0  0  0  0  0
    6.0582   -1.3307    5.2664 H   0  0  0  0  0  0  0  0  0  0  0  0
    1.3422   -1.5478    5.2907 H   0  0  0  0  0  0  0  0  0  0  0  0
    0.2022   -0.1014    3.6570 H   0  0  0  0  0  0  0  0  0  0  0  0
    1.4324    3.4344    4.4868 H   0  0  0  0  0  0  0  0  0  0  0  0
    1.5154    5.8696    4.5479 H   0  0  0  0  0  0  0  0  0  0  0  0
    0.3947    7.8851    4.4421 H   0  0  0  0  0  0  0  0  0  0  0  0
    1.0772    9.4523    3.9560 H   0  0  0  0  0  0  0  0  0  0  0  0
    2.1563    8.1870    4.5947 H   0  0  0  0  0  0  0  0  0  0  0  0
    1.7864    5.9754    0.2850 H   0  0  0  0  0  0  0  0  0  0  0  0
    1.7219    3.5062    0.2307 H   0  0  0  0  0  0  0  0  0  0  0  0
   -1.4013    2.6591    3.1524 H   0  0  0  0  0  0  0  0  0  0  0  0
   -2.1665    4.7896    4.0499 H   0  0  0  0  0  0  0  0  0  0  0  0
   -2.8683    8.0628    0.7711 H   0  0  0  0  0  0  0  0  0  0  0  0
   -3.6345   10.2838    0.2155 H   0  0  0  0  0  0  0  0  0  0  0  0
   -3.5325   12.0691   -1.6962 H   0  0  0  0  0  0  0  0  0  0  0  0
   -1.3697    8.2839   -2.8826 H   0  0  0  0  0  0  0  0  0  0  0  0
   -0.9778    3.4467   -2.7065 H   0  0  0  0  0  0  0  0  0  0  0  0
    0.0022    2.8213   -1.3659 H   0  0  0  0  0  0  0  0  0  0  0  0
    1.7039    4.6203   -1.8069 H   0  0  0  0  0  0  0  0  0  0  0  0
    0.7449    5.1455   -3.1931 H   0  0  0  0  0  0  0  0  0  0  0  0
    1.4650    3.5306   -3.1763 H   0  0  0  0  0  0  0  0  0  0  0  0
   -1.6895    7.9111    2.5548 H   0  0  0  0  0  0  0  0  0  0  0  0
   -6.9937    5.4947    4.9698 H   0  0  0  0  0  0  0  0  0  0  0  0
   -5.4373   10.1888    6.0631 H   0  0  0  0  0  0  0  0  0  0  0  0
   -8.6974    9.7682    7.0020 H   0  0  0  0  0  0  0  0  0  0  0  0
   -7.1647    9.6578    9.1773 H   0  0  0  0  0  0  0  0  0  0  0  0
   -9.6779    9.4814    9.9217 H   0  0  0  0  0  0  0  0  0  0  0  0
  -10.5343    7.0279    9.3693 H   0  0  0  0  0  0  0  0  0  0  0  0
   -8.5478    5.6927    8.2865 H   0  0  0  0  0  0  0  0  0  0  0  0
   -7.1268    7.1382    9.9886 H   0  0  0  0  0  0  0  0  0  0  0  0
   -6.3409    7.2219    8.3956 H   0  0  0  0  0  0  0  0  0  0  0  0
   -9.5353    7.3612    6.4594 H   0  0  0  0  0  0  0  0  0  0  0  0
  1  2  2  0  0  0  0
  2  3  1  0  0  0  0
  3  4  2  0  0  0  0
  3  5  1  0  0  0  0
  5  6  2  0  0  0  0
  6  7  1  0  0  0  0
  7  8  2  0  0  0  0
  8  9  1  0  0  0  0
  9 10  2  0  0  0  0
 10 11  1  0  0  0  0
 11 12  2  0  0  0  0
 12 13  1  0  0  0  0
 13 14  3  0  0  0  0
 12 15  1  0  0  0  0
 15 16  3  0  0  0  0
  8 17  1  0  0  0  0
 17 18  1  0  0  0  0
 18 19  1  0  0  0  0
 19 20  2  0  0  0  0
 20 21  1  0  0  0  0
 21 22  1  0  0  0  0
 21 23  1  0  0  0  0
  1 24  1  0  0  0  0
 24 25  2  0  0  0  0
 25 26  1  0  0  0  0
 26 27  2  0  0  0  0
 27 28  1  0  0  0  0
 28 29  1  0  0  0  0
 29 30  2  0  0  0  0
 30 31  1  0  0  0  0
 31 32  1  0  0  0  0
 32 33  2  0  0  0  0
 33 34  1  0  0  0  0
 34 35  1  0  0  0  0
 29 36  1  0  0  0  0
 36 37  2  0  0  0  0
 36 38  1  0  0  0  0
 38 39  1  0  0  0  0
 39 40  1  0  0  0  0
 38 41  1  0  0  0  0
 27 42  1  0  0  0  0
 42 43  2  0  0  0  0
 43 44  1  0  0  0  0
 44 45  1  0  0  0  0
 45 46  2  0  0  0  0
 46 47  1  0  0  0  0
 47 48  2  0  0  0  0
 48 49  1  0  0  0  0
 49 50  1  0  0  0  0
 48 51  1  0  0  0  0
 51 52  2  0  0  0  0
 44 53  1  0  0  0  0
 53 54  2  0  0  0  0
 54 55  1  0  0  0  0
 55 56  2  0  0  0  0
 56 57  1  0  0  0  0
 57 58  1  0  0  0  0
 56 59  1  0  0  0  0
 59 60  2  0  0  0  0
 43 61  1  0  0  0  0
 61 62  1  0  0  0  0
 62 63  1  0  0  0  0
 63 64  2  0  0  0  0
 64 65  1  0  0  0  0
 65 66  1  0  0  0  0
 66 67  2  0  0  0  0
 67 68  1  0  0  0  0
 68 69  2  0  0  0  0
 69 70  1  0  0  0  0
 70 71  1  0  0  0  0
 69 72  1  0  0  0  0
 72 73  2  0  0  0  0
 65 74  1  0  0  0  0
 74 75  2  0  0  0  0
 75 76  1  0  0  0  0
 76 77  2  0  0  0  0
 77 78  1  0  0  0  0
 78 79  1  0  0  0  0
 77 80  1  0  0  0  0
 80 81  2  0  0  0  0
 64 82  1  0  0  0  0
 82 83  1  0  0  0  0
 63 84  1  0  0  0  0
 84 85  2  0  0  0  0
 85 86  1  0  0  0  0
 86 87  2  0  0  0  0
 87 88  1  0  0  0  0
 88 89  1  0  0  0  0
 89 90  2  0  0  0  0
 90 91  1  0  0  0  0
 91 92  1  0  0  0  0
 92 93  2  0  0  0  0
 93 94  1  0  0  0  0
 94 95  1  0  0  0  0
 89 96  1  0  0  0  0
 96 97  2  0  0  0  0
 96 98  1  0  0  0  0
 98 99  1  0  0  0  0
 99100  1  0  0  0  0
 98101  1  0  0  0  0
 87102  1  0  0  0  0
102103  2  0  0  0  0
103104  1  0  0  0  0
104105  2  0  0  0  0
104106  1  0  0  0  0
106107  2  0  0  0  0
107108  1  0  0  0  0
108109  2  0  0  0  0
109110  1  0  0  0  0
110111  2  0  0  0  0
111112  1  0  0  0  0
112113  2  0  0  0  0
113114  1  0  0  0  0
114115  3  0  0  0  0
113116  1  0  0  0  0
116117  3  0  0  0  0
109118  1  0  0  0  0
118119  1  0  0  0  0
119120  1  0  0  0  0
120121  2  0  0  0  0
121122  1  0  0  0  0
122123  1  0  0  0  0
122124  1  0  0  0  0
 11  2  1  0  0  0  0
 23 17  1  0  0  0  0
 41 24  1  0  0  0  0
 83 42  1  0  0  0  0
101 84  1  0  0  0  0
112103  1  0  0  0  0
124118  1  0  0  0  0
 10  5  1  0  0  0  0
 22 18  1  0  0  0  0
 41 28  2  0  0  0  0
 52 45  1  0  0  0  0
 60 53  1  0  0  0  0
 82 61  2  0  0  0  0
101 88  2  0  0  0  0
111106  1  0  0  0  0
123119  1  0  0  0  0
 23  7  1  0  0  0  0
 35 31  2  0  0  0  0
 73 66  1  0  0  0  0
 81 74  1  0  0  0  0
 95 91  2  0  0  0  0
124108  1  0  0  0  0
  1125  1  0  0  0  0
  6126  1  0  0  0  0
  9127  1  0  0  0  0
 17128  1  0  0  0  0
 18129  1  0  0  0  0
 19130  1  0  0  0  0
 20131  1  0  0  0  0
 21132  1  0  0  0  0
 22133  1  0  0  0  0
 22134  1  0  0  0  0
 23135  1  0  0  0  0
 25136  1  0  0  0  0
 26137  1  0  0  0  0
 30138  1  0  0  0  0
 32139  1  0  0  0  0
 33140  1  0  0  0  0
 35141  1  0  0  0  0
 39142  1  0  0  0  0
 39143  1  0  0  0  0
 40144  1  0  0  0  0
 40145  1  0  0  0  0
 40146  1  0  0  0  0
 46147  1  0  0  0  0
 47148  1  0  0  0  0
 50149  1  0  0  0  0
 50150  1  0  0  0  0
 50151  1  0  0  0  0
 51152  1  0  0  0  0
 52153  1  0  0  0  0
 54154  1  0  0  0  0
 55155  1  0  0  0  0
 58156  1  0  0  0  0
 58157  1  0  0  0  0
 58158  1  0  0  0  0
 59159  1  0  0  0  0
 60160  1  0  0  0  0
 67161  1  0  0  0  0
 68162  1  0  0  0  0
 71163  1  0  0  0  0
 71164  1  0  0  0  0
 71165  1  0  0  0  0
 72166  1  0  0  0  0
 73167  1  0  0  0  0
 75168  1  0  0  0  0
 76169  1  0  0  0  0
 79170  1  0  0  0  0
 79171  1  0  0  0  0
 79172  1  0  0  0  0
 80173  1  0  0  0  0
 81174  1  0  0  0  0
 85175  1  0  0  0  0
 86176  1  0  0  0  0
 90177  1  0  0  0  0
 92178  1  0  0  0  0
 93179  1  0  0  0  0
 95180  1  0  0  0  0
 99181  1  0  0  0  0
 99182  1  0  0  0  0
100183  1  0  0  0  0
100184  1  0  0  0  0
100185  1  0  0  0  0
102186  1  0  0  0  0
107187  1  0  0  0  0
110188  1  0  0  0  0
118189  1  0  0  0  0
119190  1  0  0  0  0
120191  1  0  0  0  0
121192  1  0  0  0  0
122193  1  0  0  0  0
123194  1  0  0  0  0
123195  1  0  0  0  0
124196  1  0  0  0  0
M  END
