196

C          2.00000       -7.50400       -1.81890
C          2.77790       -7.71840       -2.91360
C          3.42430       -6.64840       -3.71980
O          3.58010       -5.48180       -3.42410
C          3.77570       -7.28450       -5.00260
C          4.31310       -6.65330       -6.12100
C          4.47030       -7.47920       -7.20660
C          4.12460       -8.83790       -7.18540
C          3.60710       -9.47700       -6.08530
C          3.43320       -8.65190       -4.96960
C          2.88300       -8.96140       -3.65770
C          2.58560      -10.20750       -3.17190
C          2.16320      -10.45970       -1.84990
N          1.84090      -10.73130       -0.78150
C          2.69890      -11.40130       -3.91290
N          2.75430      -12.40600       -4.46600
C          4.49600       -9.03660       -8.63350
C          3.33890       -9.11150       -9.66140
C          2.18830       -8.33840       -9.06590
C          2.51310       -7.05260       -9.07820
C          3.88850       -6.93290       -9.68810
C          3.84200       -8.09230      -10.69580
C          4.88100       -7.52370       -8.65580
C          1.86470       -6.25160       -1.13610
C          0.56890       -5.85380       -0.75860
C          0.31150       -4.57500       -0.35280
C          1.31660       -3.58730       -0.32010
C          2.63340       -3.98450       -0.55210
C          3.93060       -3.33330       -0.45220
C          4.46700       -2.09680       -0.39520
C          3.93790       -0.76650       -0.54990
C          4.41910        0.32970        0.22960
C          3.83180        1.50310       -0.09050
S          2.70680        1.32860       -1.38500
C          3.01630       -0.35230       -1.47090
C          4.92710       -4.44150       -0.48970
O          6.12360       -4.37100       -0.31500
N          4.24630       -5.59720       -0.79890
C          4.93510       -6.86340       -0.81470
C          4.46740       -7.80050        0.29300
C          2.89730       -5.34440       -0.87080
C          0.87570       -2.23830       -0.02930
C         -0.21850       -1.60520       -0.59290
N         -1.07200       -2.11280       -1.56560
C         -2.42900       -1.75190       -1.49660
C         -3.14660       -1.49210       -2.66440
C         -4.46920       -1.11900       -2.59630
C         -5.10700       -0.98820       -1.36300
S         -6.80060       -0.49400       -1.39950
C         -7.19180       -0.16040        0.34180
C         -4.40200       -1.26030       -0.19950
C         -3.07650       -1.64350       -0.26930
C         -0.66850       -3.05930       -2.51370
C         -1.51280       -4.11340       -2.86130
C         -1.10330       -5.08200       -3.75550
C          0.16510       -5.02070       -4.31490
S          0.78790       -6.22130       -5.45670
C         -0.19350       -7.70370       -5.07980
C          0.99980       -3.95160       -4.00570
C          0.58300       -2.98330       -3.12150
C         -0.37770       -0.30320       -0.05010
S         -1.46190        1.00670       -0.36720
C         -0.60790        2.01850        0.79120
C          0.43630        1.35700        1.40370
N          1.32030        1.91730        2.31350
C          1.93600        1.10550        3.27400
C          3.26480        1.33100        3.62240
C          3.89810        0.52760        4.54920
C          3.21180       -0.52440        5.14200
S          3.91710       -1.62190        6.33200
C          5.69030       -1.23490        6.28360
C          1.87600       -0.74100        4.81280
C          1.24220        0.06610        3.89450
C          1.51270        3.30640        2.35090
C          1.50450        3.98930        3.56290
C          1.54680        5.36980        3.59330
C          1.59640        6.09120        2.40820
S          1.49520        7.84830        2.29700
C          1.25990        8.38350        4.01360
C          1.70110        5.40670        1.19870
C          1.66480        4.03240        1.17030
C          0.55610        0.02740        0.91530
S          1.64410       -1.27980        1.21980
C         -1.10850        3.34390        1.15160
C         -1.48230        3.51160        2.49430
C         -1.93230        4.70600        3.00020
C         -2.05430        5.82940        2.17650
C         -1.72650        5.67640        0.83040
C         -1.79810        6.62640       -0.25710
C         -2.37650        7.85100       -0.17290
C         -2.46180        8.93920       -1.09350
C         -3.14760       10.14480       -0.73380
C         -3.10920       11.08470       -1.70090
S         -2.23880       10.53940       -3.08950
C         -1.92090        9.03670       -2.35590
C         -1.24020        5.91570       -1.42990
O         -1.11880        6.29780       -2.57790
N         -0.90070        4.64680       -1.01280
C         -0.26180        3.71690       -1.92250
C          0.99550        4.29650       -2.56510
C         -1.22640        4.45660        0.32050
C         -2.40170        7.11650        2.74840
C         -3.48010        7.35020        3.53130
C         -4.58080        6.37150        3.76390
O         -4.71570        5.27650        3.26580
C         -5.51340        7.03620        4.69260
C         -6.68260        6.49540        5.22550
C         -7.35900        7.34310        6.06830
C         -6.90860        8.63910        6.35920
C         -5.76480        9.18870        5.83410
C         -5.05860        8.34100        4.97170
C         -3.83060        8.58380        4.22310
C         -3.16150        9.77640        4.15820
C         -3.54070       10.94890        4.84710
N         -3.77980       11.93840        5.37750
C         -2.01360       10.03620        3.37980
N         -1.09060       10.34980        2.77260
C         -8.07030        8.92280        7.27810
C         -7.78490        8.85260        8.79330
C         -9.15510        8.69380        9.41190
C         -9.58270        7.46830        9.13610
C         -8.50860        6.77790        8.32680
C         -7.25960        7.41910        8.94520
C         -8.57270        7.47930        6.95320
H          1.30920       -8.28230       -1.51390
H          4.55670       -5.60290       -6.10080
H          3.33620      -10.52020       -6.08210
H          5.27800       -9.76640       -8.83310
H          3.11360      -10.11420      -10.01460
H          1.30740       -8.79600       -8.65510
H          1.96140       -6.22600       -8.67070
H          4.16200       -5.95140      -10.06610
H          3.12860       -7.92250      -11.50080
H          4.81590       -8.34320      -11.11400
H          5.91450       -7.26230       -8.87390
H         -0.23710       -6.56830       -0.83820
H         -0.68970       -4.30040       -0.05900
H          5.54150       -2.11010       -0.21940
H          5.14700        0.21460        1.01210
H          3.99260        2.47160        0.33930
H          2.53950       -0.94160       -2.22550
H          5.99100       -6.61300       -0.67090
H          4.82670       -7.34550       -1.79190
H          3.43900       -8.11940        0.13890
H          5.09880       -8.68470        0.30920
H          4.53690       -7.30490        1.25850
H         -2.65410       -1.57980       -3.62110
H         -5.02480       -0.91070       -3.49760
H         -7.18460       -1.08450        0.91290
H         -6.48720        0.56150        0.74430
H         -8.19240        0.26080        0.34040
H         -4.87080       -1.18640        0.76830
H         -2.53910       -1.86410        0.64180
H         -2.49470       -4.18100       -2.41650
H         -1.77870       -5.88620       -4.00150
H         -0.21810       -7.85680       -4.00480
H          0.31990       -8.52870       -5.56490
H         -1.19670       -7.60960       -5.48480
H          1.97940       -3.89570       -4.45220
H          1.23330       -2.15760       -2.88910
H          3.80290        2.14490        3.15930
H          4.92800        0.72970        4.79590
H          6.16740       -1.97360        6.92000
H          5.87060       -0.23940        6.67910
H          6.05820       -1.33070        5.26640
H          1.34220       -1.54780        5.29070
H          0.20220       -0.10140        3.65700
H          1.43240        3.43440        4.48680
H          1.51540        5.86960        4.54790
H          0.39470        7.88510        4.44210
H          1.07720        9.45230        3.95600
H          2.15630        8.18700        4.59470
H          1.78640        5.97540        0.28500
H          1.72190        3.50620        0.23070
H         -1.40130        2.65910        3.15240
H         -2.16650        4.78960        4.04990
H         -2.86830        8.06280        0.77110
H         -3.63450       10.28380        0.21550
H         -3.53250       12.06910       -1.69620
H         -1.36970        8.28390       -2.88260
H         -0.97780        3.44670       -2.70650
H          0.00220        2.82130       -1.36590
H          1.70390        4.62030       -1.80690
H          0.74490        5.14550       -3.19310
H          1.46500        3.53060       -3.17630
H         -1.68950        7.91110        2.55480
H         -6.99370        5.49470        4.96980
H         -5.43730       10.18880        6.06310
H         -8.69740        9.76820        7.00200
H         -7.16470        9.65780        9.17730
H         -9.67790        9.48140        9.92170
H        -10.53430        7.02790        9.36930
H         -8.54780        5.69270        8.28650
H         -7.12680        7.13820        9.98860
H         -6.34090        7.22190        8.39560
H         -9.53530        7.36120        6.45940
