
  xtb     02052219573D
 energy: -300.163776298145 gnorm: 0.000345906700 xtb: 6.4.1 (unknown)
167183  0     0  0            999 V2000
    0.5183    7.0605    1.4106 C   0  0  0  0  0  0  0  0  0  0  0  0
    1.3477    7.1226    2.5042 C   0  0  0  0  0  0  0  0  0  0  0  0
    1.9311    5.9774    3.2027 C   0  0  0  0  0  0  0  0  0  0  0  0
    1.9553    4.8137    2.8261 O   0  0  0  0  0  0  0  0  0  0  0  0
    2.4992    6.4928    4.4549 C   0  0  0  0  0  0  0  0  0  0  0  0
    3.0882    5.7531    5.4791 C   0  0  0  0  0  0  0  0  0  0  0  0
    3.5266    6.5157    6.5348 C   0  0  0  0  0  0  0  0  0  0  0  0
    3.3895    7.9100    6.5702 C   0  0  0  0  0  0  0  0  0  0  0  0
    2.8091    8.6509    5.5670 C   0  0  0  0  0  0  0  0  0  0  0  0
    2.3547    7.8956    4.4825 C   0  0  0  0  0  0  0  0  0  0  0  0
    1.7000    8.3188    3.2447 C   0  0  0  0  0  0  0  0  0  0  0  0
    1.5319    9.6153    2.8358 C   0  0  0  0  0  0  0  0  0  0  0  0
    1.0288   10.0160    1.5794 C   0  0  0  0  0  0  0  0  0  0  0  0
    0.6724   10.4307    0.5697 N   0  0  0  0  0  0  0  0  0  0  0  0
    1.9035   10.7447    3.5953 C   0  0  0  0  0  0  0  0  0  0  0  0
    2.1764   11.7061    4.1605 N   0  0  0  0  0  0  0  0  0  0  0  0
    4.0350    8.0192    7.9289 C   0  0  0  0  0  0  0  0  0  0  0  0
    3.0867    8.2397    9.1265 C   0  0  0  0  0  0  0  0  0  0  0  0
    3.9139    7.8280   10.3231 C   0  0  0  0  0  0  0  0  0  0  0  0
    4.0430    6.5078   10.2895 C   0  0  0  0  0  0  0  0  0  0  0  0
    3.3053    6.0046    9.0696 C   0  0  0  0  0  0  0  0  0  0  0  0
    2.1588    7.0228    9.0167 C   0  0  0  0  0  0  0  0  0  0  0  0
    4.1874    6.4645    7.8894 C   0  0  0  0  0  0  0  0  0  0  0  0
    0.1235    5.9471    0.6617 C   0  0  0  0  0  0  0  0  0  0  0  0
    0.7300    4.3142    0.8500 S   0  0  0  0  0  0  0  0  0  0  0  0
   -0.2215    3.7150   -0.4724 C   0  0  0  0  0  0  0  0  0  0  0  0
   -0.9817    4.7293   -1.0279 C   0  0  0  0  0  0  0  0  0  0  0  0
   -2.1453    4.7604   -2.3051 S   0  0  0  0  0  0  0  0  0  0  0  0
   -2.4419    6.4443   -1.9771 C   0  0  0  0  0  0  0  0  0  0  0  0
   -3.4876    7.0873   -2.7773 C   0  0  0  0  0  0  0  0  0  0  0  0
   -3.9044    8.2080   -2.6376 O   0  0  0  0  0  0  0  0  0  0  0  0
   -3.9242    6.2074   -3.6899 O   0  0  0  0  0  0  0  0  0  0  0  0
   -5.0305    6.5614   -4.5167 C   0  0  0  0  0  0  0  0  0  0  0  0
   -6.1104    5.4990   -4.3828 C   0  0  0  0  0  0  0  0  0  0  0  0
   -1.6734    6.9620   -0.9624 C   0  0  0  0  0  0  0  0  0  0  0  0
   -0.8108    5.9833   -0.3938 C   0  0  0  0  0  0  0  0  0  0  0  0
   -1.7890    8.5916   -0.4662 Cl  0  0  0  0  0  0  0  0  0  0  0  0
   -0.1747    2.3366   -0.8000 C   0  0  0  0  0  0  0  0  0  0  0  0
   -0.5712    1.6842   -1.9534 C   0  0  0  0  0  0  0  0  0  0  0  0
   -1.1066    2.2983   -3.1049 N   0  0  0  0  0  0  0  0  0  0  0  0
   -2.3960    1.9305   -3.5028 C   0  0  0  0  0  0  0  0  0  0  0  0
   -2.9198    2.4041   -4.7048 C   0  0  0  0  0  0  0  0  0  0  0  0
   -4.1989    2.0712   -5.1036 C   0  0  0  0  0  0  0  0  0  0  0  0
   -4.9916    1.2615   -4.3028 C   0  0  0  0  0  0  0  0  0  0  0  0
   -6.6318    0.7482   -4.7273 S   0  0  0  0  0  0  0  0  0  0  0  0
   -6.7412    1.1074   -6.5041 C   0  0  0  0  0  0  0  0  0  0  0  0
   -4.5002    0.8394   -3.0726 C   0  0  0  0  0  0  0  0  0  0  0  0
   -3.2258    1.1757   -2.6724 C   0  0  0  0  0  0  0  0  0  0  0  0
   -0.1076    2.5639   -4.0826 C   0  0  0  0  0  0  0  0  0  0  0  0
   -0.0132    1.8044   -5.2477 C   0  0  0  0  0  0  0  0  0  0  0  0
    0.9755    2.0677   -6.1689 C   0  0  0  0  0  0  0  0  0  0  0  0
    1.9037    3.0831   -5.9411 C   0  0  0  0  0  0  0  0  0  0  0  0
    3.1175    3.3299   -7.1968 S   0  0  0  0  0  0  0  0  0  0  0  0
    4.1141    4.7162   -6.5806 C   0  0  0  0  0  0  0  0  0  0  0  0
    1.8317    3.8187   -4.7666 C   0  0  0  0  0  0  0  0  0  0  0  0
    0.8340    3.5560   -3.8456 C   0  0  0  0  0  0  0  0  0  0  0  0
   -0.3241    0.2993   -1.8590 C   0  0  0  0  0  0  0  0  0  0  0  0
   -0.6384   -1.0237   -2.9114 S   0  0  0  0  0  0  0  0  0  0  0  0
   -0.0883   -2.1530   -1.6804 C   0  0  0  0  0  0  0  0  0  0  0  0
    0.3569   -1.5166   -0.5194 C   0  0  0  0  0  0  0  0  0  0  0  0
    0.7869   -2.1181    0.6411 N   0  0  0  0  0  0  0  0  0  0  0  0
    0.4132   -3.4171    1.0233 C   0  0  0  0  0  0  0  0  0  0  0  0
   -0.8799   -3.8980    0.8307 C   0  0  0  0  0  0  0  0  0  0  0  0
   -1.2009   -5.2028    1.1529 C   0  0  0  0  0  0  0  0  0  0  0  0
   -0.2379   -6.0426    1.7009 C   0  0  0  0  0  0  0  0  0  0  0  0
   -0.5265   -7.7252    2.1364 S   0  0  0  0  0  0  0  0  0  0  0  0
   -2.3338   -7.8718    2.1212 C   0  0  0  0  0  0  0  0  0  0  0  0
    1.0471   -5.5526    1.9291 C   0  0  0  0  0  0  0  0  0  0  0  0
    1.3710   -4.2582    1.5925 C   0  0  0  0  0  0  0  0  0  0  0  0
    1.5893   -1.3678    1.5230 C   0  0  0  0  0  0  0  0  0  0  0  0
    1.3214   -1.3699    2.8914 C   0  0  0  0  0  0  0  0  0  0  0  0
    2.0470   -0.5631    3.7386 C   0  0  0  0  0  0  0  0  0  0  0  0
    3.0494    0.2672    3.2396 C   0  0  0  0  0  0  0  0  0  0  0  0
    3.8799    1.3135    4.3901 S   0  0  0  0  0  0  0  0  0  0  0  0
    4.5041    2.6638    3.3466 C   0  0  0  0  0  0  0  0  0  0  0  0
    3.3621    0.2217    1.8879 C   0  0  0  0  0  0  0  0  0  0  0  0
    2.6414   -0.5950    1.0387 C   0  0  0  0  0  0  0  0  0  0  0  0
    0.2130   -0.1116   -0.6470 C   0  0  0  0  0  0  0  0  0  0  0  0
    0.4808    1.2385    0.4002 S   0  0  0  0  0  0  0  0  0  0  0  0
   -0.1310   -3.5509   -1.9470 C   0  0  0  0  0  0  0  0  0  0  0  0
    1.2336   -4.5559   -1.5790 S   0  0  0  0  0  0  0  0  0  0  0  0
    0.3592   -6.0438   -1.8996 C   0  0  0  0  0  0  0  0  0  0  0  0
   -0.8893   -5.7224   -2.4178 C   0  0  0  0  0  0  0  0  0  0  0  0
   -2.1636   -6.6761   -3.0705 S   0  0  0  0  0  0  0  0  0  0  0  0
   -3.1166   -5.2396   -3.3401 C   0  0  0  0  0  0  0  0  0  0  0  0
   -4.4363   -5.4515   -3.9442 C   0  0  0  0  0  0  0  0  0  0  0  0
   -4.8550   -6.5487   -4.2277 O   0  0  0  0  0  0  0  0  0  0  0  0
   -5.0920   -4.3109   -4.1623 O   0  0  0  0  0  0  0  0  0  0  0  0
   -6.3713   -4.3953   -4.7930 C   0  0  0  0  0  0  0  0  0  0  0  0
   -6.6218   -3.1014   -5.5464 C   0  0  0  0  0  0  0  0  0  0  0  0
   -2.4969   -4.0872   -2.9283 C   0  0  0  0  0  0  0  0  0  0  0  0
   -1.1760   -4.3261   -2.4507 C   0  0  0  0  0  0  0  0  0  0  0  0
   -3.2746   -2.5672   -2.9390 Cl  0  0  0  0  0  0  0  0  0  0  0  0
    1.0226   -7.2414   -1.5869 C   0  0  0  0  0  0  0  0  0  0  0  0
    0.4735   -8.4590   -1.2823 C   0  0  0  0  0  0  0  0  0  0  0  0
   -0.9376   -8.6999   -0.9438 C   0  0  0  0  0  0  0  0  0  0  0  0
   -1.8290   -7.8668   -0.8973 O   0  0  0  0  0  0  0  0  0  0  0  0
   -1.0263  -10.1163   -0.5648 C   0  0  0  0  0  0  0  0  0  0  0  0
   -2.1493  -10.8465   -0.1692 C   0  0  0  0  0  0  0  0  0  0  0  0
   -3.3307  -10.2044   -0.1374 O   0  0  0  0  0  0  0  0  0  0  0  0
   -4.4951  -10.9225    0.1950 C   0  0  0  0  0  0  0  0  0  0  0  0
   -1.9529  -12.1920    0.1619 C   0  0  0  0  0  0  0  0  0  0  0  0
   -0.6914  -12.7575    0.1081 C   0  0  0  0  0  0  0  0  0  0  0  0
    0.4263  -12.0303   -0.2786 C   0  0  0  0  0  0  0  0  0  0  0  0
    0.2496  -10.7004   -0.6197 C   0  0  0  0  0  0  0  0  0  0  0  0
    1.2070   -9.6902   -1.0692 C   0  0  0  0  0  0  0  0  0  0  0  0
    2.5407   -9.9046   -1.2946 C   0  0  0  0  0  0  0  0  0  0  0  0
    3.4542   -8.9463   -1.7829 C   0  0  0  0  0  0  0  0  0  0  0  0
    4.2615   -8.2367   -2.1882 N   0  0  0  0  0  0  0  0  0  0  0  0
    3.1990  -11.1349   -1.0835 C   0  0  0  0  0  0  0  0  0  0  0  0
    3.8052  -12.0985   -0.9351 N   0  0  0  0  0  0  0  0  0  0  0  0
    0.0702    7.9868    1.0745 H   0  0  0  0  0  0  0  0  0  0  0  0
    3.1677    4.6791    5.4159 H   0  0  0  0  0  0  0  0  0  0  0  0
    2.7078    9.7222    5.6130 H   0  0  0  0  0  0  0  0  0  0  0  0
    4.9336    8.6309    7.9792 H   0  0  0  0  0  0  0  0  0  0  0  0
    2.6241    9.2220    9.1655 H   0  0  0  0  0  0  0  0  0  0  0  0
    4.3515    8.5216   11.0167 H   0  0  0  0  0  0  0  0  0  0  0  0
    4.6099    5.8780   10.9496 H   0  0  0  0  0  0  0  0  0  0  0  0
    3.0416    4.9506    9.0568 H   0  0  0  0  0  0  0  0  0  0  0  0
    1.5769    6.9891    8.0974 H   0  0  0  0  0  0  0  0  0  0  0  0
    1.4919    6.9359    9.8728 H   0  0  0  0  0  0  0  0  0  0  0  0
    5.1882    6.0376    7.9149 H   0  0  0  0  0  0  0  0  0  0  0  0
   -4.6607    6.6125   -5.5460 H   0  0  0  0  0  0  0  0  0  0  0  0
   -5.3961    7.5483   -4.2143 H   0  0  0  0  0  0  0  0  0  0  0  0
   -6.9177    5.7066   -5.0793 H   0  0  0  0  0  0  0  0  0  0  0  0
   -5.6902    4.5186   -4.5952 H   0  0  0  0  0  0  0  0  0  0  0  0
   -6.5098    5.4894   -3.3718 H   0  0  0  0  0  0  0  0  0  0  0  0
   -2.3210    3.0455   -5.3325 H   0  0  0  0  0  0  0  0  0  0  0  0
   -4.5637    2.4521   -6.0446 H   0  0  0  0  0  0  0  0  0  0  0  0
   -6.7919    2.1796   -6.6708 H   0  0  0  0  0  0  0  0  0  0  0  0
   -5.8909    0.6681   -7.0170 H   0  0  0  0  0  0  0  0  0  0  0  0
   -7.6607    0.6406   -6.8428 H   0  0  0  0  0  0  0  0  0  0  0  0
   -5.1283    0.2392   -2.4322 H   0  0  0  0  0  0  0  0  0  0  0  0
   -2.8772    0.8462   -1.7061 H   0  0  0  0  0  0  0  0  0  0  0  0
   -0.7175    1.0048   -5.4232 H   0  0  0  0  0  0  0  0  0  0  0  0
    1.0489    1.4836   -7.0734 H   0  0  0  0  0  0  0  0  0  0  0  0
    4.6015    4.4404   -5.6501 H   0  0  0  0  0  0  0  0  0  0  0  0
    4.8612    4.9001   -7.3465 H   0  0  0  0  0  0  0  0  0  0  0  0
    3.4900    5.5963   -6.4562 H   0  0  0  0  0  0  0  0  0  0  0  0
    2.5417    4.6009   -4.5527 H   0  0  0  0  0  0  0  0  0  0  0  0
    0.7891    4.1306   -2.9342 H   0  0  0  0  0  0  0  0  0  0  0  0
   -1.6378   -3.2502    0.4153 H   0  0  0  0  0  0  0  0  0  0  0  0
   -2.1992   -5.5596    0.9610 H   0  0  0  0  0  0  0  0  0  0  0  0
   -2.7648   -7.0855    2.7336 H   0  0  0  0  0  0  0  0  0  0  0  0
   -2.6950   -7.8351    1.0963 H   0  0  0  0  0  0  0  0  0  0  0  0
   -2.5500   -8.8428    2.5561 H   0  0  0  0  0  0  0  0  0  0  0  0
    1.7889   -6.2060    2.3613 H   0  0  0  0  0  0  0  0  0  0  0  0
    2.3723   -3.8890    1.7535 H   0  0  0  0  0  0  0  0  0  0  0  0
    0.5258   -1.9893    3.2775 H   0  0  0  0  0  0  0  0  0  0  0  0
    1.8288   -0.5461    4.7951 H   0  0  0  0  0  0  0  0  0  0  0  0
    5.2771    2.3021    2.6756 H   0  0  0  0  0  0  0  0  0  0  0  0
    4.9349    3.3885    4.0311 H   0  0  0  0  0  0  0  0  0  0  0  0
    3.6747    3.1096    2.8044 H   0  0  0  0  0  0  0  0  0  0  0  0
    4.1621    0.8195    1.4828 H   0  0  0  0  0  0  0  0  0  0  0  0
    2.8908   -0.6308   -0.0117 H   0  0  0  0  0  0  0  0  0  0  0  0
   -6.3781   -5.2632   -5.4613 H   0  0  0  0  0  0  0  0  0  0  0  0
   -7.1279   -4.5493   -4.0154 H   0  0  0  0  0  0  0  0  0  0  0  0
   -5.8684   -2.9645   -6.3181 H   0  0  0  0  0  0  0  0  0  0  0  0
   -7.6033   -3.1354   -6.0103 H   0  0  0  0  0  0  0  0  0  0  0  0
   -6.5802   -2.2548   -4.8659 H   0  0  0  0  0  0  0  0  0  0  0  0
    2.0991   -7.1446   -1.5205 H   0  0  0  0  0  0  0  0  0  0  0  0
   -4.6717  -11.7468   -0.5023 H   0  0  0  0  0  0  0  0  0  0  0  0
   -4.4500  -11.3114    1.2176 H   0  0  0  0  0  0  0  0  0  0  0  0
   -5.3109  -10.2060    0.1173 H   0  0  0  0  0  0  0  0  0  0  0  0
   -2.7860  -12.8052    0.4673 H   0  0  0  0  0  0  0  0  0  0  0  0
   -0.5748  -13.7968    0.3764 H   0  0  0  0  0  0  0  0  0  0  0  0
    1.3936  -12.5020   -0.3048 H   0  0  0  0  0  0  0  0  0  0  0  0
  1  2  2  0  0  0  0
  2  3  1  0  0  0  0
  3  4  2  0  0  0  0
  3  5  1  0  0  0  0
  5  6  2  0  0  0  0
  6  7  1  0  0  0  0
  7  8  2  0  0  0  0
  8  9  1  0  0  0  0
  9 10  2  0  0  0  0
 10 11  1  0  0  0  0
 11 12  2  0  0  0  0
 12 13  1  0  0  0  0
 13 14  3  0  0  0  0
 12 15  1  0  0  0  0
 15 16  3  0  0  0  0
  8 17  1  0  0  0  0
 17 18  1  0  0  0  0
 18 19  1  0  0  0  0
 19 20  2  0  0  0  0
 20 21  1  0  0  0  0
 21 22  1  0  0  0  0
 21 23  1  0  0  0  0
  1 24  1  0  0  0  0
 24 25  1  0  0  0  0
 25 26  1  0  0  0  0
 26 27  2  0  0  0  0
 27 28  1  0  0  0  0
 28 29  1  0  0  0  0
 29 30  1  0  0  0  0
 30 31  2  0  0  0  0
 30 32  1  0  0  0  0
 32 33  1  0  0  0  0
 33 34  1  0  0  0  0
 29 35  2  0  0  0  0
 35 36  1  0  0  0  0
 35 37  1  0  0  0  0
 26 38  1  0  0  0  0
 38 39  2  0  0  0  0
 39 40  1  0  0  0  0
 40 41  1  0  0  0  0
 41 42  2  0  0  0  0
 42 43  1  0  0  0  0
 43 44  2  0  0  0  0
 44 45  1  0  0  0  0
 45 46  1  0  0  0  0
 44 47  1  0  0  0  0
 47 48  2  0  0  0  0
 40 49  1  0  0  0  0
 49 50  2  0  0  0  0
 50 51  1  0  0  0  0
 51 52  2  0  0  0  0
 52 53  1  0  0  0  0
 53 54  1  0  0  0  0
 52 55  1  0  0  0  0
 55 56  2  0  0  0  0
 39 57  1  0  0  0  0
 57 58  1  0  0  0  0
 58 59  1  0  0  0  0
 59 60  2  0  0  0  0
 60 61  1  0  0  0  0
 61 62  1  0  0  0  0
 62 63  2  0  0  0  0
 63 64  1  0  0  0  0
 64 65  2  0  0  0  0
 65 66  1  0  0  0  0
 66 67  1  0  0  0  0
 65 68  1  0  0  0  0
 68 69  2  0  0  0  0
 61 70  1  0  0  0  0
 70 71  2  0  0  0  0
 71 72  1  0  0  0  0
 72 73  2  0  0  0  0
 73 74  1  0  0  0  0
 74 75  1  0  0  0  0
 73 76  1  0  0  0  0
 76 77  2  0  0  0  0
 60 78  1  0  0  0  0
 78 79  1  0  0  0  0
 59 80  1  0  0  0  0
 80 81  1  0  0  0  0
 81 82  1  0  0  0  0
 82 83  2  0  0  0  0
 83 84  1  0  0  0  0
 84 85  1  0  0  0  0
 85 86  1  0  0  0  0
 86 87  2  0  0  0  0
 86 88  1  0  0  0  0
 88 89  1  0  0  0  0
 89 90  1  0  0  0  0
 85 91  2  0  0  0  0
 91 92  1  0  0  0  0
 91 93  1  0  0  0  0
 82 94  1  0  0  0  0
 94 95  2  0  0  0  0
 95 96  1  0  0  0  0
 96 97  2  0  0  0  0
 96 98  1  0  0  0  0
 98 99  2  0  0  0  0
 99100  1  0  0  0  0
100101  1  0  0  0  0
 99102  1  0  0  0  0
102103  2  0  0  0  0
103104  1  0  0  0  0
104105  2  0  0  0  0
105106  1  0  0  0  0
106107  2  0  0  0  0
107108  1  0  0  0  0
108109  3  0  0  0  0
107110  1  0  0  0  0
110111  3  0  0  0  0
 11  2  1  0  0  0  0
 23 17  1  0  0  0  0
 36 24  2  0  0  0  0
 79 38  1  0  0  0  0
 92 80  2  0  0  0  0
106 95  1  0  0  0  0
 10  5  1  0  0  0  0
 22 18  1  0  0  0  0
 36 27  1  0  0  0  0
 48 41  1  0  0  0  0
 56 49  1  0  0  0  0
 78 57  2  0  0  0  0
 92 83  1  0  0  0  0
105 98  1  0  0  0  0
 23  7  1  0  0  0  0
 69 62  1  0  0  0  0
 77 70  1  0  0  0  0
  1112  1  0  0  0  0
  6113  1  0  0  0  0
  9114  1  0  0  0  0
 17115  1  0  0  0  0
 18116  1  0  0  0  0
 19117  1  0  0  0  0
 20118  1  0  0  0  0
 21119  1  0  0  0  0
 22120  1  0  0  0  0
 22121  1  0  0  0  0
 23122  1  0  0  0  0
 33123  1  0  0  0  0
 33124  1  0  0  0  0
 34125  1  0  0  0  0
 34126  1  0  0  0  0
 34127  1  0  0  0  0
 42128  1  0  0  0  0
 43129  1  0  0  0  0
 46130  1  0  0  0  0
 46131  1  0  0  0  0
 46132  1  0  0  0  0
 47133  1  0  0  0  0
 48134  1  0  0  0  0
 50135  1  0  0  0  0
 51136  1  0  0  0  0
 54137  1  0  0  0  0
 54138  1  0  0  0  0
 54139  1  0  0  0  0
 55140  1  0  0  0  0
 56141  1  0  0  0  0
 63142  1  0  0  0  0
 64143  1  0  0  0  0
 67144  1  0  0  0  0
 67145  1  0  0  0  0
 67146  1  0  0  0  0
 68147  1  0  0  0  0
 69148  1  0  0  0  0
 71149  1  0  0  0  0
 72150  1  0  0  0  0
 75151  1  0  0  0  0
 75152  1  0  0  0  0
 75153  1  0  0  0  0
 76154  1  0  0  0  0
 77155  1  0  0  0  0
 89156  1  0  0  0  0
 89157  1  0  0  0  0
 90158  1  0  0  0  0
 90159  1  0  0  0  0
 90160  1  0  0  0  0
 94161  1  0  0  0  0
101162  1  0  0  0  0
101163  1  0  0  0  0
101164  1  0  0  0  0
102165  1  0  0  0  0
103166  1  0  0  0  0
104167  1  0  0  0  0
M  END
