201

C         -5.96860        2.24330        4.67440
C         -5.10550        2.67890        5.62090
C         -3.63520        2.53330        5.47340
O         -3.04290        2.03180        4.53930
C         -3.05510        3.06770        6.71180
C         -1.69900        3.17250        7.01300
C         -1.44200        3.73580        8.23830
C         -2.45990        4.15980        9.10530
C         -3.80090        4.05620        8.82380
C         -4.08780        3.48660        7.57730
C         -5.37400        3.25240        6.92960
C         -6.60570        3.57120        7.43330
C         -7.81380        3.43390        6.71780
N         -8.82040        3.39480        6.16620
C         -6.83330        4.11580        8.71470
N         -7.08850        4.55370        9.74460
C         -1.48030        4.63330       10.15080
C         -1.28460        3.72140       11.38030
C          0.03460        4.17670       11.96150
C          0.99730        3.77540       11.14120
C          0.34460        3.04200        9.99180
C         -0.84410        2.40640       10.72430
C         -0.34690        4.16110        9.18400
C         -5.45000        1.84560        3.36140
C         -4.95750        2.79080        2.45300
S         -5.08980        4.52850        2.70720
C         -6.78880        4.76450        3.37210
C         -7.34500        6.07150        2.83930
C         -4.20080        2.35830        1.36170
S         -3.43970        3.56600        0.29800
C         -4.91950        4.16090       -0.60520
C         -5.39180        3.17380       -1.65210
C         -3.97060        0.99970        1.14660
C         -4.65220        0.05130        1.91990
C         -5.35390        0.48640        3.05250
C         -5.91080       -0.43400        4.05480
O         -6.34920       -0.01290        5.11610
C         -5.89570       -1.83630        3.66960
C         -5.31670       -2.27120        2.44010
C         -4.64390       -1.36760        1.50600
O         -4.16980       -1.74780        0.45070
C         -5.44290       -3.62040        2.26650
S         -6.25320       -4.36820        3.57610
C         -6.43180       -2.87390        4.38350
C         -2.90920        0.57120        0.24050
C         -1.69290        0.12160        0.70230
N         -1.38250       -0.04470        2.06430
C         -0.72610        0.97800        2.74470
C         -0.74950        2.29070        2.27260
C         -0.11570        3.29630        2.96720
C          0.57470        3.01960        4.14250
S          1.29300        4.40010        4.99130
C          2.33510        3.62860        6.26530
C          0.64410        1.70890        4.59410
C          0.00820        0.70150        3.89730
C         -1.83260       -1.19680        2.71730
C         -1.75820       -2.43700        2.08940
C         -2.17010       -3.58410        2.74120
C         -2.66000       -3.50910        4.03670
S         -3.18240       -4.90690        4.98800
C         -2.86140       -6.32310        3.89980
C         -2.77030       -2.26570        4.65740
C         -2.36860       -1.12290        4.00550
C         -0.79440       -0.08960       -0.36720
S          0.82450       -0.67480       -0.48830
C          0.79110       -0.45760       -2.23690
C         -0.44830       -0.02000       -2.68950
N         -0.81240        0.09530       -4.01420
C         -1.64830        1.15150       -4.38110
C         -2.63130        0.99090       -5.35880
C         -3.47250        2.03460       -5.67140
C         -3.36020        3.26010       -5.01550
S         -4.52130        4.50820       -5.48050
C         -4.08110        5.92610       -4.43560
C         -2.37320        3.43050       -4.05430
C         -1.52420        2.38610       -3.74670
C         -0.35970       -0.84420       -4.95170
C         -0.23010       -2.18640       -4.59220
C          0.20360       -3.11490       -5.50990
C          0.51900       -2.73010       -6.81100
S          1.00420       -4.00460       -7.92610
C          1.89780       -3.09670       -9.21930
C          0.39150       -1.39620       -7.17400
C         -0.04210       -0.46390       -6.25170
C         -1.33770        0.19390       -1.61040
S         -2.97730        0.71950       -1.48550
C          1.98460       -0.57420       -3.01640
C          2.98750       -1.53220       -2.80690
C          2.92060       -2.63430       -1.91240
C          4.03520       -3.40790       -1.92950
C          4.26600       -4.69060       -1.26350
O          3.50170       -5.21490       -0.49160
O          5.44020       -5.20040       -1.65610
C          5.76090       -6.52780       -1.24420
C          5.24240       -7.53850       -2.25750
S          5.24100       -2.82520       -3.03880
C          4.20760       -1.52560       -3.54850
C          4.53340       -0.56280       -4.51070
C          3.51590        0.40240       -4.71050
C          2.27090        0.37770       -4.01620
N          1.56170        1.43640       -4.43780
N          2.32870        2.00960       -5.31660
C          1.92300        3.21170       -5.98600
C          2.15170        4.42330       -5.08810
N          3.49320        1.46180       -5.52990
C          5.76270       -0.38910       -5.20800
C          6.76030       -1.25820       -5.53420
C          8.11870       -0.72590       -5.84070
O          8.41590        0.42600       -6.06290
C          9.02070       -1.89300       -5.76040
C         10.41220       -1.89330       -5.82800
C         10.97950       -3.13760       -5.68770
C         10.22270       -4.30050       -5.49220
C          8.84920       -4.31760       -5.43030
C          8.25410       -3.06200       -5.57220
C          6.84250       -2.69400       -5.57360
C          5.77800       -3.54260       -5.77180
C          5.86060       -4.94620       -5.76610
N          5.87380       -6.09390       -5.72120
C          4.49780       -3.04300       -6.07380
N          3.46920       -2.62670       -6.36910
C         11.44590       -5.18130       -5.42470
C         11.76620       -6.01580       -6.68280
C         13.22290       -6.38220       -6.51230
C         13.94020       -5.28160       -6.69900
C         12.98030       -4.15280       -6.99890
C         11.89190       -4.92560       -7.75500
C         12.28990       -3.88500       -5.64490
H         -7.03910        2.26520        4.82230
H         -0.95880        2.83950        6.30350
H         -4.57050        4.38930        9.50030
H         -1.53810        5.68890       10.40840
H         -2.13190        3.68420       12.05930
H          0.12490        4.77190       12.85100
H          2.05190        3.96840       11.20820
H          0.98300        2.38120        9.41040
H         -1.58970        1.96800       10.06340
H         -0.52760        1.66640       11.45760
H          0.34920        4.90300        8.79660
H         -6.73880        4.78340        4.45970
H         -7.39210        3.92100        3.04300
H         -8.34150        6.23130        3.24470
H         -7.40670        6.05100        1.75360
H         -6.70990        6.90400        3.13350
H         -4.59330        5.09830       -1.05410
H         -5.69170        4.37510        0.13130
H         -5.68660        2.23310       -1.19090
H         -4.60280        2.96580       -2.37110
H         -6.25000        3.58220       -2.18290
H         -5.09840       -4.19410        1.42890
H         -6.92330       -2.82120        5.33480
H         -1.28000        2.53390        1.36510
H         -0.16300        4.31300        2.60820
H          3.03350        2.93880        5.80100
H          1.71710        3.12770        7.00500
H          2.87780        4.44430        6.73280
H          1.19280        1.45190        5.48720
H          0.07980       -0.31380        4.25730
H         -1.37310       -2.50750        1.08400
H         -2.08700       -4.52840        2.22850
H         -3.47490       -6.25450        3.00590
H         -3.14420       -7.20070        4.47300
H         -1.80490       -6.36760        3.65270
H         -3.18010       -2.21040        5.65510
H         -2.47020       -0.15740        4.47690
H         -2.73830        0.04020       -5.85860
H         -4.24010        1.91050       -6.41980
H         -4.17670        5.65840       -3.38790
H         -4.79550        6.70470       -4.68450
H         -3.07470        6.26260       -4.66710
H         -2.24960        4.36830       -3.53710
H         -0.74770        2.52770       -3.01110
H         -0.48220       -2.49900       -3.58990
H          0.29770       -4.15330       -5.23210
H          1.20340       -2.55330       -9.85390
H          2.41800       -3.84810       -9.80500
H          2.61200       -2.43260       -8.74240
H          0.62690       -1.06990       -8.17420
H         -0.14240        0.57180       -6.54180
H          2.06910       -2.86870       -1.30080
H          6.85110       -6.55420       -1.18220
H          5.32410       -6.70820       -0.25630
H          5.60800       -7.29410       -3.25260
H          4.15500       -7.52550       -2.27280
H          5.57900       -8.53480       -1.98630
H          0.86110        3.11840       -6.22610
H          2.51420        3.28780       -6.89980
H          1.83260        5.32670       -5.59970
H          3.20620        4.51560       -4.83970
H          1.58010        4.31790       -4.16940
H          5.96000        0.64350       -5.48360
H         10.96140       -0.97630       -5.97410
H          8.27220       -5.21340       -5.26810
H         11.57930       -5.73840       -4.49910
H         11.07500       -6.83160       -6.87610
H         13.56670       -7.35930       -6.22740
H         15.00270       -5.15580       -6.60100
H         13.39640       -3.27200       -7.48070
H         10.97790       -4.35810       -7.91950
H         12.25140       -5.32070       -8.70380
H         12.98570       -3.57860       -4.86580
