
  xtb     02042206533D
 energy: -376.287164963881 gnorm: 0.000712992042 xtb: 6.4.1 (unknown)
225247  0     0  0            999 V2000
   -3.3740   -7.5944    7.6113 C   0  0  0  0  0  0  0  0  0  0  0  0
   -4.6011   -7.3611    8.1593 C   0  0  0  0  0  0  0  0  0  0  0  0
   -5.4483   -6.1506    8.0220 C   0  0  0  0  0  0  0  0  0  0  0  0
   -5.1374   -5.0443    7.6292 O   0  0  0  0  0  0  0  0  0  0  0  0
   -6.8036   -6.5649    8.4252 C   0  0  0  0  0  0  0  0  0  0  0  0
   -7.9586   -5.7875    8.3674 C   0  0  0  0  0  0  0  0  0  0  0  0
   -9.0920   -6.4389    8.7888 C   0  0  0  0  0  0  0  0  0  0  0  0
   -9.0795   -7.7672    9.2376 C   0  0  0  0  0  0  0  0  0  0  0  0
   -7.9464   -8.5420    9.3075 C   0  0  0  0  0  0  0  0  0  0  0  0
   -6.7811   -7.8978    8.8809 C   0  0  0  0  0  0  0  0  0  0  0  0
   -5.4087   -8.3857    8.8061 C   0  0  0  0  0  0  0  0  0  0  0  0
   -4.9490   -9.5617    9.3350 C   0  0  0  0  0  0  0  0  0  0  0  0
   -3.5960   -9.9646    9.3669 C   0  0  0  0  0  0  0  0  0  0  0  0
   -2.5198  -10.3532    9.4604 N   0  0  0  0  0  0  0  0  0  0  0  0
   -5.7642  -10.5166    9.9788 C   0  0  0  0  0  0  0  0  0  0  0  0
   -6.3667  -11.3366   10.5101 N   0  0  0  0  0  0  0  0  0  0  0  0
  -10.5675   -7.7815    9.4822 C   0  0  0  0  0  0  0  0  0  0  0  0
  -11.4620   -8.5023    8.4433 C   0  0  0  0  0  0  0  0  0  0  0  0
  -10.7203   -8.4535    7.1306 C   0  0  0  0  0  0  0  0  0  0  0  0
  -10.7307   -7.1969    6.7061 C   0  0  0  0  0  0  0  0  0  0  0  0
  -11.4804   -6.3732    7.7240 C   0  0  0  0  0  0  0  0  0  0  0  0
  -12.5129   -7.4070    8.2010 C   0  0  0  0  0  0  0  0  0  0  0  0
  -10.5809   -6.3022    8.9833 C   0  0  0  0  0  0  0  0  0  0  0  0
   -2.4871   -6.7035    6.9601 C   0  0  0  0  0  0  0  0  0  0  0  0
   -2.3918   -5.3355    6.9895 C   0  0  0  0  0  0  0  0  0  0  0  0
   -1.3662   -4.8224    6.1692 C   0  0  0  0  0  0  0  0  0  0  0  0
   -1.0801   -3.4682    5.9070 C   0  0  0  0  0  0  0  0  0  0  0  0
   -1.7290   -2.3875    6.6591 C   0  0  0  0  0  0  0  0  0  0  0  0
   -1.8097   -2.4313    8.0504 C   0  0  0  0  0  0  0  0  0  0  0  0
   -2.4065   -1.3954    8.7457 C   0  0  0  0  0  0  0  0  0  0  0  0
   -2.9046   -0.2908    8.0763 C   0  0  0  0  0  0  0  0  0  0  0  0
   -2.8091   -0.2351    6.6936 C   0  0  0  0  0  0  0  0  0  0  0  0
   -3.4309    1.1855    5.8195 S   0  0  0  0  0  0  0  0  0  0  0  0
   -1.9547    1.6477    4.8403 C   0  0  0  0  0  0  0  0  0  0  0  0
   -0.8154    2.1073    5.7265 C   0  0  0  0  0  0  0  0  0  0  0  0
   -2.2494   -1.2864    5.9898 C   0  0  0  0  0  0  0  0  0  0  0  0
   -0.1715   -3.2224    4.8924 C   0  0  0  0  0  0  0  0  0  0  0  0
    0.5322   -4.2445    4.2025 C   0  0  0  0  0  0  0  0  0  0  0  0
    0.3056   -5.5912    4.5234 C   0  0  0  0  0  0  0  0  0  0  0  0
    1.0112   -6.6912    3.8502 C   0  0  0  0  0  0  0  0  0  0  0  0
    1.6435   -7.6802    4.6026 C   0  0  0  0  0  0  0  0  0  0  0  0
    2.2966   -8.7179    3.9667 C   0  0  0  0  0  0  0  0  0  0  0  0
    2.3335   -8.7965    2.5848 C   0  0  0  0  0  0  0  0  0  0  0  0
    1.6944   -7.8225    1.8300 C   0  0  0  0  0  0  0  0  0  0  0  0
    1.6661   -7.7878    0.0640 S   0  0  0  0  0  0  0  0  0  0  0  0
    2.3199   -9.4272   -0.4253 C   0  0  0  0  0  0  0  0  0  0  0  0
    2.1522   -9.5989   -1.9231 C   0  0  0  0  0  0  0  0  0  0  0  0
    1.0364   -6.7756    2.4665 C   0  0  0  0  0  0  0  0  0  0  0  0
   -0.6585   -5.8468    5.4873 C   0  0  0  0  0  0  0  0  0  0  0  0
   -1.2396   -7.4196    5.9404 S   0  0  0  0  0  0  0  0  0  0  0  0
    1.3562   -3.7181    3.1722 C   0  0  0  0  0  0  0  0  0  0  0  0
    1.2338   -2.3733    3.0159 C   0  0  0  0  0  0  0  0  0  0  0  0
    0.2354   -1.6490    4.2615 S   0  0  0  0  0  0  0  0  0  0  0  0
    1.6617   -1.5483    1.9224 C   0  0  0  0  0  0  0  0  0  0  0  0
    0.8396   -0.7017    1.1981 C   0  0  0  0  0  0  0  0  0  0  0  0
   -0.5325   -0.5507    1.3406 N   0  0  0  0  0  0  0  0  0  0  0  0
   -1.0697    0.7237    1.1023 C   0  0  0  0  0  0  0  0  0  0  0  0
   -2.2423    0.8828    0.3703 C   0  0  0  0  0  0  0  0  0  0  0  0
   -2.7366    2.1436    0.0995 C   0  0  0  0  0  0  0  0  0  0  0  0
   -2.0632    3.2686    0.5564 C   0  0  0  0  0  0  0  0  0  0  0  0
   -2.5738    4.9258    0.2313 S   0  0  0  0  0  0  0  0  0  0  0  0
   -4.2752    4.7444   -0.3794 C   0  0  0  0  0  0  0  0  0  0  0  0
   -0.8975    3.1141    1.3029 C   0  0  0  0  0  0  0  0  0  0  0  0
   -0.4084    1.8571    1.5778 C   0  0  0  0  0  0  0  0  0  0  0  0
   -1.3598   -1.6336    1.6610 C   0  0  0  0  0  0  0  0  0  0  0  0
   -1.0236   -2.9354    1.2823 C   0  0  0  0  0  0  0  0  0  0  0  0
   -1.7526   -4.0053    1.7500 C   0  0  0  0  0  0  0  0  0  0  0  0
   -2.8399   -3.8093    2.5985 C   0  0  0  0  0  0  0  0  0  0  0  0
   -3.5956   -5.2566    3.2680 S   0  0  0  0  0  0  0  0  0  0  0  0
   -4.8121   -4.6045    4.4425 C   0  0  0  0  0  0  0  0  0  0  0  0
   -3.2534   -2.5137    2.8744 C   0  0  0  0  0  0  0  0  0  0  0  0
   -2.5205   -1.4393    2.4073 C   0  0  0  0  0  0  0  0  0  0  0  0
    1.5825   -0.0208    0.2044 C   0  0  0  0  0  0  0  0  0  0  0  0
    1.1682    1.1488   -0.9863 S   0  0  0  0  0  0  0  0  0  0  0  0
    2.8360    1.1944   -1.5684 C   0  0  0  0  0  0  0  0  0  0  0  0
    3.6464    0.2869   -0.8923 C   0  0  0  0  0  0  0  0  0  0  0  0
    4.9905    0.0339   -1.1039 N   0  0  0  0  0  0  0  0  0  0  0  0
    5.7940   -0.1868    0.0279 C   0  0  0  0  0  0  0  0  0  0  0  0
    6.7261   -1.2193    0.0543 C   0  0  0  0  0  0  0  0  0  0  0  0
    7.5053   -1.4358    1.1736 C   0  0  0  0  0  0  0  0  0  0  0  0
    7.3583   -0.6259    2.2922 C   0  0  0  0  0  0  0  0  0  0  0  0
    8.2875   -0.8074    3.7800 S   0  0  0  0  0  0  0  0  0  0  0  0
    9.4203   -2.1816    3.4287 C   0  0  0  0  0  0  0  0  0  0  0  0
    6.4227    0.4073    2.2703 C   0  0  0  0  0  0  0  0  0  0  0  0
    5.6523    0.6281    1.1517 C   0  0  0  0  0  0  0  0  0  0  0  0
    5.5182   -0.1492   -2.3839 C   0  0  0  0  0  0  0  0  0  0  0  0
    6.8450    0.1984   -2.6502 C   0  0  0  0  0  0  0  0  0  0  0  0
    7.3542    0.0664   -3.9205 C   0  0  0  0  0  0  0  0  0  0  0  0
    6.5561   -0.4127   -4.9569 C   0  0  0  0  0  0  0  0  0  0  0  0
    7.2886   -0.5135   -6.5602 S   0  0  0  0  0  0  0  0  0  0  0  0
    5.8544   -0.3433   -7.6606 C   0  0  0  0  0  0  0  0  0  0  0  0
    5.2513   -0.8011   -4.6896 C   0  0  0  0  0  0  0  0  0  0  0  0
    4.7373   -0.6708   -3.4137 C   0  0  0  0  0  0  0  0  0  0  0  0
    2.9174   -0.3712    0.1366 C   0  0  0  0  0  0  0  0  0  0  0  0
    3.3099   -1.5771    1.3193 S   0  0  0  0  0  0  0  0  0  0  0  0
    3.0669    2.1756   -2.5744 C   0  0  0  0  0  0  0  0  0  0  0  0
    2.1611    3.1611   -2.8802 C   0  0  0  0  0  0  0  0  0  0  0  0
    2.5496    3.9983   -3.9431 C   0  0  0  0  0  0  0  0  0  0  0  0
    1.8270    5.0575   -4.5202 C   0  0  0  0  0  0  0  0  0  0  0  0
    0.4946    5.4454   -4.0379 C   0  0  0  0  0  0  0  0  0  0  0  0
   -0.5186    4.5023   -3.8730 C   0  0  0  0  0  0  0  0  0  0  0  0
   -1.7648    4.9046   -3.4334 C   0  0  0  0  0  0  0  0  0  0  0  0
   -2.0331    6.2354   -3.1645 C   0  0  0  0  0  0  0  0  0  0  0  0
   -1.0296    7.1809   -3.3273 C   0  0  0  0  0  0  0  0  0  0  0  0
   -1.2294    8.9198   -3.0985 S   0  0  0  0  0  0  0  0  0  0  0  0
   -2.7707    9.0971   -2.1337 C   0  0  0  0  0  0  0  0  0  0  0  0
   -2.6113    8.6179   -0.7041 C   0  0  0  0  0  0  0  0  0  0  0  0
    0.2310    6.7777   -3.7543 C   0  0  0  0  0  0  0  0  0  0  0  0
    2.4412    5.7188   -5.5674 C   0  0  0  0  0  0  0  0  0  0  0  0
    3.7146    5.3592   -6.0855 C   0  0  0  0  0  0  0  0  0  0  0  0
    4.4240    4.2803   -5.5207 C   0  0  0  0  0  0  0  0  0  0  0  0
    5.6875    3.7938   -6.0889 C   0  0  0  0  0  0  0  0  0  0  0  0
    6.7967    3.5560   -5.2843 C   0  0  0  0  0  0  0  0  0  0  0  0
    7.9556    3.0441   -5.8416 C   0  0  0  0  0  0  0  0  0  0  0  0
    8.0219    2.7656   -7.1918 C   0  0  0  0  0  0  0  0  0  0  0  0
    6.9154    3.0031   -8.0033 C   0  0  0  0  0  0  0  0  0  0  0  0
    7.0714    2.5895   -9.7152 S   0  0  0  0  0  0  0  0  0  0  0  0
    5.7363    3.5620  -10.5137 C   0  0  0  0  0  0  0  0  0  0  0  0
    5.9859    3.6136  -12.0087 C   0  0  0  0  0  0  0  0  0  0  0  0
    5.7501    3.5093   -7.4510 C   0  0  0  0  0  0  0  0  0  0  0  0
    3.8312    3.6513   -4.4415 C   0  0  0  0  0  0  0  0  0  0  0  0
    4.5011    2.2931   -3.5729 S   0  0  0  0  0  0  0  0  0  0  0  0
    4.1066    6.2022   -7.1447 C   0  0  0  0  0  0  0  0  0  0  0  0
    3.1929    7.1837   -7.4441 C   0  0  0  0  0  0  0  0  0  0  0  0
    1.7493    7.0493   -6.4507 S   0  0  0  0  0  0  0  0  0  0  0  0
    3.3092    8.1518   -8.4695 C   0  0  0  0  0  0  0  0  0  0  0  0
    2.5980    9.3017   -8.6306 C   0  0  0  0  0  0  0  0  0  0  0  0
    2.5039    9.9269   -9.9742 C   0  0  0  0  0  0  0  0  0  0  0  0
    3.1861    9.6775  -10.9399 O   0  0  0  0  0  0  0  0  0  0  0  0
    1.3560   10.8599   -9.8783 C   0  0  0  0  0  0  0  0  0  0  0  0
    0.8883   10.8955   -8.5500 C   0  0  0  0  0  0  0  0  0  0  0  0
   -0.2107   11.6682   -8.2149 C   0  0  0  0  0  0  0  0  0  0  0  0
   -0.8276   12.4073   -9.2133 C   0  0  0  0  0  0  0  0  0  0  0  0
   -0.3561   12.3851  -10.5172 C   0  0  0  0  0  0  0  0  0  0  0  0
   -1.2347   13.4250  -11.8281 Br  0  0  0  0  0  0  0  0  0  0  0  0
    0.7492   11.6058  -10.8766 C   0  0  0  0  0  0  0  0  0  0  0  0
    1.3284   11.5732  -12.4872 Cl  0  0  0  0  0  0  0  0  0  0  0  0
    1.7534   10.0528   -7.7277 C   0  0  0  0  0  0  0  0  0  0  0  0
    1.9219   10.1811   -6.3746 C   0  0  0  0  0  0  0  0  0  0  0  0
    2.9876    9.5815   -5.6687 C   0  0  0  0  0  0  0  0  0  0  0  0
    3.8793    9.1717   -5.0734 N   0  0  0  0  0  0  0  0  0  0  0  0
    1.1353   11.0235   -5.5622 C   0  0  0  0  0  0  0  0  0  0  0  0
    0.5222   11.6989   -4.8661 N   0  0  0  0  0  0  0  0  0  0  0  0
   -3.0274   -8.6219    7.6120 H   0  0  0  0  0  0  0  0  0  0  0  0
   -7.9223   -4.7683    8.0153 H   0  0  0  0  0  0  0  0  0  0  0  0
   -7.9531   -9.5629    9.6512 H   0  0  0  0  0  0  0  0  0  0  0  0
  -10.8799   -7.9779   10.5058 H   0  0  0  0  0  0  0  0  0  0  0  0
  -11.8195   -9.4794    8.7566 H   0  0  0  0  0  0  0  0  0  0  0  0
  -10.2306   -9.3009    6.6875 H   0  0  0  0  0  0  0  0  0  0  0  0
  -10.2510   -6.7847    5.8376 H   0  0  0  0  0  0  0  0  0  0  0  0
  -11.8550   -5.4121    7.3819 H   0  0  0  0  0  0  0  0  0  0  0  0
  -13.0428   -7.1065    9.1037 H   0  0  0  0  0  0  0  0  0  0  0  0
  -13.2292   -7.6750    7.4259 H   0  0  0  0  0  0  0  0  0  0  0  0
  -10.9035   -5.5315    9.6806 H   0  0  0  0  0  0  0  0  0  0  0  0
   -3.0576   -4.7159    7.5596 H   0  0  0  0  0  0  0  0  0  0  0  0
   -1.3842   -3.2676    8.5847 H   0  0  0  0  0  0  0  0  0  0  0  0
   -2.4701   -1.4404    9.8227 H   0  0  0  0  0  0  0  0  0  0  0  0
   -3.3583    0.5271    8.6140 H   0  0  0  0  0  0  0  0  0  0  0  0
   -2.3003    2.4498    4.1884 H   0  0  0  0  0  0  0  0  0  0  0  0
   -1.6564    0.7957    4.2317 H   0  0  0  0  0  0  0  0  0  0  0  0
   -1.1302    2.9391    6.3526 H   0  0  0  0  0  0  0  0  0  0  0  0
    0.0216    2.4295    5.1107 H   0  0  0  0  0  0  0  0  0  0  0  0
   -0.4810    1.2936    6.3678 H   0  0  0  0  0  0  0  0  0  0  0  0
   -2.2380   -1.2659    4.9129 H   0  0  0  0  0  0  0  0  0  0  0  0
    1.6363   -7.6234    5.6803 H   0  0  0  0  0  0  0  0  0  0  0  0
    2.7909   -9.4790    4.5517 H   0  0  0  0  0  0  0  0  0  0  0  0
    2.8586   -9.6126    2.1154 H   0  0  0  0  0  0  0  0  0  0  0  0
    1.7536  -10.1817    0.1210 H   0  0  0  0  0  0  0  0  0  0  0  0
    3.3731   -9.4696   -0.1452 H   0  0  0  0  0  0  0  0  0  0  0  0
    1.1021   -9.5326   -2.1978 H   0  0  0  0  0  0  0  0  0  0  0  0
    2.6976   -8.8249   -2.4582 H   0  0  0  0  0  0  0  0  0  0  0  0
    2.5338  -10.5708   -2.2285 H   0  0  0  0  0  0  0  0  0  0  0  0
    0.5230   -6.0406    1.8663 H   0  0  0  0  0  0  0  0  0  0  0  0
    1.9610   -4.3242    2.5226 H   0  0  0  0  0  0  0  0  0  0  0  0
   -2.7605    0.0116   -0.0021 H   0  0  0  0  0  0  0  0  0  0  0  0
   -3.6390    2.2338   -0.4835 H   0  0  0  0  0  0  0  0  0  0  0  0
   -4.6791    5.7509   -0.4275 H   0  0  0  0  0  0  0  0  0  0  0  0
   -4.2765    4.2994   -1.3701 H   0  0  0  0  0  0  0  0  0  0  0  0
   -4.8527    4.1491    0.3212 H   0  0  0  0  0  0  0  0  0  0  0  0
   -0.3839    3.9921    1.6635 H   0  0  0  0  0  0  0  0  0  0  0  0
    0.4910    1.7414    2.1645 H   0  0  0  0  0  0  0  0  0  0  0  0
   -0.1783   -3.1035    0.6322 H   0  0  0  0  0  0  0  0  0  0  0  0
   -1.4836   -5.0132    1.4744 H   0  0  0  0  0  0  0  0  0  0  0  0
   -5.2346   -5.4720    4.9392 H   0  0  0  0  0  0  0  0  0  0  0  0
   -5.5943   -4.0688    3.9125 H   0  0  0  0  0  0  0  0  0  0  0  0
   -4.3242   -3.9728    5.1782 H   0  0  0  0  0  0  0  0  0  0  0  0
   -4.1288   -2.3235    3.4741 H   0  0  0  0  0  0  0  0  0  0  0  0
   -2.8406   -0.4358    2.6475 H   0  0  0  0  0  0  0  0  0  0  0  0
    6.8365   -1.8607   -0.8074 H   0  0  0  0  0  0  0  0  0  0  0  0
    8.2150   -2.2469    1.1615 H   0  0  0  0  0  0  0  0  0  0  0  0
   10.0233   -2.2973    4.3240 H   0  0  0  0  0  0  0  0  0  0  0  0
    8.8566   -3.0916    3.2447 H   0  0  0  0  0  0  0  0  0  0  0  0
   10.0574   -1.9315    2.5855 H   0  0  0  0  0  0  0  0  0  0  0  0
    6.3158    1.0366    3.1404 H   0  0  0  0  0  0  0  0  0  0  0  0
    4.9373    1.4376    1.1373 H   0  0  0  0  0  0  0  0  0  0  0  0
    7.4595    0.5982   -1.8580 H   0  0  0  0  0  0  0  0  0  0  0  0
    8.3733    0.3482   -4.1331 H   0  0  0  0  0  0  0  0  0  0  0  0
    5.2191    0.4551   -7.2890 H   0  0  0  0  0  0  0  0  0  0  0  0
    6.2579   -0.0775   -8.6328 H   0  0  0  0  0  0  0  0  0  0  0  0
    5.3117   -1.2816   -7.7296 H   0  0  0  0  0  0  0  0  0  0  0  0
    4.6254   -1.2076   -5.4681 H   0  0  0  0  0  0  0  0  0  0  0  0
    3.7194   -0.9715   -3.2131 H   0  0  0  0  0  0  0  0  0  0  0  0
    1.2388    3.2888   -2.3424 H   0  0  0  0  0  0  0  0  0  0  0  0
   -0.3357    3.4660   -4.1136 H   0  0  0  0  0  0  0  0  0  0  0  0
   -2.5471    4.1692   -3.3120 H   0  0  0  0  0  0  0  0  0  0  0  0
   -3.0208    6.5213   -2.8408 H   0  0  0  0  0  0  0  0  0  0  0  0
   -2.9681   10.1687   -2.1660 H   0  0  0  0  0  0  0  0  0  0  0  0
   -3.5721    8.5812   -2.6616 H   0  0  0  0  0  0  0  0  0  0  0  0
   -2.3514    7.5620   -0.6694 H   0  0  0  0  0  0  0  0  0  0  0  0
   -3.5400    8.7678   -0.1562 H   0  0  0  0  0  0  0  0  0  0  0  0
   -1.8224    9.1781   -0.2088 H   0  0  0  0  0  0  0  0  0  0  0  0
    1.0108    7.5194   -3.8434 H   0  0  0  0  0  0  0  0  0  0  0  0
    6.7560    3.7898   -4.2318 H   0  0  0  0  0  0  0  0  0  0  0  0
    8.8174    2.8655   -5.2172 H   0  0  0  0  0  0  0  0  0  0  0  0
    8.9189    2.3585   -7.6309 H   0  0  0  0  0  0  0  0  0  0  0  0
    4.7817    3.0810  -10.2964 H   0  0  0  0  0  0  0  0  0  0  0  0
    5.7588    4.5612  -10.0789 H   0  0  0  0  0  0  0  0  0  0  0  0
    5.2058    4.1971  -12.4931 H   0  0  0  0  0  0  0  0  0  0  0  0
    6.9484    4.0744  -12.2171 H   0  0  0  0  0  0  0  0  0  0  0  0
    5.9859    2.6109  -12.4299 H   0  0  0  0  0  0  0  0  0  0  0  0
    4.8671    3.6575   -8.0537 H   0  0  0  0  0  0  0  0  0  0  0  0
    5.0609    6.1321   -7.6363 H   0  0  0  0  0  0  0  0  0  0  0  0
    3.9899    7.9068   -9.2791 H   0  0  0  0  0  0  0  0  0  0  0  0
   -0.5964   11.6947   -7.2091 H   0  0  0  0  0  0  0  0  0  0  0  0
   -1.6885   13.0143   -8.9788 H   0  0  0  0  0  0  0  0  0  0  0  0
  1  2  2  0  0  0  0
  2  3  1  0  0  0  0
  3  4  2  0  0  0  0
  3  5  1  0  0  0  0
  5  6  2  0  0  0  0
  6  7  1  0  0  0  0
  7  8  2  0  0  0  0
  8  9  1  0  0  0  0
  9 10  2  0  0  0  0
 10 11  1  0  0  0  0
 11 12  2  0  0  0  0
 12 13  1  0  0  0  0
 13 14  3  0  0  0  0
 12 15  1  0  0  0  0
 15 16  3  0  0  0  0
  8 17  1  0  0  0  0
 17 18  1  0  0  0  0
 18 19  1  0  0  0  0
 19 20  2  0  0  0  0
 20 21  1  0  0  0  0
 21 22  1  0  0  0  0
 21 23  1  0  0  0  0
  1 24  1  0  0  0  0
 24 25  2  0  0  0  0
 25 26  1  0  0  0  0
 26 27  2  0  0  0  0
 27 28  1  0  0  0  0
 28 29  2  0  0  0  0
 29 30  1  0  0  0  0
 30 31  2  0  0  0  0
 31 32  1  0  0  0  0
 32 33  1  0  0  0  0
 33 34  1  0  0  0  0
 34 35  1  0  0  0  0
 32 36  2  0  0  0  0
 27 37  1  0  0  0  0
 37 38  2  0  0  0  0
 38 39  1  0  0  0  0
 39 40  1  0  0  0  0
 40 41  2  0  0  0  0
 41 42  1  0  0  0  0
 42 43  2  0  0  0  0
 43 44  1  0  0  0  0
 44 45  1  0  0  0  0
 45 46  1  0  0  0  0
 46 47  1  0  0  0  0
 44 48  2  0  0  0  0
 39 49  2  0  0  0  0
 49 50  1  0  0  0  0
 38 51  1  0  0  0  0
 51 52  2  0  0  0  0
 52 53  1  0  0  0  0
 52 54  1  0  0  0  0
 54 55  2  0  0  0  0
 55 56  1  0  0  0  0
 56 57  1  0  0  0  0
 57 58  2  0  0  0  0
 58 59  1  0  0  0  0
 59 60  2  0  0  0  0
 60 61  1  0  0  0  0
 61 62  1  0  0  0  0
 60 63  1  0  0  0  0
 63 64  2  0  0  0  0
 56 65  1  0  0  0  0
 65 66  2  0  0  0  0
 66 67  1  0  0  0  0
 67 68  2  0  0  0  0
 68 69  1  0  0  0  0
 69 70  1  0  0  0  0
 68 71  1  0  0  0  0
 71 72  2  0  0  0  0
 55 73  1  0  0  0  0
 73 74  1  0  0  0  0
 74 75  1  0  0  0  0
 75 76  2  0  0  0  0
 76 77  1  0  0  0  0
 77 78  1  0  0  0  0
 78 79  2  0  0  0  0
 79 80  1  0  0  0  0
 80 81  2  0  0  0  0
 81 82  1  0  0  0  0
 82 83  1  0  0  0  0
 81 84  1  0  0  0  0
 84 85  2  0  0  0  0
 77 86  1  0  0  0  0
 86 87  2  0  0  0  0
 87 88  1  0  0  0  0
 88 89  2  0  0  0  0
 89 90  1  0  0  0  0
 90 91  1  0  0  0  0
 89 92  1  0  0  0  0
 92 93  2  0  0  0  0
 76 94  1  0  0  0  0
 94 95  1  0  0  0  0
 75 96  1  0  0  0  0
 96 97  2  0  0  0  0
 97 98  1  0  0  0  0
 98 99  2  0  0  0  0
 99100  1  0  0  0  0
100101  2  0  0  0  0
101102  1  0  0  0  0
102103  2  0  0  0  0
103104  1  0  0  0  0
104105  1  0  0  0  0
105106  1  0  0  0  0
106107  1  0  0  0  0
104108  2  0  0  0  0
 99109  1  0  0  0  0
109110  2  0  0  0  0
110111  1  0  0  0  0
111112  1  0  0  0  0
112113  2  0  0  0  0
113114  1  0  0  0  0
114115  2  0  0  0  0
115116  1  0  0  0  0
116117  1  0  0  0  0
117118  1  0  0  0  0
118119  1  0  0  0  0
116120  2  0  0  0  0
111121  2  0  0  0  0
121122  1  0  0  0  0
110123  1  0  0  0  0
123124  2  0  0  0  0
124125  1  0  0  0  0
124126  1  0  0  0  0
126127  2  0  0  0  0
127128  1  0  0  0  0
128129  2  0  0  0  0
128130  1  0  0  0  0
130131  2  0  0  0  0
131132  1  0  0  0  0
132133  2  0  0  0  0
133134  1  0  0  0  0
134135  1  0  0  0  0
134136  2  0  0  0  0
136137  1  0  0  0  0
131138  1  0  0  0  0
138139  2  0  0  0  0
139140  1  0  0  0  0
140141  3  0  0  0  0
139142  1  0  0  0  0
142143  3  0  0  0  0
 11  2  1  0  0  0  0
 23 17  1  0  0  0  0
 50 24  1  0  0  0  0
 95 54  1  0  0  0  0
122 96  1  0  0  0  0
138127  1  0  0  0  0
 10  5  1  0  0  0  0
 22 18  1  0  0  0  0
 49 26  1  0  0  0  0
 64 57  1  0  0  0  0
 72 65  1  0  0  0  0
 94 73  2  0  0  0  0
121 98  1  0  0  0  0
136130  1  0  0  0  0
 23  7  1  0  0  0  0
 36 28  1  0  0  0  0
 53 37  1  0  0  0  0
 85 78  1  0  0  0  0
 93 86  1  0  0  0  0
108100  1  0  0  0  0
125109  1  0  0  0  0
 48 40  1  0  0  0  0
120112  1  0  0  0  0
  1144  1  0  0  0  0
  6145  1  0  0  0  0
  9146  1  0  0  0  0
 17147  1  0  0  0  0
 18148  1  0  0  0  0
 19149  1  0  0  0  0
 20150  1  0  0  0  0
 21151  1  0  0  0  0
 22152  1  0  0  0  0
 22153  1  0  0  0  0
 23154  1  0  0  0  0
 25155  1  0  0  0  0
 29156  1  0  0  0  0
 30157  1  0  0  0  0
 31158  1  0  0  0  0
 34159  1  0  0  0  0
 34160  1  0  0  0  0
 35161  1  0  0  0  0
 35162  1  0  0  0  0
 35163  1  0  0  0  0
 36164  1  0  0  0  0
 41165  1  0  0  0  0
 42166  1  0  0  0  0
 43167  1  0  0  0  0
 46168  1  0  0  0  0
 46169  1  0  0  0  0
 47170  1  0  0  0  0
 47171  1  0  0  0  0
 47172  1  0  0  0  0
 48173  1  0  0  0  0
 51174  1  0  0  0  0
 58175  1  0  0  0  0
 59176  1  0  0  0  0
 62177  1  0  0  0  0
 62178  1  0  0  0  0
 62179  1  0  0  0  0
 63180  1  0  0  0  0
 64181  1  0  0  0  0
 66182  1  0  0  0  0
 67183  1  0  0  0  0
 70184  1  0  0  0  0
 70185  1  0  0  0  0
 70186  1  0  0  0  0
 71187  1  0  0  0  0
 72188  1  0  0  0  0
 79189  1  0  0  0  0
 80190  1  0  0  0  0
 83191  1  0  0  0  0
 83192  1  0  0  0  0
 83193  1  0  0  0  0
 84194  1  0  0  0  0
 85195  1  0  0  0  0
 87196  1  0  0  0  0
 88197  1  0  0  0  0
 91198  1  0  0  0  0
 91199  1  0  0  0  0
 91200  1  0  0  0  0
 92201  1  0  0  0  0
 93202  1  0  0  0  0
 97203  1  0  0  0  0
101204  1  0  0  0  0
102205  1  0  0  0  0
103206  1  0  0  0  0
106207  1  0  0  0  0
106208  1  0  0  0  0
107209  1  0  0  0  0
107210  1  0  0  0  0
107211  1  0  0  0  0
108212  1  0  0  0  0
113213  1  0  0  0  0
114214  1  0  0  0  0
115215  1  0  0  0  0
118216  1  0  0  0  0
118217  1  0  0  0  0
119218  1  0  0  0  0
119219  1  0  0  0  0
119220  1  0  0  0  0
120221  1  0  0  0  0
123222  1  0  0  0  0
126223  1  0  0  0  0
132224  1  0  0  0  0
133225  1  0  0  0  0
M  END
