
  xtb     02092201243D
 energy: -417.754310798703 gnorm: 0.000437151410 xtb: 6.4.1 (unknown)
250276  0     0  0            999 V2000
   10.8364    0.5301   -5.7128 C   0  0  0  0  0  0  0  0  0  0  0  0
   11.1825    1.5747   -6.5166 C   0  0  0  0  0  0  0  0  0  0  0  0
   10.3398    2.7465   -6.8636 C   0  0  0  0  0  0  0  0  0  0  0  0
    9.1486    2.8995   -6.6850 O   0  0  0  0  0  0  0  0  0  0  0  0
   11.2649    3.7516   -7.4154 C   0  0  0  0  0  0  0  0  0  0  0  0
   10.9397    5.0448   -7.8201 C   0  0  0  0  0  0  0  0  0  0  0  0
   12.0088    5.7712   -8.2850 C   0  0  0  0  0  0  0  0  0  0  0  0
   13.3096    5.2513   -8.3431 C   0  0  0  0  0  0  0  0  0  0  0  0
   13.6437    3.9770   -7.9519 C   0  0  0  0  0  0  0  0  0  0  0  0
   12.5691    3.2203   -7.4752 C   0  0  0  0  0  0  0  0  0  0  0  0
   12.5333    1.8497   -6.9788 C   0  0  0  0  0  0  0  0  0  0  0  0
   13.5669    0.9524   -7.0244 C   0  0  0  0  0  0  0  0  0  0  0  0
   14.8595    1.2484   -7.5058 C   0  0  0  0  0  0  0  0  0  0  0  0
   15.9323    1.4213   -7.8763 N   0  0  0  0  0  0  0  0  0  0  0  0
   13.4789   -0.4042   -6.6436 C   0  0  0  0  0  0  0  0  0  0  0  0
   13.4833   -1.5219   -6.3798 N   0  0  0  0  0  0  0  0  0  0  0  0
   13.8827    6.5327   -8.8932 C   0  0  0  0  0  0  0  0  0  0  0  0
   14.6617    7.4506   -7.9186 C   0  0  0  0  0  0  0  0  0  0  0  0
   14.1153    7.1749   -6.5397 C   0  0  0  0  0  0  0  0  0  0  0  0
   12.8846    7.6663   -6.4860 C   0  0  0  0  0  0  0  0  0  0  0  0
   12.5764    8.2836   -7.8279 C   0  0  0  0  0  0  0  0  0  0  0  0
   13.9733    8.7916   -8.2192 C   0  0  0  0  0  0  0  0  0  0  0  0
   12.4340    7.1113   -8.8304 C   0  0  0  0  0  0  0  0  0  0  0  0
    9.5459    0.1535   -5.2669 C   0  0  0  0  0  0  0  0  0  0  0  0
    8.3098    0.3583   -5.8213 C   0  0  0  0  0  0  0  0  0  0  0  0
    7.2504   -0.1745   -5.0594 C   0  0  0  0  0  0  0  0  0  0  0  0
    5.8652   -0.0850   -5.3197 C   0  0  0  0  0  0  0  0  0  0  0  0
    5.2999    0.4239   -6.5523 C   0  0  0  0  0  0  0  0  0  0  0  0
    4.1969   -0.0784   -7.1875 C   0  0  0  0  0  0  0  0  0  0  0  0
    3.8281    0.6132   -8.3617 C   0  0  0  0  0  0  0  0  0  0  0  0
    2.6474    0.2417   -9.2003 C   0  0  0  0  0  0  0  0  0  0  0  0
    1.3386    0.5641   -8.4789 C   0  0  0  0  0  0  0  0  0  0  0  0
    4.6682    1.6639   -8.5947 C   0  0  0  0  0  0  0  0  0  0  0  0
    4.5939    2.7725   -9.8963 Cl  0  0  0  0  0  0  0  0  0  0  0  0
    5.9254    1.8066   -7.4100 S   0  0  0  0  0  0  0  0  0  0  0  0
    5.0285   -0.5099   -4.2951 C   0  0  0  0  0  0  0  0  0  0  0  0
    5.4853   -1.1040   -3.0920 C   0  0  0  0  0  0  0  0  0  0  0  0
    6.8600   -1.3695   -2.9176 C   0  0  0  0  0  0  0  0  0  0  0  0
    7.4024   -2.1397   -1.8181 C   0  0  0  0  0  0  0  0  0  0  0  0
    8.5027   -2.9531   -1.8672 C   0  0  0  0  0  0  0  0  0  0  0  0
    8.8314   -3.5877   -0.6491 C   0  0  0  0  0  0  0  0  0  0  0  0
    9.9655   -4.5481   -0.4863 C   0  0  0  0  0  0  0  0  0  0  0  0
    9.5338   -5.9646   -0.8693 C   0  0  0  0  0  0  0  0  0  0  0  0
    7.9514   -3.2446    0.3351 C   0  0  0  0  0  0  0  0  0  0  0  0
    6.7222   -2.1529   -0.2125 S   0  0  0  0  0  0  0  0  0  0  0  0
    7.9642   -3.7754    1.9615 Cl  0  0  0  0  0  0  0  0  0  0  0  0
    7.7076   -0.8400   -3.8911 C   0  0  0  0  0  0  0  0  0  0  0  0
    9.4410   -0.8080   -3.8007 S   0  0  0  0  0  0  0  0  0  0  0  0
    4.4233   -1.2983   -2.1774 C   0  0  0  0  0  0  0  0  0  0  0  0
    3.2206   -0.8340   -2.6209 C   0  0  0  0  0  0  0  0  0  0  0  0
    3.3046   -0.2550   -4.2677 S   0  0  0  0  0  0  0  0  0  0  0  0
    2.0138   -0.7028   -1.8663 C   0  0  0  0  0  0  0  0  0  0  0  0
    1.8903   -0.2518   -0.5597 C   0  0  0  0  0  0  0  0  0  0  0  0
    2.9157    0.2947    0.1923 N   0  0  0  0  0  0  0  0  0  0  0  0
    3.9781    0.9671   -0.4386 C   0  0  0  0  0  0  0  0  0  0  0  0
    3.7609    1.7815   -1.5458 C   0  0  0  0  0  0  0  0  0  0  0  0
    4.8232    2.3064   -2.2556 C   0  0  0  0  0  0  0  0  0  0  0  0
    6.1270    2.0288   -1.8650 C   0  0  0  0  0  0  0  0  0  0  0  0
    7.5615    2.5171   -2.7687 S   0  0  0  0  0  0  0  0  0  0  0  0
    6.8981    3.2708   -4.2764 C   0  0  0  0  0  0  0  0  0  0  0  0
    6.3441    1.3002   -0.6970 C   0  0  0  0  0  0  0  0  0  0  0  0
    5.2847    0.7790    0.0106 C   0  0  0  0  0  0  0  0  0  0  0  0
    2.8698    0.2199    1.5884 C   0  0  0  0  0  0  0  0  0  0  0  0
    3.2810    1.2993    2.3715 C   0  0  0  0  0  0  0  0  0  0  0  0
    3.1392    1.2538    3.7397 C   0  0  0  0  0  0  0  0  0  0  0  0
    2.5699    0.1410    4.3552 C   0  0  0  0  0  0  0  0  0  0  0  0
    2.3031    0.2276    6.1012 S   0  0  0  0  0  0  0  0  0  0  0  0
    0.9870   -0.9997    6.3618 C   0  0  0  0  0  0  0  0  0  0  0  0
    2.2361   -0.9668    3.5905 C   0  0  0  0  0  0  0  0  0  0  0  0
    2.3950   -0.9267    2.2194 C   0  0  0  0  0  0  0  0  0  0  0  0
    0.5381   -0.3451   -0.1374 C   0  0  0  0  0  0  0  0  0  0  0  0
   -0.2683   -0.0426    1.3538 S   0  0  0  0  0  0  0  0  0  0  0  0
   -1.7987   -0.6044    0.6715 C   0  0  0  0  0  0  0  0  0  0  0  0
   -1.7001   -0.8891   -0.6821 C   0  0  0  0  0  0  0  0  0  0  0  0
   -2.7489   -1.1820   -1.5235 N   0  0  0  0  0  0  0  0  0  0  0  0
   -4.0823   -0.8573   -1.2176 C   0  0  0  0  0  0  0  0  0  0  0  0
   -5.0879   -1.6897   -1.7008 C   0  0  0  0  0  0  0  0  0  0  0  0
   -6.4187   -1.4101   -1.4616 C   0  0  0  0  0  0  0  0  0  0  0  0
   -6.7673   -0.2950   -0.7096 C   0  0  0  0  0  0  0  0  0  0  0  0
   -8.4235    0.1294   -0.2719 S   0  0  0  0  0  0  0  0  0  0  0  0
   -9.4291   -1.1629   -1.0537 C   0  0  0  0  0  0  0  0  0  0  0  0
   -5.7650    0.5562   -0.2472 C   0  0  0  0  0  0  0  0  0  0  0  0
   -4.4391    0.2900   -0.5100 C   0  0  0  0  0  0  0  0  0  0  0  0
   -2.5027   -1.4961   -2.8835 C   0  0  0  0  0  0  0  0  0  0  0  0
   -2.9932   -0.6515   -3.8746 C   0  0  0  0  0  0  0  0  0  0  0  0
   -2.7514   -0.9121   -5.2086 C   0  0  0  0  0  0  0  0  0  0  0  0
   -2.0148   -2.0321   -5.5739 C   0  0  0  0  0  0  0  0  0  0  0  0
   -1.5994   -2.4437   -7.2376 S   0  0  0  0  0  0  0  0  0  0  0  0
   -2.3663   -1.1253   -8.2230 C   0  0  0  0  0  0  0  0  0  0  0  0
   -1.5539   -2.8990   -4.5865 C   0  0  0  0  0  0  0  0  0  0  0  0
   -1.7933   -2.6351   -3.2543 C   0  0  0  0  0  0  0  0  0  0  0  0
   -0.3477   -0.7784   -1.1129 C   0  0  0  0  0  0  0  0  0  0  0  0
    0.4710   -1.0824   -2.6065 S   0  0  0  0  0  0  0  0  0  0  0  0
   -2.8639   -0.7410    1.6225 C   0  0  0  0  0  0  0  0  0  0  0  0
   -3.6512   -1.8374    1.9371 C   0  0  0  0  0  0  0  0  0  0  0  0
   -3.6579   -3.0588    1.2803 N   0  0  0  0  0  0  0  0  0  0  0  0
   -4.8252   -3.8389    1.3673 C   0  0  0  0  0  0  0  0  0  0  0  0
   -4.7588   -5.1942    1.6792 C   0  0  0  0  0  0  0  0  0  0  0  0
   -5.9134   -5.9277    1.8575 C   0  0  0  0  0  0  0  0  0  0  0  0
   -7.1544   -5.3169    1.7365 C   0  0  0  0  0  0  0  0  0  0  0  0
   -8.6668   -6.1873    2.0183 S   0  0  0  0  0  0  0  0  0  0  0  0
   -8.1857   -7.3126    3.3638 C   0  0  0  0  0  0  0  0  0  0  0  0
   -7.2273   -3.9762    1.3832 C   0  0  0  0  0  0  0  0  0  0  0  0
   -6.0747   -3.2429    1.2027 C   0  0  0  0  0  0  0  0  0  0  0  0
   -2.4825   -3.6137    0.7694 C   0  0  0  0  0  0  0  0  0  0  0  0
   -2.5360   -4.4681   -0.3324 C   0  0  0  0  0  0  0  0  0  0  0  0
   -1.3772   -4.9771   -0.8775 C   0  0  0  0  0  0  0  0  0  0  0  0
   -0.1338   -4.6278   -0.3530 C   0  0  0  0  0  0  0  0  0  0  0  0
    1.2958   -5.2452   -1.1892 S   0  0  0  0  0  0  0  0  0  0  0  0
    2.6310   -4.1806   -0.5726 C   0  0  0  0  0  0  0  0  0  0  0  0
   -0.0798   -3.8321    0.7819 C   0  0  0  0  0  0  0  0  0  0  0  0
   -1.2419   -3.3418    1.3433 C   0  0  0  0  0  0  0  0  0  0  0  0
   -4.4303   -1.5929    3.0971 C   0  0  0  0  0  0  0  0  0  0  0  0
   -5.5713   -2.5479    3.9715 S   0  0  0  0  0  0  0  0  0  0  0  0
   -5.7501   -1.2642    5.1672 C   0  0  0  0  0  0  0  0  0  0  0  0
   -4.9944   -0.1135    4.8278 C   0  0  0  0  0  0  0  0  0  0  0  0
   -5.0262    1.0819    5.4977 N   0  0  0  0  0  0  0  0  0  0  0  0
   -3.8968    1.9177    5.4824 C   0  0  0  0  0  0  0  0  0  0  0  0
   -2.6201    1.3864    5.6438 C   0  0  0  0  0  0  0  0  0  0  0  0
   -1.5077    2.2048    5.6170 C   0  0  0  0  0  0  0  0  0  0  0  0
   -1.6597    3.5733    5.4357 C   0  0  0  0  0  0  0  0  0  0  0  0
   -0.3190    4.7140    5.3839 S   0  0  0  0  0  0  0  0  0  0  0  0
    1.1364    3.6497    5.1876 C   0  0  0  0  0  0  0  0  0  0  0  0
   -2.9393    4.1112    5.3013 C   0  0  0  0  0  0  0  0  0  0  0  0
   -4.0461    3.2950    5.3211 C   0  0  0  0  0  0  0  0  0  0  0  0
   -6.1936    1.5395    6.1385 C   0  0  0  0  0  0  0  0  0  0  0  0
   -6.1071    2.1865    7.3671 C   0  0  0  0  0  0  0  0  0  0  0  0
   -7.2530    2.5549    8.0454 C   0  0  0  0  0  0  0  0  0  0  0  0
   -8.5006    2.2639    7.5117 C   0  0  0  0  0  0  0  0  0  0  0  0
  -10.0189    2.5831    8.3509 S   0  0  0  0  0  0  0  0  0  0  0  0
   -9.5067    2.7613   10.0830 C   0  0  0  0  0  0  0  0  0  0  0  0
   -8.5875    1.6861    6.2445 C   0  0  0  0  0  0  0  0  0  0  0  0
   -7.4476    1.3385    5.5577 C   0  0  0  0  0  0  0  0  0  0  0  0
   -4.2320   -0.3435    3.6678 C   0  0  0  0  0  0  0  0  0  0  0  0
   -3.0693    0.5792    2.7753 S   0  0  0  0  0  0  0  0  0  0  0  0
   -6.5035   -1.3914    6.3339 C   0  0  0  0  0  0  0  0  0  0  0  0
   -7.4286   -2.3424    6.6998 C   0  0  0  0  0  0  0  0  0  0  0  0
   -7.8925   -3.4757    5.8953 C   0  0  0  0  0  0  0  0  0  0  0  0
   -7.3869   -3.9366    4.8846 O   0  0  0  0  0  0  0  0  0  0  0  0
   -9.1003   -3.9894    6.5673 C   0  0  0  0  0  0  0  0  0  0  0  0
   -9.9262   -5.0250    6.1375 C   0  0  0  0  0  0  0  0  0  0  0  0
  -10.9732   -5.2935    6.9870 C   0  0  0  0  0  0  0  0  0  0  0  0
  -11.1830   -4.5855    8.1769 C   0  0  0  0  0  0  0  0  0  0  0  0
  -10.3782   -3.5574    8.6097 C   0  0  0  0  0  0  0  0  0  0  0  0
   -9.3103   -3.2650    7.7575 C   0  0  0  0  0  0  0  0  0  0  0  0
   -8.2508   -2.2655    7.8836 C   0  0  0  0  0  0  0  0  0  0  0  0
   -8.0795   -1.4214    8.9547 C   0  0  0  0  0  0  0  0  0  0  0  0
   -6.9691   -0.5827    9.1620 C   0  0  0  0  0  0  0  0  0  0  0  0
   -6.0898    0.1046    9.4415 N   0  0  0  0  0  0  0  0  0  0  0  0
   -8.9787   -1.2901   10.0303 C   0  0  0  0  0  0  0  0  0  0  0  0
   -9.6667   -1.0903   10.9289 N   0  0  0  0  0  0  0  0  0  0  0  0
  -12.4147   -5.3827    8.5287 C   0  0  0  0  0  0  0  0  0  0  0  0
  -13.7749   -4.6961    8.2839 C   0  0  0  0  0  0  0  0  0  0  0  0
  -14.7584   -5.8436    8.2528 C   0  0  0  0  0  0  0  0  0  0  0  0
  -14.5605   -6.5142    7.1251 C   0  0  0  0  0  0  0  0  0  0  0  0
  -13.4396   -5.8313    6.3749 C   0  0  0  0  0  0  0  0  0  0  0  0
  -13.6959   -4.3756    6.7857 C   0  0  0  0  0  0  0  0  0  0  0  0
  -12.1811   -6.1722    7.2007 C   0  0  0  0  0  0  0  0  0  0  0  0
   11.6380   -0.0765   -5.3074 H   0  0  0  0  0  0  0  0  0  0  0  0
    9.9245    5.4048   -7.7590 H   0  0  0  0  0  0  0  0  0  0  0  0
   14.6491    3.5929   -7.9984 H   0  0  0  0  0  0  0  0  0  0  0  0
   14.3621    6.4605   -9.8673 H   0  0  0  0  0  0  0  0  0  0  0  0
   15.7422    7.4068   -8.0244 H   0  0  0  0  0  0  0  0  0  0  0  0
   14.6421    6.6181   -5.7871 H   0  0  0  0  0  0  0  0  0  0  0  0
   12.1777    7.6015   -5.6797 H   0  0  0  0  0  0  0  0  0  0  0  0
   11.7588    8.9993   -7.8509 H   0  0  0  0  0  0  0  0  0  0  0  0
   14.3233    9.5978   -7.5764 H   0  0  0  0  0  0  0  0  0  0  0  0
   14.0488    9.0938   -9.2628 H   0  0  0  0  0  0  0  0  0  0  0  0
   11.9665    7.4178   -9.7641 H   0  0  0  0  0  0  0  0  0  0  0  0
    8.1728    0.8785   -6.7489 H   0  0  0  0  0  0  0  0  0  0  0  0
    3.6739   -0.9549   -6.8504 H   0  0  0  0  0  0  0  0  0  0  0  0
    2.6866   -0.8292   -9.4119 H   0  0  0  0  0  0  0  0  0  0  0  0
    2.6891    0.7817  -10.1470 H   0  0  0  0  0  0  0  0  0  0  0  0
    1.2765    0.0215   -7.5385 H   0  0  0  0  0  0  0  0  0  0  0  0
    1.2759    1.6292   -8.2676 H   0  0  0  0  0  0  0  0  0  0  0  0
    0.4936    0.2817   -9.1019 H   0  0  0  0  0  0  0  0  0  0  0  0
    9.0614   -3.1349   -2.7670 H   0  0  0  0  0  0  0  0  0  0  0  0
   10.3041   -4.5394    0.5509 H   0  0  0  0  0  0  0  0  0  0  0  0
   10.7925   -4.2326   -1.1243 H   0  0  0  0  0  0  0  0  0  0  0  0
   10.3682   -6.6531   -0.7637 H   0  0  0  0  0  0  0  0  0  0  0  0
    8.7236   -6.2997   -0.2259 H   0  0  0  0  0  0  0  0  0  0  0  0
    9.1889   -5.9912   -1.9004 H   0  0  0  0  0  0  0  0  0  0  0  0
    4.5405   -1.7355   -1.2047 H   0  0  0  0  0  0  0  0  0  0  0  0
    2.7516    1.9867   -1.8716 H   0  0  0  0  0  0  0  0  0  0  0  0
    4.6184    2.9213   -3.1171 H   0  0  0  0  0  0  0  0  0  0  0  0
    6.4837    4.2496   -4.0525 H   0  0  0  0  0  0  0  0  0  0  0  0
    6.1512    2.6146   -4.7107 H   0  0  0  0  0  0  0  0  0  0  0  0
    7.7351    3.3627   -4.9625 H   0  0  0  0  0  0  0  0  0  0  0  0
    7.3571    1.1226   -0.3709 H   0  0  0  0  0  0  0  0  0  0  0  0
    5.4623    0.1945    0.9003 H   0  0  0  0  0  0  0  0  0  0  0  0
    3.6882    2.1789    1.8965 H   0  0  0  0  0  0  0  0  0  0  0  0
    3.4462    2.0904    4.3477 H   0  0  0  0  0  0  0  0  0  0  0  0
    0.2282   -0.8798    5.5939 H   0  0  0  0  0  0  0  0  0  0  0  0
    1.3985   -2.0050    6.3535 H   0  0  0  0  0  0  0  0  0  0  0  0
    0.5681   -0.7854    7.3402 H   0  0  0  0  0  0  0  0  0  0  0  0
    1.8532   -1.8645    4.0491 H   0  0  0  0  0  0  0  0  0  0  0  0
    2.1425   -1.7907    1.6244 H   0  0  0  0  0  0  0  0  0  0  0  0
   -4.8197   -2.5652   -2.2730 H   0  0  0  0  0  0  0  0  0  0  0  0
   -7.1683   -2.0805   -1.8485 H   0  0  0  0  0  0  0  0  0  0  0  0
   -9.3081   -1.1257   -2.1324 H   0  0  0  0  0  0  0  0  0  0  0  0
  -10.4563   -0.9307   -0.7901 H   0  0  0  0  0  0  0  0  0  0  0  0
   -9.1585   -2.1380   -0.6589 H   0  0  0  0  0  0  0  0  0  0  0  0
   -6.0411    1.4376    0.3116 H   0  0  0  0  0  0  0  0  0  0  0  0
   -3.6828    0.9883   -0.1876 H   0  0  0  0  0  0  0  0  0  0  0  0
   -3.5598    0.2248   -3.5943 H   0  0  0  0  0  0  0  0  0  0  0  0
   -3.1327   -0.2277   -5.9488 H   0  0  0  0  0  0  0  0  0  0  0  0
   -1.9442   -0.1629   -7.9487 H   0  0  0  0  0  0  0  0  0  0  0  0
   -2.1226   -1.3551   -9.2557 H   0  0  0  0  0  0  0  0  0  0  0  0
   -3.4440   -1.1391   -8.0891 H   0  0  0  0  0  0  0  0  0  0  0  0
   -0.9962   -3.7769   -4.8736 H   0  0  0  0  0  0  0  0  0  0  0  0
   -1.4312   -3.3085   -2.4950 H   0  0  0  0  0  0  0  0  0  0  0  0
   -3.7966   -5.6686    1.8054 H   0  0  0  0  0  0  0  0  0  0  0  0
   -5.8370   -6.9731    2.1117 H   0  0  0  0  0  0  0  0  0  0  0  0
   -7.6184   -8.1536    2.9758 H   0  0  0  0  0  0  0  0  0  0  0  0
   -9.1098   -7.6736    3.8053 H   0  0  0  0  0  0  0  0  0  0  0  0
   -7.6082   -6.7492    4.0908 H   0  0  0  0  0  0  0  0  0  0  0  0
   -8.1944   -3.5074    1.2880 H   0  0  0  0  0  0  0  0  0  0  0  0
   -6.1319   -2.1921    0.9684 H   0  0  0  0  0  0  0  0  0  0  0  0
   -3.4928   -4.7157   -0.7668 H   0  0  0  0  0  0  0  0  0  0  0  0
   -1.4197   -5.6386   -1.7300 H   0  0  0  0  0  0  0  0  0  0  0  0
    3.4828   -4.3731   -1.2176 H   0  0  0  0  0  0  0  0  0  0  0  0
    2.8837   -4.4389    0.4521 H   0  0  0  0  0  0  0  0  0  0  0  0
    2.3320   -3.1399   -0.6602 H   0  0  0  0  0  0  0  0  0  0  0  0
    0.8630   -3.6032    1.2515 H   0  0  0  0  0  0  0  0  0  0  0  0
   -1.1852   -2.7506    2.2446 H   0  0  0  0  0  0  0  0  0  0  0  0
   -2.5028    0.3245    5.8054 H   0  0  0  0  0  0  0  0  0  0  0  0
   -0.5311    1.7692    5.7503 H   0  0  0  0  0  0  0  0  0  0  0  0
    0.9874    2.9859    4.3409 H   0  0  0  0  0  0  0  0  0  0  0  0
    1.3277    3.0900    6.0987 H   0  0  0  0  0  0  0  0  0  0  0  0
    1.9647    4.3233    4.9908 H   0  0  0  0  0  0  0  0  0  0  0  0
   -3.0486    5.1766    5.1701 H   0  0  0  0  0  0  0  0  0  0  0  0
   -5.0338    3.7141    5.2016 H   0  0  0  0  0  0  0  0  0  0  0  0
   -5.1406    2.3744    7.8076 H   0  0  0  0  0  0  0  0  0  0  0  0
   -7.1562    3.0383    9.0031 H   0  0  0  0  0  0  0  0  0  0  0  0
   -9.0142    3.7173   10.2360 H   0  0  0  0  0  0  0  0  0  0  0  0
   -8.8594    1.9336   10.3571 H   0  0  0  0  0  0  0  0  0  0  0  0
  -10.4220    2.7209   10.6651 H   0  0  0  0  0  0  0  0  0  0  0  0
   -9.5607    1.5089    5.8135 H   0  0  0  0  0  0  0  0  0  0  0  0
   -7.5203    0.8810    4.5823 H   0  0  0  0  0  0  0  0  0  0  0  0
   -6.3637   -0.5838    7.0403 H   0  0  0  0  0  0  0  0  0  0  0  0
   -9.7321   -5.5422    5.2115 H   0  0  0  0  0  0  0  0  0  0  0  0
  -10.5528   -3.0205    9.5272 H   0  0  0  0  0  0  0  0  0  0  0  0
  -12.3755   -5.9259    9.4711 H   0  0  0  0  0  0  0  0  0  0  0  0
  -13.9993   -3.8765    8.9610 H   0  0  0  0  0  0  0  0  0  0  0  0
  -15.4362   -6.0749    9.0535 H   0  0  0  0  0  0  0  0  0  0  0  0
  -15.0400   -7.4175    6.7959 H   0  0  0  0  0  0  0  0  0  0  0  0
  -13.3596   -6.0456    5.3125 H   0  0  0  0  0  0  0  0  0  0  0  0
  -14.6395   -3.9979    6.3956 H   0  0  0  0  0  0  0  0  0  0  0  0
  -12.8922   -3.6915    6.5202 H   0  0  0  0  0  0  0  0  0  0  0  0
  -11.9870   -7.2419    7.2591 H   0  0  0  0  0  0  0  0  0  0  0  0
  1  2  2  0  0  0  0
  2  3  1  0  0  0  0
  3  4  2  0  0  0  0
  3  5  1  0  0  0  0
  5  6  2  0  0  0  0
  6  7  1  0  0  0  0
  7  8  2  0  0  0  0
  8  9  1  0  0  0  0
  9 10  2  0  0  0  0
 10 11  1  0  0  0  0
 11 12  2  0  0  0  0
 12 13  1  0  0  0  0
 13 14  3  0  0  0  0
 12 15  1  0  0  0  0
 15 16  3  0  0  0  0
  8 17  1  0  0  0  0
 17 18  1  0  0  0  0
 18 19  1  0  0  0  0
 19 20  2  0  0  0  0
 20 21  1  0  0  0  0
 21 22  1  0  0  0  0
 21 23  1  0  0  0  0
  1 24  1  0  0  0  0
 24 25  2  0  0  0  0
 25 26  1  0  0  0  0
 26 27  2  0  0  0  0
 27 28  1  0  0  0  0
 28 29  2  0  0  0  0
 29 30  1  0  0  0  0
 30 31  1  0  0  0  0
 31 32  1  0  0  0  0
 30 33  2  0  0  0  0
 33 34  1  0  0  0  0
 33 35  1  0  0  0  0
 27 36  1  0  0  0  0
 36 37  2  0  0  0  0
 37 38  1  0  0  0  0
 38 39  1  0  0  0  0
 39 40  2  0  0  0  0
 40 41  1  0  0  0  0
 41 42  1  0  0  0  0
 42 43  1  0  0  0  0
 41 44  2  0  0  0  0
 44 45  1  0  0  0  0
 44 46  1  0  0  0  0
 38 47  2  0  0  0  0
 47 48  1  0  0  0  0
 37 49  1  0  0  0  0
 49 50  2  0  0  0  0
 50 51  1  0  0  0  0
 50 52  1  0  0  0  0
 52 53  2  0  0  0  0
 53 54  1  0  0  0  0
 54 55  1  0  0  0  0
 55 56  2  0  0  0  0
 56 57  1  0  0  0  0
 57 58  2  0  0  0  0
 58 59  1  0  0  0  0
 59 60  1  0  0  0  0
 58 61  1  0  0  0  0
 61 62  2  0  0  0  0
 54 63  1  0  0  0  0
 63 64  2  0  0  0  0
 64 65  1  0  0  0  0
 65 66  2  0  0  0  0
 66 67  1  0  0  0  0
 67 68  1  0  0  0  0
 66 69  1  0  0  0  0
 69 70  2  0  0  0  0
 53 71  1  0  0  0  0
 71 72  1  0  0  0  0
 72 73  1  0  0  0  0
 73 74  2  0  0  0  0
 74 75  1  0  0  0  0
 75 76  1  0  0  0  0
 76 77  2  0  0  0  0
 77 78  1  0  0  0  0
 78 79  2  0  0  0  0
 79 80  1  0  0  0  0
 80 81  1  0  0  0  0
 79 82  1  0  0  0  0
 82 83  2  0  0  0  0
 75 84  1  0  0  0  0
 84 85  2  0  0  0  0
 85 86  1  0  0  0  0
 86 87  2  0  0  0  0
 87 88  1  0  0  0  0
 88 89  1  0  0  0  0
 87 90  1  0  0  0  0
 90 91  2  0  0  0  0
 74 92  1  0  0  0  0
 92 93  1  0  0  0  0
 73 94  1  0  0  0  0
 94 95  2  0  0  0  0
 95 96  1  0  0  0  0
 96 97  1  0  0  0  0
 97 98  2  0  0  0  0
 98 99  1  0  0  0  0
 99100  2  0  0  0  0
100101  1  0  0  0  0
101102  1  0  0  0  0
100103  1  0  0  0  0
103104  2  0  0  0  0
 96105  1  0  0  0  0
105106  2  0  0  0  0
106107  1  0  0  0  0
107108  2  0  0  0  0
108109  1  0  0  0  0
109110  1  0  0  0  0
108111  1  0  0  0  0
111112  2  0  0  0  0
 95113  1  0  0  0  0
113114  1  0  0  0  0
114115  1  0  0  0  0
115116  2  0  0  0  0
116117  1  0  0  0  0
117118  1  0  0  0  0
118119  2  0  0  0  0
119120  1  0  0  0  0
120121  2  0  0  0  0
121122  1  0  0  0  0
122123  1  0  0  0  0
121124  1  0  0  0  0
124125  2  0  0  0  0
117126  1  0  0  0  0
126127  2  0  0  0  0
127128  1  0  0  0  0
128129  2  0  0  0  0
129130  1  0  0  0  0
130131  1  0  0  0  0
129132  1  0  0  0  0
132133  2  0  0  0  0
116134  1  0  0  0  0
134135  1  0  0  0  0
115136  1  0  0  0  0
136137  2  0  0  0  0
137138  1  0  0  0  0
138139  2  0  0  0  0
138140  1  0  0  0  0
140141  2  0  0  0  0
141142  1  0  0  0  0
142143  2  0  0  0  0
143144  1  0  0  0  0
144145  2  0  0  0  0
145146  1  0  0  0  0
146147  2  0  0  0  0
147148  1  0  0  0  0
148149  3  0  0  0  0
147150  1  0  0  0  0
150151  3  0  0  0  0
143152  1  0  0  0  0
152153  1  0  0  0  0
153154  1  0  0  0  0
154155  2  0  0  0  0
155156  1  0  0  0  0
156157  1  0  0  0  0
156158  1  0  0  0  0
 11  2  1  0  0  0  0
 23 17  1  0  0  0  0
 48 24  1  0  0  0  0
 93 52  1  0  0  0  0
135 94  1  0  0  0  0
146137  1  0  0  0  0
158152  1  0  0  0  0
 10  5  1  0  0  0  0
 22 18  1  0  0  0  0
 47 26  1  0  0  0  0
 62 55  1  0  0  0  0
 70 63  1  0  0  0  0
 92 71  2  0  0  0  0
104 97  1  0  0  0  0
112105  1  0  0  0  0
134113  2  0  0  0  0
145140  1  0  0  0  0
157153  1  0  0  0  0
 23  7  1  0  0  0  0
 35 28  1  0  0  0  0
 51 36  1  0  0  0  0
 83 76  1  0  0  0  0
 91 84  1  0  0  0  0
125118  1  0  0  0  0
133126  1  0  0  0  0
158142  1  0  0  0  0
 45 39  1  0  0  0  0
  1159  1  0  0  0  0
  6160  1  0  0  0  0
  9161  1  0  0  0  0
 17162  1  0  0  0  0
 18163  1  0  0  0  0
 19164  1  0  0  0  0
 20165  1  0  0  0  0
 21166  1  0  0  0  0
 22167  1  0  0  0  0
 22168  1  0  0  0  0
 23169  1  0  0  0  0
 25170  1  0  0  0  0
 29171  1  0  0  0  0
 31172  1  0  0  0  0
 31173  1  0  0  0  0
 32174  1  0  0  0  0
 32175  1  0  0  0  0
 32176  1  0  0  0  0
 40177  1  0  0  0  0
 42178  1  0  0  0  0
 42179  1  0  0  0  0
 43180  1  0  0  0  0
 43181  1  0  0  0  0
 43182  1  0  0  0  0
 49183  1  0  0  0  0
 56184  1  0  0  0  0
 57185  1  0  0  0  0
 60186  1  0  0  0  0
 60187  1  0  0  0  0
 60188  1  0  0  0  0
 61189  1  0  0  0  0
 62190  1  0  0  0  0
 64191  1  0  0  0  0
 65192  1  0  0  0  0
 68193  1  0  0  0  0
 68194  1  0  0  0  0
 68195  1  0  0  0  0
 69196  1  0  0  0  0
 70197  1  0  0  0  0
 77198  1  0  0  0  0
 78199  1  0  0  0  0
 81200  1  0  0  0  0
 81201  1  0  0  0  0
 81202  1  0  0  0  0
 82203  1  0  0  0  0
 83204  1  0  0  0  0
 85205  1  0  0  0  0
 86206  1  0  0  0  0
 89207  1  0  0  0  0
 89208  1  0  0  0  0
 89209  1  0  0  0  0
 90210  1  0  0  0  0
 91211  1  0  0  0  0
 98212  1  0  0  0  0
 99213  1  0  0  0  0
102214  1  0  0  0  0
102215  1  0  0  0  0
102216  1  0  0  0  0
103217  1  0  0  0  0
104218  1  0  0  0  0
106219  1  0  0  0  0
107220  1  0  0  0  0
110221  1  0  0  0  0
110222  1  0  0  0  0
110223  1  0  0  0  0
111224  1  0  0  0  0
112225  1  0  0  0  0
119226  1  0  0  0  0
120227  1  0  0  0  0
123228  1  0  0  0  0
123229  1  0  0  0  0
123230  1  0  0  0  0
124231  1  0  0  0  0
125232  1  0  0  0  0
127233  1  0  0  0  0
128234  1  0  0  0  0
131235  1  0  0  0  0
131236  1  0  0  0  0
131237  1  0  0  0  0
132238  1  0  0  0  0
133239  1  0  0  0  0
136240  1  0  0  0  0
141241  1  0  0  0  0
144242  1  0  0  0  0
152243  1  0  0  0  0
153244  1  0  0  0  0
154245  1  0  0  0  0
155246  1  0  0  0  0
156247  1  0  0  0  0
157248  1  0  0  0  0
157249  1  0  0  0  0
158250  1  0  0  0  0
M  END
