167

C          0.51830        7.06050        1.41060
C          1.34770        7.12260        2.50420
C          1.93110        5.97740        3.20270
O          1.95530        4.81370        2.82610
C          2.49920        6.49280        4.45490
C          3.08820        5.75310        5.47910
C          3.52660        6.51570        6.53480
C          3.38950        7.91000        6.57020
C          2.80910        8.65090        5.56700
C          2.35470        7.89560        4.48250
C          1.70000        8.31880        3.24470
C          1.53190        9.61530        2.83580
C          1.02880       10.01600        1.57940
N          0.67240       10.43070        0.56970
C          1.90350       10.74470        3.59530
N          2.17640       11.70610        4.16050
C          4.03500        8.01920        7.92890
C          3.08670        8.23970        9.12650
C          3.91390        7.82800       10.32310
C          4.04300        6.50780       10.28950
C          3.30530        6.00460        9.06960
C          2.15880        7.02280        9.01670
C          4.18740        6.46450        7.88940
C          0.12350        5.94710        0.66170
S          0.73000        4.31420        0.85000
C         -0.22150        3.71500       -0.47240
C         -0.98170        4.72930       -1.02790
S         -2.14530        4.76040       -2.30510
C         -2.44190        6.44430       -1.97710
C         -3.48760        7.08730       -2.77730
O         -3.90440        8.20800       -2.63760
O         -3.92420        6.20740       -3.68990
C         -5.03050        6.56140       -4.51670
C         -6.11040        5.49900       -4.38280
C         -1.67340        6.96200       -0.96240
C         -0.81080        5.98330       -0.39380
Cl        -1.78900        8.59160       -0.46620
C         -0.17470        2.33660       -0.80000
C         -0.57120        1.68420       -1.95340
N         -1.10660        2.29830       -3.10490
C         -2.39600        1.93050       -3.50280
C         -2.91980        2.40410       -4.70480
C         -4.19890        2.07120       -5.10360
C         -4.99160        1.26150       -4.30280
S         -6.63180        0.74820       -4.72730
C         -6.74120        1.10740       -6.50410
C         -4.50020        0.83940       -3.07260
C         -3.22580        1.17570       -2.67240
C         -0.10760        2.56390       -4.08260
C         -0.01320        1.80440       -5.24770
C          0.97550        2.06770       -6.16890
C          1.90370        3.08310       -5.94110
S          3.11750        3.32990       -7.19680
C          4.11410        4.71620       -6.58060
C          1.83170        3.81870       -4.76660
C          0.83400        3.55600       -3.84560
C         -0.32410        0.29930       -1.85900
S         -0.63840       -1.02370       -2.91140
C         -0.08830       -2.15300       -1.68040
C          0.35690       -1.51660       -0.51940
N          0.78690       -2.11810        0.64110
C          0.41320       -3.41710        1.02330
C         -0.87990       -3.89800        0.83070
C         -1.20090       -5.20280        1.15290
C         -0.23790       -6.04260        1.70090
S         -0.52650       -7.72520        2.13640
C         -2.33380       -7.87180        2.12120
C          1.04710       -5.55260        1.92910
C          1.37100       -4.25820        1.59250
C          1.58930       -1.36780        1.52300
C          1.32140       -1.36990        2.89140
C          2.04700       -0.56310        3.73860
C          3.04940        0.26720        3.23960
S          3.87990        1.31350        4.39010
C          4.50410        2.66380        3.34660
C          3.36210        0.22170        1.88790
C          2.64140       -0.59500        1.03870
C          0.21300       -0.11160       -0.64700
S          0.48080        1.23850        0.40020
C         -0.13100       -3.55090       -1.94700
S          1.23360       -4.55590       -1.57900
C          0.35920       -6.04380       -1.89960
C         -0.88930       -5.72240       -2.41780
S         -2.16360       -6.67610       -3.07050
C         -3.11660       -5.23960       -3.34010
C         -4.43630       -5.45150       -3.94420
O         -4.85500       -6.54870       -4.22770
O         -5.09200       -4.31090       -4.16230
C         -6.37130       -4.39530       -4.79300
C         -6.62180       -3.10140       -5.54640
C         -2.49690       -4.08720       -2.92830
C         -1.17600       -4.32610       -2.45070
Cl        -3.27460       -2.56720       -2.93900
C          1.02260       -7.24140       -1.58690
C          0.47350       -8.45900       -1.28230
C         -0.93760       -8.69990       -0.94380
O         -1.82900       -7.86680       -0.89730
C         -1.02630      -10.11630       -0.56480
C         -2.14930      -10.84650       -0.16920
O         -3.33070      -10.20440       -0.13740
C         -4.49510      -10.92250        0.19500
C         -1.95290      -12.19200        0.16190
C         -0.69140      -12.75750        0.10810
C          0.42630      -12.03030       -0.27860
C          0.24960      -10.70040       -0.61970
C          1.20700       -9.69020       -1.06920
C          2.54070       -9.90460       -1.29460
C          3.45420       -8.94630       -1.78290
N          4.26150       -8.23670       -2.18820
C          3.19900      -11.13490       -1.08350
N          3.80520      -12.09850       -0.93510
H          0.07020        7.98680        1.07450
H          3.16770        4.67910        5.41590
H          2.70780        9.72220        5.61300
H          4.93360        8.63090        7.97920
H          2.62410        9.22200        9.16550
H          4.35150        8.52160       11.01670
H          4.60990        5.87800       10.94960
H          3.04160        4.95060        9.05680
H          1.57690        6.98910        8.09740
H          1.49190        6.93590        9.87280
H          5.18820        6.03760        7.91490
H         -4.66070        6.61250       -5.54600
H         -5.39610        7.54830       -4.21430
H         -6.91770        5.70660       -5.07930
H         -5.69020        4.51860       -4.59520
H         -6.50980        5.48940       -3.37180
H         -2.32100        3.04550       -5.33250
H         -4.56370        2.45210       -6.04460
H         -6.79190        2.17960       -6.67080
H         -5.89090        0.66810       -7.01700
H         -7.66070        0.64060       -6.84280
H         -5.12830        0.23920       -2.43220
H         -2.87720        0.84620       -1.70610
H         -0.71750        1.00480       -5.42320
H          1.04890        1.48360       -7.07340
H          4.60150        4.44040       -5.65010
H          4.86120        4.90010       -7.34650
H          3.49000        5.59630       -6.45620
H          2.54170        4.60090       -4.55270
H          0.78910        4.13060       -2.93420
H         -1.63780       -3.25020        0.41530
H         -2.19920       -5.55960        0.96100
H         -2.76480       -7.08550        2.73360
H         -2.69500       -7.83510        1.09630
H         -2.55000       -8.84280        2.55610
H          1.78890       -6.20600        2.36130
H          2.37230       -3.88900        1.75350
H          0.52580       -1.98930        3.27750
H          1.82880       -0.54610        4.79510
H          5.27710        2.30210        2.67560
H          4.93490        3.38850        4.03110
H          3.67470        3.10960        2.80440
H          4.16210        0.81950        1.48280
H          2.89080       -0.63080       -0.01170
H         -6.37810       -5.26320       -5.46130
H         -7.12790       -4.54930       -4.01540
H         -5.86840       -2.96450       -6.31810
H         -7.60330       -3.13540       -6.01030
H         -6.58020       -2.25480       -4.86590
H          2.09910       -7.14460       -1.52050
H         -4.67170      -11.74680       -0.50230
H         -4.45000      -11.31140        1.21760
H         -5.31090      -10.20600        0.11730
H         -2.78600      -12.80520        0.46730
H         -0.57480      -13.79680        0.37640
H          1.39360      -12.50200       -0.30480
