218

C          7.93930        8.76640       -6.05610
C          9.21150        8.52860       -6.47590
C         10.16570        9.67140       -6.55150
O          9.88540       10.84760       -6.57510
C         11.50780        9.05920       -6.51830
C         12.73220        9.71660       -6.41320
C         13.81670        8.87460       -6.35440
C         13.69790        7.47830       -6.39660
C         12.49930        6.81600       -6.51280
C         11.38300        7.65510       -6.57510
C          9.96940        7.31770       -6.72400
C          9.49260        6.13580       -7.23030
C          8.15170        5.93630       -7.62260
N          7.08580        5.73330       -7.99590
C         10.27460        4.98910       -7.46370
N         10.84540        4.00680       -7.63480
C         15.18560        7.26740       -6.26620
C         15.70210        6.84090       -4.87550
C         17.17530        7.17690       -4.91800
C         17.28880        8.49830       -4.88110
C         15.89420        9.07780       -4.81270
C         15.19600        7.98710       -3.99010
C         15.31870        8.82350       -6.22240
C          7.00110        7.84020       -5.53950
C          7.22930        6.56240       -5.10120
C          6.07430        5.89290       -4.65840
C          5.98460        4.53360       -4.31160
C          7.18350        3.69040       -4.44190
C          8.33020        3.95450       -3.69570
C          9.48540        3.23430       -3.93490
C          9.52450        2.26510       -4.92170
C          8.38350        1.99890       -5.66820
S          8.32570        0.79360       -6.95190
C         10.07740        0.67340       -7.48510
C         10.13140        0.04820       -8.86560
C          7.21060        2.70140       -5.41230
C          4.73280        4.06860       -3.96810
C          3.58720        4.90900       -3.93930
C          3.66440        6.25280       -4.35280
C          2.45790        7.08930       -4.40050
C          2.44880        8.36760       -3.85210
C          1.28200        9.11270       -3.85680
C          0.12110        8.59590       -4.39650
C          0.12520        7.32250       -4.96090
S         -1.42590        6.71960       -5.56360
C         -0.99230        5.33010       -6.66850
C         -0.26870        5.79330       -7.91790
C          1.29370        6.58000       -4.97220
C          4.92100        6.71760       -4.70820
S          5.31560        8.29690       -5.33170
C          2.45310        4.21640       -3.45780
C          2.68740        2.89960       -3.17450
S          4.34890        2.44010       -3.47440
C          1.72240        1.97300       -2.67720
C          0.39740        2.22910       -2.46880
C         -0.31290        1.13860       -1.91510
C         -1.67550        1.10340       -1.57280
C         -2.56080        2.22550       -1.91340
C         -2.58180        2.72230       -3.21750
C         -3.40710        3.78130       -3.53960
C         -4.21970        4.36330       -2.58200
C         -4.19990        3.87940       -1.28130
S         -5.19680        4.51720        0.03100
C         -5.72230        6.16890       -0.54790
C         -4.56330        7.14210       -0.64710
C         -3.37390        2.80900       -0.95350
C         -2.11530       -0.03550       -0.91980
C         -1.27310       -1.15130       -0.68050
C          0.06870       -1.15190       -1.10340
C          0.90430       -2.35040       -0.94750
C          2.19520       -2.27770       -0.43470
C          2.95870       -3.42630       -0.31580
C          2.44300       -4.65390       -0.68110
C          1.14790       -4.73750       -1.18290
S          0.55130       -6.34700       -1.61920
C         -1.26240       -6.20810       -1.41450
C         -1.99070       -5.91940       -2.71340
C          0.39240       -3.58770       -1.33480
C          0.52910        0.02220       -1.67900
S          2.15940        0.34160       -2.21630
C         -1.94550       -2.16600        0.04000
C         -3.24970       -1.87300        0.31880
S         -3.72560       -0.30830       -0.30170
C         -4.12560       -2.70780        1.07840
C         -3.90870       -4.03000        1.33990
C         -4.83950       -4.59540        2.23970
C         -4.85250       -5.91050        2.73500
C         -3.79470       -6.85240        2.34340
C         -4.09510       -8.11750        1.84400
C         -3.07450       -8.94360        1.41250
C         -1.75210       -8.53350        1.45800
C         -1.44240       -7.28540        1.98240
S          0.17920       -6.58660        2.07310
C          1.31360       -7.92660        1.58320
C          1.47060       -8.97700        2.66570
C         -2.46580       -6.46040        2.43520
C         -5.87630       -6.23080        3.60980
C         -6.86350       -5.28910        4.01120
C         -6.85800       -3.97580        3.49820
C         -7.89250       -3.01500        3.90020
C         -7.54990       -1.75720        4.38810
C         -8.53740       -0.87520        4.78800
C         -9.87150       -1.22940        4.70750
C        -10.21810       -2.48460        4.22770
S        -11.91980       -2.98070        4.06960
C        -12.53180       -2.68450        5.76860
C        -11.99100       -3.70910        6.74580
C         -9.23570       -3.36960        3.81690
C         -5.82750       -3.65540        2.63330
S         -5.55370       -2.09930        1.88440
C         -7.72390       -5.80780        4.99870
C         -7.44250       -7.10190        5.35680
S         -6.08830       -7.75060        4.42630
C         -8.04810       -7.96910        6.29530
C         -8.91720       -7.70350        7.31440
C         -9.33690       -6.38740        7.85370
O         -9.18040       -5.27980        7.38000
C         -9.98030       -6.67080        9.14870
C        -10.45480       -5.72910       10.06040
C        -10.98050       -6.27590       11.20520
C        -11.02610       -7.65880       11.43150
C        -10.56510       -8.59760       10.54000
C        -10.03280       -8.06140        9.36250
C         -9.45560       -8.72740        8.19960
C         -9.49630      -10.07490        7.95830
C         -9.03610      -10.71730        6.78800
N         -8.71210      -11.32200        5.86690
C        -10.06230      -11.02280        8.83740
N        -10.50070      -11.84880        9.50340
C        -11.67170       -7.49650       12.78500
C        -13.18620       -7.78250       12.86490
C        -13.61710       -7.09390       14.13970
C        -13.57600       -5.78510       13.92520
C        -13.11660       -5.56710       12.50150
C        -13.74370       -6.79600       11.83070
C        -11.62310       -5.95540       12.53170
H          7.64180        9.81010       -6.05160
H         12.78210       10.79370       -6.38430
H         12.41690        5.74180       -6.54020
H         15.66110        6.72580       -7.08150
H         15.43950        5.82760       -4.58350
H         17.95460        6.44510       -5.02300
H         18.18200        9.09110       -4.94900
H         15.80680       10.10270       -4.46270
H         14.11180        8.07990       -3.95930
H         15.58490        7.92530       -2.97500
H         15.88300        9.32040       -7.00900
H          8.20370        6.11250       -5.05990
H          8.30700        4.71570       -2.92920
H         10.37330        3.43360       -3.35230
H         10.43980        1.72470       -5.10000
H         10.47630        1.68730       -7.49910
H         10.61440        0.06030       -6.76030
H          9.58320        0.65980       -9.57800
H         11.16580       -0.02850       -9.19390
H          9.69210       -0.94700       -8.85430
H          6.33250        2.49890       -6.00620
H          3.34440        8.76540       -3.40060
H          1.27630       10.10290       -3.42690
H         -0.79540        9.16530       -4.38870
H         -1.95800        4.89130       -6.92050
H         -0.41800        4.59820       -6.10050
H         -0.05980        4.94100       -8.56160
H         -0.88460        6.50230       -8.46630
H          0.67270        6.27850       -7.66850
H          1.32900        5.60280       -5.42660
H          1.50310        4.68880       -3.29130
H         -0.06340        3.17750       -2.67440
H         -1.96780        2.25890       -3.97560
H         -3.42490        4.16610       -4.54850
H         -4.86190        5.18050       -2.86740
H         -6.43630        6.49000        0.21050
H         -6.25080        6.05400       -1.49370
H         -4.07410        7.24220        0.31910
H         -3.82620        6.80070       -1.37110
H         -4.92720        8.11970       -0.95740
H         -3.35920        2.45310        0.06540
H          2.59390       -1.32860       -0.11160
H          3.96160       -3.36390        0.07890
H          3.03020       -5.55390       -0.58320
H         -1.57390       -7.17200       -1.01060
H         -1.43860       -5.44290       -0.66030
H         -1.65280       -4.98770       -3.16170
H         -3.06070       -5.84670       -2.52490
H         -1.81570       -6.72090       -3.42710
H         -0.59140       -3.62550       -1.77500
H         -1.45530       -3.05320        0.39630
H         -3.11170       -4.59230        0.89180
H         -5.12260       -8.43920        1.77290
H         -3.30860       -9.92090        1.01700
H         -0.98380       -9.19000        1.08220
H          2.25590       -7.40890        1.40380
H          0.96480       -8.33980        0.63760
H          2.17290       -9.74150        2.33870
H          0.51910       -9.45280        2.89340
H          1.85040       -8.52220        3.57790
H         -2.20990       -5.50500        2.86890
H         -6.51050       -1.47930        4.47320
H         -8.26540        0.10040        5.16250
H        -10.63690       -0.52850        5.00520
H        -12.26230       -1.67000        6.05800
H        -13.61590       -2.75450        5.68240
H        -12.39900       -3.52560        7.73850
H        -12.27350       -4.71300        6.43550
H        -10.90510       -3.66210        6.80050
H         -9.52270       -4.32970        3.41550
H         -8.50950       -5.23670        5.45470
H         -7.71960       -8.99780        6.19780
H        -10.38840       -4.67340        9.84900
H        -10.59660       -9.65650       10.73440
H        -11.11630       -7.90400       13.62750
H        -13.45760       -8.82900       12.75720
H        -13.84600       -7.61080       15.05300
H        -13.76350       -4.99040       14.62330
H        -13.32580       -4.59470       12.06360
H        -13.39500       -6.97380       10.81500
H        -14.83170       -6.76030       11.84110
H        -11.03540       -5.33480       13.20580
