
  xtb     02092206123D
 energy: -323.021271867727 gnorm: 0.000582386758 xtb: 6.4.1 (unknown)
193213  0     0  0            999 V2000
   -2.4002    7.0919   -2.7931 C   0  0  0  0  0  0  0  0  0  0  0  0
   -2.7331    6.8145   -4.0805 C   0  0  0  0  0  0  0  0  0  0  0  0
   -2.4486    5.5178   -4.7569 C   0  0  0  0  0  0  0  0  0  0  0  0
   -1.6662    4.6549   -4.4210 O   0  0  0  0  0  0  0  0  0  0  0  0
   -3.3748    5.4663   -5.9018 C   0  0  0  0  0  0  0  0  0  0  0  0
   -3.5574    4.3934   -6.7717 C   0  0  0  0  0  0  0  0  0  0  0  0
   -4.4938    4.6242   -7.7505 C   0  0  0  0  0  0  0  0  0  0  0  0
   -5.2045    5.8288   -7.8551 C   0  0  0  0  0  0  0  0  0  0  0  0
   -5.0376    6.8928   -7.0010 C   0  0  0  0  0  0  0  0  0  0  0  0
   -4.0868    6.6809   -5.9981 C   0  0  0  0  0  0  0  0  0  0  0  0
   -3.6515    7.5613   -4.9222 C   0  0  0  0  0  0  0  0  0  0  0  0
   -3.9554    8.8875   -4.7686 C   0  0  0  0  0  0  0  0  0  0  0  0
   -4.8231    9.6112   -5.6117 C   0  0  0  0  0  0  0  0  0  0  0  0
   -5.5283   10.2459   -6.2577 N   0  0  0  0  0  0  0  0  0  0  0  0
   -3.3802    9.7005   -3.7692 C   0  0  0  0  0  0  0  0  0  0  0  0
   -2.9067   10.4048   -2.9955 N   0  0  0  0  0  0  0  0  0  0  0  0
   -5.9921    5.3517   -9.0493 C   0  0  0  0  0  0  0  0  0  0  0  0
   -7.4556    4.9018   -8.8137 C   0  0  0  0  0  0  0  0  0  0  0  0
   -7.5374    4.4375   -7.3805 C   0  0  0  0  0  0  0  0  0  0  0  0
   -6.8612    3.3006   -7.2837 C   0  0  0  0  0  0  0  0  0  0  0  0
   -6.3108    2.9746   -8.6502 C   0  0  0  0  0  0  0  0  0  0  0  0
   -7.4295    3.5453   -9.5363 C   0  0  0  0  0  0  0  0  0  0  0  0
   -5.1972    4.0126   -8.9349 C   0  0  0  0  0  0  0  0  0  0  0  0
   -1.5074    6.2760   -2.0129 C   0  0  0  0  0  0  0  0  0  0  0  0
   -1.9658    5.8274   -0.7595 C   0  0  0  0  0  0  0  0  0  0  0  0
   -1.3623    4.7814   -0.1156 C   0  0  0  0  0  0  0  0  0  0  0  0
   -0.2181    4.1590   -0.6437 C   0  0  0  0  0  0  0  0  0  0  0  0
    0.3695    4.7114   -1.7822 C   0  0  0  0  0  0  0  0  0  0  0  0
    1.5731    4.4032   -2.5341 C   0  0  0  0  0  0  0  0  0  0  0  0
    2.6525    3.5911   -2.4874 C   0  0  0  0  0  0  0  0  0  0  0  0
    3.1888    2.6198   -1.5685 C   0  0  0  0  0  0  0  0  0  0  0  0
    3.8457    1.4556   -2.0771 C   0  0  0  0  0  0  0  0  0  0  0  0
    4.3417    0.6559   -1.1092 C   0  0  0  0  0  0  0  0  0  0  0  0
    4.0812    1.3126    0.4627 S   0  0  0  0  0  0  0  0  0  0  0  0
    3.2658    2.6649   -0.2024 C   0  0  0  0  0  0  0  0  0  0  0  0
    1.5574    5.3427   -3.6899 C   0  0  0  0  0  0  0  0  0  0  0  0
    2.3679    5.4253   -4.5884 O   0  0  0  0  0  0  0  0  0  0  0  0
    0.4637    6.1654   -3.5481 N   0  0  0  0  0  0  0  0  0  0  0  0
    0.2977    7.2988   -4.4228 C   0  0  0  0  0  0  0  0  0  0  0  0
    0.3245    8.6246   -3.6723 C   0  0  0  0  0  0  0  0  0  0  0  0
   -0.2858    5.7681   -2.4633 C   0  0  0  0  0  0  0  0  0  0  0  0
    0.2321    2.9039   -0.0833 C   0  0  0  0  0  0  0  0  0  0  0  0
    0.4637    2.5083    1.2237 C   0  0  0  0  0  0  0  0  0  0  0  0
    0.4862    3.3261    2.3379 N   0  0  0  0  0  0  0  0  0  0  0  0
    0.4251    2.7476    3.6240 C   0  0  0  0  0  0  0  0  0  0  0  0
   -0.5372    1.7954    3.9553 C   0  0  0  0  0  0  0  0  0  0  0  0
   -0.5548    1.2414    5.2167 C   0  0  0  0  0  0  0  0  0  0  0  0
    0.3798    1.6328    6.1724 C   0  0  0  0  0  0  0  0  0  0  0  0
    0.2909    0.8141    7.7363 S   0  0  0  0  0  0  0  0  0  0  0  0
    1.5864    1.6148    8.7261 C   0  0  0  0  0  0  0  0  0  0  0  0
    1.3164    2.6087    5.8567 C   0  0  0  0  0  0  0  0  0  0  0  0
    1.3349    3.1596    4.5909 C   0  0  0  0  0  0  0  0  0  0  0  0
    0.3875    4.7274    2.2762 C   0  0  0  0  0  0  0  0  0  0  0  0
   -0.5055    5.3801    3.1293 C   0  0  0  0  0  0  0  0  0  0  0  0
   -0.7212    6.7354    3.0157 C   0  0  0  0  0  0  0  0  0  0  0  0
   -0.0489    7.4751    2.0477 C   0  0  0  0  0  0  0  0  0  0  0  0
   -0.4739    9.1801    1.8609 S   0  0  0  0  0  0  0  0  0  0  0  0
   -0.1836    9.4374    0.0838 C   0  0  0  0  0  0  0  0  0  0  0  0
    0.9133    6.8524    1.2655 C   0  0  0  0  0  0  0  0  0  0  0  0
    1.1309    5.4942    1.3834 C   0  0  0  0  0  0  0  0  0  0  0  0
    0.7566    1.1161    1.2746 C   0  0  0  0  0  0  0  0  0  0  0  0
    1.2571    0.0137    2.5235 S   0  0  0  0  0  0  0  0  0  0  0  0
    1.2766   -1.3086    1.3694 C   0  0  0  0  0  0  0  0  0  0  0  0
    1.1009   -0.8749    0.0532 C   0  0  0  0  0  0  0  0  0  0  0  0
    1.3644   -1.5871   -1.0925 N   0  0  0  0  0  0  0  0  0  0  0  0
    2.3278   -2.6010   -1.1557 C   0  0  0  0  0  0  0  0  0  0  0  0
    2.1802   -3.6307   -2.0877 C   0  0  0  0  0  0  0  0  0  0  0  0
    3.0560   -4.6918   -2.0971 C   0  0  0  0  0  0  0  0  0  0  0  0
    4.1035   -4.7564   -1.1789 C   0  0  0  0  0  0  0  0  0  0  0  0
    5.1145   -6.2002   -1.2036 S   0  0  0  0  0  0  0  0  0  0  0  0
    5.9347   -6.1599    0.4150 C   0  0  0  0  0  0  0  0  0  0  0  0
    4.2985   -3.6980   -0.3009 C   0  0  0  0  0  0  0  0  0  0  0  0
    3.4217   -2.6313   -0.2936 C   0  0  0  0  0  0  0  0  0  0  0  0
    0.7636   -1.1222   -2.2814 C   0  0  0  0  0  0  0  0  0  0  0  0
    1.5490   -0.7384   -3.3644 C   0  0  0  0  0  0  0  0  0  0  0  0
    0.9744   -0.0988   -4.4430 C   0  0  0  0  0  0  0  0  0  0  0  0
   -0.3940    0.1466   -4.4597 C   0  0  0  0  0  0  0  0  0  0  0  0
   -1.1570    1.0931   -5.7419 S   0  0  0  0  0  0  0  0  0  0  0  0
    0.1238    2.3401   -6.0740 C   0  0  0  0  0  0  0  0  0  0  0  0
   -1.1951   -0.3452   -3.4346 C   0  0  0  0  0  0  0  0  0  0  0  0
   -0.6200   -0.9688   -2.3472 C   0  0  0  0  0  0  0  0  0  0  0  0
    0.7463    0.4964    0.0351 C   0  0  0  0  0  0  0  0  0  0  0  0
    0.3627    1.5947   -1.2367 S   0  0  0  0  0  0  0  0  0  0  0  0
    1.4751   -2.6289    1.8612 C   0  0  0  0  0  0  0  0  0  0  0  0
    1.0449   -3.7887    1.2239 C   0  0  0  0  0  0  0  0  0  0  0  0
    0.2431   -3.7060    0.1457 F   0  0  0  0  0  0  0  0  0  0  0  0
    1.3798   -5.0602    1.6872 C   0  0  0  0  0  0  0  0  0  0  0  0
    1.0276   -6.1056    0.9289 F   0  0  0  0  0  0  0  0  0  0  0  0
    2.1412   -5.2581    2.8326 C   0  0  0  0  0  0  0  0  0  0  0  0
    2.5310   -4.0961    3.5564 C   0  0  0  0  0  0  0  0  0  0  0  0
    3.2168   -4.2179    4.7042 N   0  0  0  0  0  0  0  0  0  0  0  0
    3.5031   -3.1436    5.4041 C   0  0  0  0  0  0  0  0  0  0  0  0
    4.2345   -3.3803    6.6905 C   0  0  0  0  0  0  0  0  0  0  0  0
    3.2502   -3.4151    7.8626 C   0  0  0  0  0  0  0  0  0  0  0  0
    3.0884   -1.8558    4.9687 C   0  0  0  0  0  0  0  0  0  0  0  0
    2.4504   -1.7315    3.8281 N   0  0  0  0  0  0  0  0  0  0  0  0
    2.1584   -2.8109    3.1002 C   0  0  0  0  0  0  0  0  0  0  0  0
    3.3326   -0.5801    5.7159 C   0  0  0  0  0  0  0  0  0  0  0  0
    4.1880    0.3784    4.8867 C   0  0  0  0  0  0  0  0  0  0  0  0
    2.5398   -6.5586    3.2961 C   0  0  0  0  0  0  0  0  0  0  0  0
    1.7284   -7.6443    3.3328 C   0  0  0  0  0  0  0  0  0  0  0  0
    0.2400   -7.5705    3.2959 C   0  0  0  0  0  0  0  0  0  0  0  0
   -0.4486   -6.5985    3.0818 O   0  0  0  0  0  0  0  0  0  0  0  0
   -0.2261   -8.9038    3.7211 C   0  0  0  0  0  0  0  0  0  0  0  0
   -1.5497   -9.3031    3.8965 C   0  0  0  0  0  0  0  0  0  0  0  0
   -1.6906  -10.5996    4.3286 C   0  0  0  0  0  0  0  0  0  0  0  0
   -0.5961  -11.4407    4.5742 C   0  0  0  0  0  0  0  0  0  0  0  0
    0.7138  -11.0618    4.4043 C   0  0  0  0  0  0  0  0  0  0  0  0
    0.8801   -9.7443    3.9637 C   0  0  0  0  0  0  0  0  0  0  0  0
    2.1014   -9.0020    3.6787 C   0  0  0  0  0  0  0  0  0  0  0  0
    3.3744   -9.5077    3.6428 C   0  0  0  0  0  0  0  0  0  0  0  0
    4.5038   -8.7687    3.2340 C   0  0  0  0  0  0  0  0  0  0  0  0
    5.4587   -8.2360    2.8823 N   0  0  0  0  0  0  0  0  0  0  0  0
    3.7167  -10.8371    3.9636 C   0  0  0  0  0  0  0  0  0  0  0  0
    4.0598  -11.9003    4.2289 N   0  0  0  0  0  0  0  0  0  0  0  0
   -1.4739  -12.5909    5.0009 C   0  0  0  0  0  0  0  0  0  0  0  0
   -1.5793  -12.8509    6.5187 C   0  0  0  0  0  0  0  0  0  0  0  0
   -2.8359  -13.6798    6.6576 C   0  0  0  0  0  0  0  0  0  0  0  0
   -3.8719  -12.8845    6.4232 C   0  0  0  0  0  0  0  0  0  0  0  0
   -3.3330  -11.5047    6.1221 C   0  0  0  0  0  0  0  0  0  0  0  0
   -2.0969  -11.5004    7.0308 C   0  0  0  0  0  0  0  0  0  0  0  0
   -2.6936  -11.6543    4.7249 C   0  0  0  0  0  0  0  0  0  0  0  0
   -2.9425    7.8652   -2.2612 H   0  0  0  0  0  0  0  0  0  0  0  0
   -3.0021    3.4760   -6.6504 H   0  0  0  0  0  0  0  0  0  0  0  0
   -5.5966    7.8105   -7.0835 H   0  0  0  0  0  0  0  0  0  0  0  0
   -5.8795    5.9371   -9.9595 H   0  0  0  0  0  0  0  0  0  0  0  0
   -8.2050    5.6231   -9.1284 H   0  0  0  0  0  0  0  0  0  0  0  0
   -8.0158    4.9957   -6.5971 H   0  0  0  0  0  0  0  0  0  0  0  0
   -6.6596    2.7187   -6.4036 H   0  0  0  0  0  0  0  0  0  0  0  0
   -6.0168    1.9416   -8.8149 H   0  0  0  0  0  0  0  0  0  0  0  0
   -7.1556    3.6188  -10.5878 H   0  0  0  0  0  0  0  0  0  0  0  0
   -8.3655    2.9979   -9.4373 H   0  0  0  0  0  0  0  0  0  0  0  0
   -4.5627    3.7225   -9.7698 H   0  0  0  0  0  0  0  0  0  0  0  0
   -2.8757    6.2515   -0.3614 H   0  0  0  0  0  0  0  0  0  0  0  0
   -1.8043    4.3810    0.7830 H   0  0  0  0  0  0  0  0  0  0  0  0
    3.2657    3.6815   -3.3841 H   0  0  0  0  0  0  0  0  0  0  0  0
    3.9106    1.2414   -3.1282 H   0  0  0  0  0  0  0  0  0  0  0  0
    4.8591   -0.2772   -1.2136 H   0  0  0  0  0  0  0  0  0  0  0  0
    2.9383    3.4377    0.4600 H   0  0  0  0  0  0  0  0  0  0  0  0
   -0.6269    7.2094   -5.0034 H   0  0  0  0  0  0  0  0  0  0  0  0
    1.1422    7.2442   -5.1175 H   0  0  0  0  0  0  0  0  0  0  0  0
    1.2169    8.6891   -3.0543 H   0  0  0  0  0  0  0  0  0  0  0  0
    0.3366    9.4445   -4.3851 H   0  0  0  0  0  0  0  0  0  0  0  0
   -0.5506    8.7421   -3.0372 H   0  0  0  0  0  0  0  0  0  0  0  0
   -1.2705    1.4954    3.2222 H   0  0  0  0  0  0  0  0  0  0  0  0
   -1.2919    0.4975    5.4765 H   0  0  0  0  0  0  0  0  0  0  0  0
    1.5379    1.1436    9.7029 H   0  0  0  0  0  0  0  0  0  0  0  0
    1.3795    2.6766    8.8197 H   0  0  0  0  0  0  0  0  0  0  0  0
    2.5612    1.4388    8.2804 H   0  0  0  0  0  0  0  0  0  0  0  0
    2.0413    2.9424    6.5811 H   0  0  0  0  0  0  0  0  0  0  0  0
    2.0656    3.9154    4.3434 H   0  0  0  0  0  0  0  0  0  0  0  0
   -1.0600    4.8066    3.8575 H   0  0  0  0  0  0  0  0  0  0  0  0
   -1.4379    7.2297    3.6529 H   0  0  0  0  0  0  0  0  0  0  0  0
   -0.7898   10.2898   -0.2062 H   0  0  0  0  0  0  0  0  0  0  0  0
   -0.5035    8.5499   -0.4537 H   0  0  0  0  0  0  0  0  0  0  0  0
    0.8645    9.6519   -0.1042 H   0  0  0  0  0  0  0  0  0  0  0  0
    1.4955    7.4166    0.5540 H   0  0  0  0  0  0  0  0  0  0  0  0
    1.8753    5.0356    0.7536 H   0  0  0  0  0  0  0  0  0  0  0  0
    1.3469   -3.6090   -2.7730 H   0  0  0  0  0  0  0  0  0  0  0  0
    2.9217   -5.5023   -2.7962 H   0  0  0  0  0  0  0  0  0  0  0  0
    6.3625   -7.1465    0.5600 H   0  0  0  0  0  0  0  0  0  0  0  0
    6.7221   -5.4116    0.4230 H   0  0  0  0  0  0  0  0  0  0  0  0
    5.1989   -5.9698    1.1904 H   0  0  0  0  0  0  0  0  0  0  0  0
    5.1283   -3.6932    0.3878 H   0  0  0  0  0  0  0  0  0  0  0  0
    3.5893   -1.8210    0.4002 H   0  0  0  0  0  0  0  0  0  0  0  0
    2.6136   -0.9164   -3.3363 H   0  0  0  0  0  0  0  0  0  0  0  0
    1.5975    0.2257   -5.2615 H   0  0  0  0  0  0  0  0  0  0  0  0
    0.5294    2.6866   -5.1289 H   0  0  0  0  0  0  0  0  0  0  0  0
    0.9004    1.9336   -6.7155 H   0  0  0  0  0  0  0  0  0  0  0  0
   -0.3737    3.1631   -6.5764 H   0  0  0  0  0  0  0  0  0  0  0  0
   -2.2628   -0.1987   -3.4816 H   0  0  0  0  0  0  0  0  0  0  0  0
   -1.2290   -1.3144   -1.5257 H   0  0  0  0  0  0  0  0  0  0  0  0
    4.7368   -4.3453    6.6176 H   0  0  0  0  0  0  0  0  0  0  0  0
    4.9856   -2.6057    6.8517 H   0  0  0  0  0  0  0  0  0  0  0  0
    3.7844   -3.5868    8.7938 H   0  0  0  0  0  0  0  0  0  0  0  0
    2.7002   -2.4800    7.9420 H   0  0  0  0  0  0  0  0  0  0  0  0
    2.5339   -4.2203    7.7196 H   0  0  0  0  0  0  0  0  0  0  0  0
    2.3604   -0.1149    5.8899 H   0  0  0  0  0  0  0  0  0  0  0  0
    3.8087   -0.7745    6.6754 H   0  0  0  0  0  0  0  0  0  0  0  0
    4.3213    1.3181    5.4166 H   0  0  0  0  0  0  0  0  0  0  0  0
    5.1679   -0.0527    4.6927 H   0  0  0  0  0  0  0  0  0  0  0  0
    3.6996    0.5792    3.9376 H   0  0  0  0  0  0  0  0  0  0  0  0
    3.5433   -6.6161    3.6979 H   0  0  0  0  0  0  0  0  0  0  0  0
   -2.3632   -8.6242    3.6942 H   0  0  0  0  0  0  0  0  0  0  0  0
    1.5470  -11.7166    4.5990 H   0  0  0  0  0  0  0  0  0  0  0  0
   -1.3756  -13.5047    4.4183 H   0  0  0  0  0  0  0  0  0  0  0  0
   -0.6775  -13.2487    6.9760 H   0  0  0  0  0  0  0  0  0  0  0  0
   -2.8393  -14.7365    6.8505 H   0  0  0  0  0  0  0  0  0  0  0  0
   -4.9134  -13.1441    6.3812 H   0  0  0  0  0  0  0  0  0  0  0  0
   -4.0287  -10.6755    6.2184 H   0  0  0  0  0  0  0  0  0  0  0  0
   -2.3621  -11.5349    8.0862 H   0  0  0  0  0  0  0  0  0  0  0  0
   -1.4183  -10.6682    6.8532 H   0  0  0  0  0  0  0  0  0  0  0  0
   -3.4093  -11.9431    3.9576 H   0  0  0  0  0  0  0  0  0  0  0  0
  1  2  2  0  0  0  0
  2  3  1  0  0  0  0
  3  4  2  0  0  0  0
  3  5  1  0  0  0  0
  5  6  2  0  0  0  0
  6  7  1  0  0  0  0
  7  8  2  0  0  0  0
  8  9  1  0  0  0  0
  9 10  2  0  0  0  0
 10 11  1  0  0  0  0
 11 12  2  0  0  0  0
 12 13  1  0  0  0  0
 13 14  3  0  0  0  0
 12 15  1  0  0  0  0
 15 16  3  0  0  0  0
  8 17  1  0  0  0  0
 17 18  1  0  0  0  0
 18 19  1  0  0  0  0
 19 20  2  0  0  0  0
 20 21  1  0  0  0  0
 21 22  1  0  0  0  0
 21 23  1  0  0  0  0
  1 24  1  0  0  0  0
 24 25  2  0  0  0  0
 25 26  1  0  0  0  0
 26 27  2  0  0  0  0
 27 28  1  0  0  0  0
 28 29  1  0  0  0  0
 29 30  2  0  0  0  0
 30 31  1  0  0  0  0
 31 32  1  0  0  0  0
 32 33  2  0  0  0  0
 33 34  1  0  0  0  0
 34 35  1  0  0  0  0
 29 36  1  0  0  0  0
 36 37  2  0  0  0  0
 36 38  1  0  0  0  0
 38 39  1  0  0  0  0
 39 40  1  0  0  0  0
 38 41  1  0  0  0  0
 27 42  1  0  0  0  0
 42 43  2  0  0  0  0
 43 44  1  0  0  0  0
 44 45  1  0  0  0  0
 45 46  2  0  0  0  0
 46 47  1  0  0  0  0
 47 48  2  0  0  0  0
 48 49  1  0  0  0  0
 49 50  1  0  0  0  0
 48 51  1  0  0  0  0
 51 52  2  0  0  0  0
 44 53  1  0  0  0  0
 53 54  2  0  0  0  0
 54 55  1  0  0  0  0
 55 56  2  0  0  0  0
 56 57  1  0  0  0  0
 57 58  1  0  0  0  0
 56 59  1  0  0  0  0
 59 60  2  0  0  0  0
 43 61  1  0  0  0  0
 61 62  1  0  0  0  0
 62 63  1  0  0  0  0
 63 64  2  0  0  0  0
 64 65  1  0  0  0  0
 65 66  1  0  0  0  0
 66 67  2  0  0  0  0
 67 68  1  0  0  0  0
 68 69  2  0  0  0  0
 69 70  1  0  0  0  0
 70 71  1  0  0  0  0
 69 72  1  0  0  0  0
 72 73  2  0  0  0  0
 65 74  1  0  0  0  0
 74 75  2  0  0  0  0
 75 76  1  0  0  0  0
 76 77  2  0  0  0  0
 77 78  1  0  0  0  0
 78 79  1  0  0  0  0
 77 80  1  0  0  0  0
 80 81  2  0  0  0  0
 64 82  1  0  0  0  0
 82 83  1  0  0  0  0
 63 84  1  0  0  0  0
 84 85  2  0  0  0  0
 85 86  1  0  0  0  0
 85 87  1  0  0  0  0
 87 88  1  0  0  0  0
 87 89  2  0  0  0  0
 89 90  1  0  0  0  0
 90 91  2  0  0  0  0
 91 92  1  0  0  0  0
 92 93  1  0  0  0  0
 93 94  1  0  0  0  0
 92 95  2  0  0  0  0
 95 96  1  0  0  0  0
 96 97  2  0  0  0  0
 95 98  1  0  0  0  0
 98 99  1  0  0  0  0
 89100  1  0  0  0  0
100101  2  0  0  0  0
101102  1  0  0  0  0
102103  2  0  0  0  0
102104  1  0  0  0  0
104105  2  0  0  0  0
105106  1  0  0  0  0
106107  2  0  0  0  0
107108  1  0  0  0  0
108109  2  0  0  0  0
109110  1  0  0  0  0
110111  2  0  0  0  0
111112  1  0  0  0  0
112113  3  0  0  0  0
111114  1  0  0  0  0
114115  3  0  0  0  0
107116  1  0  0  0  0
116117  1  0  0  0  0
117118  1  0  0  0  0
118119  2  0  0  0  0
119120  1  0  0  0  0
120121  1  0  0  0  0
120122  1  0  0  0  0
 11  2  1  0  0  0  0
 23 17  1  0  0  0  0
 41 24  1  0  0  0  0
 83 42  1  0  0  0  0
 97 84  1  0  0  0  0
110101  1  0  0  0  0
122116  1  0  0  0  0
 10  5  1  0  0  0  0
 22 18  1  0  0  0  0
 41 28  2  0  0  0  0
 52 45  1  0  0  0  0
 60 53  1  0  0  0  0
 82 61  2  0  0  0  0
 97 90  1  0  0  0  0
109104  1  0  0  0  0
121117  1  0  0  0  0
 23  7  1  0  0  0  0
 35 31  2  0  0  0  0
 73 66  1  0  0  0  0
 81 74  1  0  0  0  0
122106  1  0  0  0  0
  1123  1  0  0  0  0
  6124  1  0  0  0  0
  9125  1  0  0  0  0
 17126  1  0  0  0  0
 18127  1  0  0  0  0
 19128  1  0  0  0  0
 20129  1  0  0  0  0
 21130  1  0  0  0  0
 22131  1  0  0  0  0
 22132  1  0  0  0  0
 23133  1  0  0  0  0
 25134  1  0  0  0  0
 26135  1  0  0  0  0
 30136  1  0  0  0  0
 32137  1  0  0  0  0
 33138  1  0  0  0  0
 35139  1  0  0  0  0
 39140  1  0  0  0  0
 39141  1  0  0  0  0
 40142  1  0  0  0  0
 40143  1  0  0  0  0
 40144  1  0  0  0  0
 46145  1  0  0  0  0
 47146  1  0  0  0  0
 50147  1  0  0  0  0
 50148  1  0  0  0  0
 50149  1  0  0  0  0
 51150  1  0  0  0  0
 52151  1  0  0  0  0
 54152  1  0  0  0  0
 55153  1  0  0  0  0
 58154  1  0  0  0  0
 58155  1  0  0  0  0
 58156  1  0  0  0  0
 59157  1  0  0  0  0
 60158  1  0  0  0  0
 67159  1  0  0  0  0
 68160  1  0  0  0  0
 71161  1  0  0  0  0
 71162  1  0  0  0  0
 71163  1  0  0  0  0
 72164  1  0  0  0  0
 73165  1  0  0  0  0
 75166  1  0  0  0  0
 76167  1  0  0  0  0
 79168  1  0  0  0  0
 79169  1  0  0  0  0
 79170  1  0  0  0  0
 80171  1  0  0  0  0
 81172  1  0  0  0  0
 93173  1  0  0  0  0
 93174  1  0  0  0  0
 94175  1  0  0  0  0
 94176  1  0  0  0  0
 94177  1  0  0  0  0
 98178  1  0  0  0  0
 98179  1  0  0  0  0
 99180  1  0  0  0  0
 99181  1  0  0  0  0
 99182  1  0  0  0  0
100183  1  0  0  0  0
105184  1  0  0  0  0
108185  1  0  0  0  0
116186  1  0  0  0  0
117187  1  0  0  0  0
118188  1  0  0  0  0
119189  1  0  0  0  0
120190  1  0  0  0  0
121191  1  0  0  0  0
121192  1  0  0  0  0
122193  1  0  0  0  0
M  END
