
  xtb     02052213043D
 energy: -382.391397905124 gnorm: 0.000547262864 xtb: 6.4.1 (unknown)
227250  0     0  0            999 V2000
    0.3799    1.3224    9.4084 C   0  0  0  0  0  0  0  0  0  0  0  0
   -0.5947    2.2962    9.4051 C   0  0  0  0  0  0  0  0  0  0  0  0
   -1.2950    2.7887    8.2229 C   0  0  0  0  0  0  0  0  0  0  0  0
   -1.0319    2.5481    7.0514 O   0  0  0  0  0  0  0  0  0  0  0  0
   -2.3817    3.6527    8.6965 C   0  0  0  0  0  0  0  0  0  0  0  0
   -3.3470    4.2894    7.9198 C   0  0  0  0  0  0  0  0  0  0  0  0
   -4.2297    5.0497    8.6479 C   0  0  0  0  0  0  0  0  0  0  0  0
   -4.1578    5.1670   10.0421 C   0  0  0  0  0  0  0  0  0  0  0  0
   -3.2172    4.5307   10.8194 C   0  0  0  0  0  0  0  0  0  0  0  0
   -2.3074    3.7511   10.1012 C   0  0  0  0  0  0  0  0  0  0  0  0
   -1.1770    2.9427   10.5637 C   0  0  0  0  0  0  0  0  0  0  0  0
   -0.7392    2.8685   11.8611 C   0  0  0  0  0  0  0  0  0  0  0  0
   -1.3505    3.5258   12.9492 C   0  0  0  0  0  0  0  0  0  0  0  0
   -1.7931    4.0218   13.8857 N   0  0  0  0  0  0  0  0  0  0  0  0
    0.3988    2.1689   12.3123 C   0  0  0  0  0  0  0  0  0  0  0  0
    1.3156    1.6577   12.7791 N   0  0  0  0  0  0  0  0  0  0  0  0
   -5.3404    6.1010   10.1028 C   0  0  0  0  0  0  0  0  0  0  0  0
   -5.0568    7.6119   10.2929 C   0  0  0  0  0  0  0  0  0  0  0  0
   -3.6830    7.8695    9.7251 C   0  0  0  0  0  0  0  0  0  0  0  0
   -3.7616    7.7522    8.4065 C   0  0  0  0  0  0  0  0  0  0  0  0
   -5.1889    7.4108    8.0584 C   0  0  0  0  0  0  0  0  0  0  0  0
   -5.9282    8.1833    9.1626 C   0  0  0  0  0  0  0  0  0  0  0  0
   -5.4258    5.9618    8.5499 C   0  0  0  0  0  0  0  0  0  0  0  0
    0.9587    0.6504    8.3285 C   0  0  0  0  0  0  0  0  0  0  0  0
    0.6641    0.9837    6.6371 S   0  0  0  0  0  0  0  0  0  0  0  0
    1.7685   -0.2538    6.0903 C   0  0  0  0  0  0  0  0  0  0  0  0
    2.3280   -0.9048    7.1764 C   0  0  0  0  0  0  0  0  0  0  0  0
    3.5253   -2.1470    7.3392 S   0  0  0  0  0  0  0  0  0  0  0  0
    3.4372   -2.0137    9.0722 C   0  0  0  0  0  0  0  0  0  0  0  0
    4.3467   -2.9009    9.7970 C   0  0  0  0  0  0  0  0  0  0  0  0
    5.1188   -3.6341    9.2188 O   0  0  0  0  0  0  0  0  0  0  0  0
    4.2481   -2.7985   11.1197 O   0  0  0  0  0  0  0  0  0  0  0  0
    5.1008   -3.6407   11.8977 C   0  0  0  0  0  0  0  0  0  0  0  0
    4.5206   -5.0402   12.0375 C   0  0  0  0  0  0  0  0  0  0  0  0
    2.5354   -1.0724    9.5074 C   0  0  0  0  0  0  0  0  0  0  0  0
    1.8936   -0.4024    8.4307 C   0  0  0  0  0  0  0  0  0  0  0  0
    2.2513   -0.7652   11.1643 Cl  0  0  0  0  0  0  0  0  0  0  0  0
    1.8528   -0.3893    4.6794 C   0  0  0  0  0  0  0  0  0  0  0  0
    1.9715   -1.4817    3.8269 C   0  0  0  0  0  0  0  0  0  0  0  0
    2.2126   -2.8157    4.1663 N   0  0  0  0  0  0  0  0  0  0  0  0
    3.4834   -3.2305    4.5469 C   0  0  0  0  0  0  0  0  0  0  0  0
    4.5848   -2.3915    4.3691 C   0  0  0  0  0  0  0  0  0  0  0  0
    5.8418   -2.7984    4.7679 C   0  0  0  0  0  0  0  0  0  0  0  0
    6.0180   -4.0472    5.3421 C   0  0  0  0  0  0  0  0  0  0  0  0
    7.6405   -4.5774    5.8532 S   0  0  0  0  0  0  0  0  0  0  0  0
    7.8282   -3.4927    7.3017 C   0  0  0  0  0  0  0  0  0  0  0  0
    4.9311   -4.8909    5.5154 C   0  0  0  0  0  0  0  0  0  0  0  0
    3.6722   -4.4857    5.1294 C   0  0  0  0  0  0  0  0  0  0  0  0
    1.2548   -3.7174    3.6610 C   0  0  0  0  0  0  0  0  0  0  0  0
   -0.0980   -3.4137    3.8228 C   0  0  0  0  0  0  0  0  0  0  0  0
   -1.0642   -4.2424    3.2998 C   0  0  0  0  0  0  0  0  0  0  0  0
   -0.7048   -5.3974    2.6068 C   0  0  0  0  0  0  0  0  0  0  0  0
   -2.0296   -6.3786    1.9781 S   0  0  0  0  0  0  0  0  0  0  0  0
   -1.1974   -7.7627    1.1493 C   0  0  0  0  0  0  0  0  0  0  0  0
    0.6396   -5.7036    2.4474 C   0  0  0  0  0  0  0  0  0  0  0  0
    1.6094   -4.8673    2.9646 C   0  0  0  0  0  0  0  0  0  0  0  0
    1.6792   -1.1155    2.4938 C   0  0  0  0  0  0  0  0  0  0  0  0
    1.6215   -1.9989    1.0092 S   0  0  0  0  0  0  0  0  0  0  0  0
    1.1692   -0.5417    0.1383 C   0  0  0  0  0  0  0  0  0  0  0  0
    1.1099    0.5659    0.9698 C   0  0  0  0  0  0  0  0  0  0  0  0
    0.8464    1.8554    0.5276 N   0  0  0  0  0  0  0  0  0  0  0  0
    0.0428    2.6696    1.3284 C   0  0  0  0  0  0  0  0  0  0  0  0
   -1.0063    2.0957    2.0484 C   0  0  0  0  0  0  0  0  0  0  0  0
   -1.7451    2.8546    2.9317 C   0  0  0  0  0  0  0  0  0  0  0  0
   -1.4649    4.2027    3.0844 C   0  0  0  0  0  0  0  0  0  0  0  0
   -2.3867    5.1694    4.2650 S   0  0  0  0  0  0  0  0  0  0  0  0
   -1.0493    5.4618    5.4627 C   0  0  0  0  0  0  0  0  0  0  0  0
   -0.4649    4.7954    2.3285 C   0  0  0  0  0  0  0  0  0  0  0  0
    0.2944    4.0341    1.4648 C   0  0  0  0  0  0  0  0  0  0  0  0
    1.5109    2.3277   -0.6117 C   0  0  0  0  0  0  0  0  0  0  0  0
    0.8823    3.2255   -1.4720 C   0  0  0  0  0  0  0  0  0  0  0  0
    1.5309    3.6772   -2.5993 C   0  0  0  0  0  0  0  0  0  0  0  0
    2.8226    3.2445   -2.8965 C   0  0  0  0  0  0  0  0  0  0  0  0
    3.5492    3.8750   -4.3766 S   0  0  0  0  0  0  0  0  0  0  0  0
    5.2666    3.2946   -4.3091 C   0  0  0  0  0  0  0  0  0  0  0  0
    3.4502    2.3456   -2.0443 C   0  0  0  0  0  0  0  0  0  0  0  0
    2.7990    1.8935   -0.9136 C   0  0  0  0  0  0  0  0  0  0  0  0
    1.3955    0.2269    2.3083 C   0  0  0  0  0  0  0  0  0  0  0  0
    1.4621    1.0912    3.7964 S   0  0  0  0  0  0  0  0  0  0  0  0
    0.6787   -0.5335   -1.2103 C   0  0  0  0  0  0  0  0  0  0  0  0
    1.1910   -0.9894   -2.4121 C   0  0  0  0  0  0  0  0  0  0  0  0
    2.4634   -1.4928   -2.6151 N   0  0  0  0  0  0  0  0  0  0  0  0
    3.0239   -2.4135   -1.7098 C   0  0  0  0  0  0  0  0  0  0  0  0
    4.2699   -2.1683   -1.1427 C   0  0  0  0  0  0  0  0  0  0  0  0
    4.8249   -3.0632   -0.2494 C   0  0  0  0  0  0  0  0  0  0  0  0
    4.1440   -4.2291    0.0786 C   0  0  0  0  0  0  0  0  0  0  0  0
    4.7538   -5.4399    1.2099 S   0  0  0  0  0  0  0  0  0  0  0  0
    6.3205   -4.7544    1.8080 C   0  0  0  0  0  0  0  0  0  0  0  0
    2.9083   -4.4913   -0.5109 C   0  0  0  0  0  0  0  0  0  0  0  0
    2.3491   -3.5917   -1.3927 C   0  0  0  0  0  0  0  0  0  0  0  0
    3.1768   -1.1331   -3.7621 C   0  0  0  0  0  0  0  0  0  0  0  0
    4.1286   -1.9968   -4.2990 C   0  0  0  0  0  0  0  0  0  0  0  0
    4.8401   -1.6506   -5.4307 C   0  0  0  0  0  0  0  0  0  0  0  0
    4.5962   -0.4404   -6.0645 C   0  0  0  0  0  0  0  0  0  0  0  0
    5.4567    0.1081   -7.5078 S   0  0  0  0  0  0  0  0  0  0  0  0
    6.1909   -1.4176   -8.1638 C   0  0  0  0  0  0  0  0  0  0  0  0
    3.6447    0.4267   -5.5344 C   0  0  0  0  0  0  0  0  0  0  0  0
    2.9538    0.0930   -4.3916 C   0  0  0  0  0  0  0  0  0  0  0  0
    0.2728   -0.7786   -3.4769 C   0  0  0  0  0  0  0  0  0  0  0  0
    0.2539   -1.2582   -5.1385 S   0  0  0  0  0  0  0  0  0  0  0  0
   -1.3584   -0.5618   -5.3307 C   0  0  0  0  0  0  0  0  0  0  0  0
   -1.8576   -0.0390   -4.1141 C   0  0  0  0  0  0  0  0  0  0  0  0
   -3.1017    0.4956   -3.9018 N   0  0  0  0  0  0  0  0  0  0  0  0
   -4.2646    0.0101   -4.5152 C   0  0  0  0  0  0  0  0  0  0  0  0
   -5.3022    0.8837   -4.8282 C   0  0  0  0  0  0  0  0  0  0  0  0
   -6.4214    0.4290   -5.4977 C   0  0  0  0  0  0  0  0  0  0  0  0
   -6.5091   -0.9012   -5.8826 C   0  0  0  0  0  0  0  0  0  0  0  0
   -7.8445   -1.5453   -6.8399 S   0  0  0  0  0  0  0  0  0  0  0  0
   -8.4694   -0.0700   -7.6953 C   0  0  0  0  0  0  0  0  0  0  0  0
   -5.5036   -1.7921   -5.5085 C   0  0  0  0  0  0  0  0  0  0  0  0
   -4.3987   -1.3462   -4.8214 C   0  0  0  0  0  0  0  0  0  0  0  0
   -3.2058    1.5367   -2.9535 C   0  0  0  0  0  0  0  0  0  0  0  0
   -4.1139    1.4601   -1.9041 C   0  0  0  0  0  0  0  0  0  0  0  0
   -4.1804    2.4673   -0.9606 C   0  0  0  0  0  0  0  0  0  0  0  0
   -3.3535    3.5788   -1.0690 C   0  0  0  0  0  0  0  0  0  0  0  0
   -3.3135    4.9115    0.0813 S   0  0  0  0  0  0  0  0  0  0  0  0
   -4.5157    4.4397    1.3514 C   0  0  0  0  0  0  0  0  0  0  0  0
   -2.4784    3.6768   -2.1512 C   0  0  0  0  0  0  0  0  0  0  0  0
   -2.3897    2.6604   -3.0744 C   0  0  0  0  0  0  0  0  0  0  0  0
   -0.9023   -0.1560   -3.0900 C   0  0  0  0  0  0  0  0  0  0  0  0
   -0.9264    0.1850   -1.3961 S   0  0  0  0  0  0  0  0  0  0  0  0
   -2.0540   -0.4691   -6.5372 C   0  0  0  0  0  0  0  0  0  0  0  0
   -1.7945   -1.0266   -7.7658 C   0  0  0  0  0  0  0  0  0  0  0  0
   -0.6879   -1.9294   -8.0930 C   0  0  0  0  0  0  0  0  0  0  0  0
    0.2660   -2.2225   -7.3918 O   0  0  0  0  0  0  0  0  0  0  0  0
   -0.9589   -2.4364   -9.4505 C   0  0  0  0  0  0  0  0  0  0  0  0
   -0.1940   -3.3447  -10.1783 C   0  0  0  0  0  0  0  0  0  0  0  0
   -0.7060   -3.6393  -11.4195 C   0  0  0  0  0  0  0  0  0  0  0  0
   -1.8939   -3.0745  -11.9009 C   0  0  0  0  0  0  0  0  0  0  0  0
   -2.6582   -2.1768  -11.1933 C   0  0  0  0  0  0  0  0  0  0  0  0
   -2.1535   -1.8613   -9.9289 C   0  0  0  0  0  0  0  0  0  0  0  0
   -2.6694   -0.9466   -8.9115 C   0  0  0  0  0  0  0  0  0  0  0  0
   -3.7868   -0.1583   -9.0464 C   0  0  0  0  0  0  0  0  0  0  0  0
   -4.6774   -0.2036  -10.1373 C   0  0  0  0  0  0  0  0  0  0  0  0
   -5.4688   -0.1906  -10.9701 N   0  0  0  0  0  0  0  0  0  0  0  0
   -4.2047    0.8359   -8.1423 C   0  0  0  0  0  0  0  0  0  0  0  0
   -4.6077    1.6949   -7.4919 N   0  0  0  0  0  0  0  0  0  0  0  0
   -1.8082   -3.8129  -13.2135 C   0  0  0  0  0  0  0  0  0  0  0  0
   -1.3313   -2.9973  -14.4337 C   0  0  0  0  0  0  0  0  0  0  0  0
   -0.8908   -4.0515  -15.4235 C   0  0  0  0  0  0  0  0  0  0  0  0
    0.2351   -4.5864  -14.9688 C   0  0  0  0  0  0  0  0  0  0  0  0
    0.5746   -3.9024  -13.6641 C   0  0  0  0  0  0  0  0  0  0  0  0
    0.0375   -2.4954  -13.9562 C   0  0  0  0  0  0  0  0  0  0  0  0
   -0.4824   -4.4423  -12.6774 C   0  0  0  0  0  0  0  0  0  0  0  0
    0.7412    0.9953   10.3741 H   0  0  0  0  0  0  0  0  0  0  0  0
   -3.3702    4.1761    6.8473 H   0  0  0  0  0  0  0  0  0  0  0  0
   -3.1860    4.6230   11.8921 H   0  0  0  0  0  0  0  0  0  0  0  0
   -6.1880    5.7619   10.6949 H   0  0  0  0  0  0  0  0  0  0  0  0
   -5.2358    7.9807   11.2992 H   0  0  0  0  0  0  0  0  0  0  0  0
   -2.8114    8.0499   10.3268 H   0  0  0  0  0  0  0  0  0  0  0  0
   -2.9700    7.8195    7.6832 H   0  0  0  0  0  0  0  0  0  0  0  0
   -5.4876    7.5927    7.0297 H   0  0  0  0  0  0  0  0  0  0  0  0
   -6.9805    7.9164    9.2488 H   0  0  0  0  0  0  0  0  0  0  0  0
   -5.8298    9.2629    9.0598 H   0  0  0  0  0  0  0  0  0  0  0  0
   -6.3263    5.5217    8.1265 H   0  0  0  0  0  0  0  0  0  0  0  0
    6.0863   -3.6832   11.4223 H   0  0  0  0  0  0  0  0  0  0  0  0
    5.1739   -3.1437   12.8669 H   0  0  0  0  0  0  0  0  0  0  0  0
    4.4672   -5.5198   11.0631 H   0  0  0  0  0  0  0  0  0  0  0  0
    3.5215   -4.9915   12.4641 H   0  0  0  0  0  0  0  0  0  0  0  0
    5.1568   -5.6335   12.6878 H   0  0  0  0  0  0  0  0  0  0  0  0
    4.4515   -1.4223    3.9109 H   0  0  0  0  0  0  0  0  0  0  0  0
    6.6921   -2.1481    4.6232 H   0  0  0  0  0  0  0  0  0  0  0  0
    7.8881   -2.4577    6.9775 H   0  0  0  0  0  0  0  0  0  0  0  0
    6.9790   -3.6430    7.9614 H   0  0  0  0  0  0  0  0  0  0  0  0
    8.7508   -3.7873    7.7907 H   0  0  0  0  0  0  0  0  0  0  0  0
    5.0789   -5.8587    5.9677 H   0  0  0  0  0  0  0  0  0  0  0  0
    2.8224   -5.1295    5.2943 H   0  0  0  0  0  0  0  0  0  0  0  0
   -0.3835   -2.5216    4.3608 H   0  0  0  0  0  0  0  0  0  0  0  0
   -2.1105   -4.0079    3.4228 H   0  0  0  0  0  0  0  0  0  0  0  0
   -1.9935   -8.3872    0.7558 H   0  0  0  0  0  0  0  0  0  0  0  0
   -0.6077   -8.3260    1.8665 H   0  0  0  0  0  0  0  0  0  0  0  0
   -0.5827   -7.3926    0.3341 H   0  0  0  0  0  0  0  0  0  0  0  0
    0.9540   -6.5850    1.9127 H   0  0  0  0  0  0  0  0  0  0  0  0
    2.6491   -5.1060    2.8070 H   0  0  0  0  0  0  0  0  0  0  0  0
   -1.2309    1.0474    1.9163 H   0  0  0  0  0  0  0  0  0  0  0  0
   -2.5333    2.4031    3.5147 H   0  0  0  0  0  0  0  0  0  0  0  0
   -0.7087    4.5021    5.8412 H   0  0  0  0  0  0  0  0  0  0  0  0
   -0.2380    5.9982    4.9801 H   0  0  0  0  0  0  0  0  0  0  0  0
   -1.4698    6.0579    6.2665 H   0  0  0  0  0  0  0  0  0  0  0  0
   -0.2698    5.8525    2.4275 H   0  0  0  0  0  0  0  0  0  0  0  0
    1.0951    4.4907    0.9029 H   0  0  0  0  0  0  0  0  0  0  0  0
   -0.1192    3.5536   -1.2453 H   0  0  0  0  0  0  0  0  0  0  0  0
    1.0436    4.3691   -3.2690 H   0  0  0  0  0  0  0  0  0  0  0  0
    5.7395    3.6527   -3.3992 H   0  0  0  0  0  0  0  0  0  0  0  0
    5.7536    3.7300   -5.1762 H   0  0  0  0  0  0  0  0  0  0  0  0
    5.2992    2.2108   -4.3790 H   0  0  0  0  0  0  0  0  0  0  0  0
    4.4457    1.9875   -2.2512 H   0  0  0  0  0  0  0  0  0  0  0  0
    3.2992    1.1979   -0.2557 H   0  0  0  0  0  0  0  0  0  0  0  0
    4.8002   -1.2638   -1.4028 H   0  0  0  0  0  0  0  0  0  0  0  0
    5.7855   -2.8401    0.1862 H   0  0  0  0  0  0  0  0  0  0  0  0
    7.0311   -4.6818    0.9898 H   0  0  0  0  0  0  0  0  0  0  0  0
    6.1455   -3.7911    2.2776 H   0  0  0  0  0  0  0  0  0  0  0  0
    6.6842   -5.4561    2.5526 H   0  0  0  0  0  0  0  0  0  0  0  0
    2.3936   -5.4062   -0.2633 H   0  0  0  0  0  0  0  0  0  0  0  0
    1.3883   -3.7906   -1.8429 H   0  0  0  0  0  0  0  0  0  0  0  0
    4.3105   -2.9517   -3.8289 H   0  0  0  0  0  0  0  0  0  0  0  0
    5.5749   -2.3408   -5.8130 H   0  0  0  0  0  0  0  0  0  0  0  0
    6.5679   -1.1637   -9.1496 H   0  0  0  0  0  0  0  0  0  0  0  0
    5.4232   -2.1813   -8.2435 H   0  0  0  0  0  0  0  0  0  0  0  0
    7.0113   -1.7462   -7.5320 H   0  0  0  0  0  0  0  0  0  0  0  0
    3.4532    1.3671   -6.0281 H   0  0  0  0  0  0  0  0  0  0  0  0
    2.2365    0.7877   -3.9828 H   0  0  0  0  0  0  0  0  0  0  0  0
   -5.2186    1.9279   -4.5708 H   0  0  0  0  0  0  0  0  0  0  0  0
   -7.2030    1.1293   -5.7409 H   0  0  0  0  0  0  0  0  0  0  0  0
   -9.0813   -0.4384   -8.5127 H   0  0  0  0  0  0  0  0  0  0  0  0
   -9.0759    0.5302   -7.0232 H   0  0  0  0  0  0  0  0  0  0  0  0
   -7.6316    0.4998   -8.0858 H   0  0  0  0  0  0  0  0  0  0  0  0
   -5.5999   -2.8343   -5.7714 H   0  0  0  0  0  0  0  0  0  0  0  0
   -3.6182   -2.0385   -4.5429 H   0  0  0  0  0  0  0  0  0  0  0  0
   -4.7601    0.5988   -1.8216 H   0  0  0  0  0  0  0  0  0  0  0  0
   -4.8798    2.3731   -0.1461 H   0  0  0  0  0  0  0  0  0  0  0  0
   -4.4440    5.2040    2.1194 H   0  0  0  0  0  0  0  0  0  0  0  0
   -4.2420    3.4779    1.7732 H   0  0  0  0  0  0  0  0  0  0  0  0
   -5.5166    4.4243    0.9296 H   0  0  0  0  0  0  0  0  0  0  0  0
   -1.8809    4.5692   -2.2592 H   0  0  0  0  0  0  0  0  0  0  0  0
   -1.6985    2.7309   -3.9011 H   0  0  0  0  0  0  0  0  0  0  0  0
   -2.9623    0.1160   -6.4703 H   0  0  0  0  0  0  0  0  0  0  0  0
    0.7130   -3.7598   -9.7671 H   0  0  0  0  0  0  0  0  0  0  0  0
   -3.5721   -1.7542  -11.5761 H   0  0  0  0  0  0  0  0  0  0  0  0
   -2.6429   -4.4727  -13.4422 H   0  0  0  0  0  0  0  0  0  0  0  0
   -2.0408   -2.2559  -14.7909 H   0  0  0  0  0  0  0  0  0  0  0  0
   -1.4545   -4.3295  -16.2946 H   0  0  0  0  0  0  0  0  0  0  0  0
    0.7997   -5.4004  -15.3844 H   0  0  0  0  0  0  0  0  0  0  0  0
    1.6027   -3.9853  -13.3214 H   0  0  0  0  0  0  0  0  0  0  0  0
    0.5936   -1.9990  -14.7498 H   0  0  0  0  0  0  0  0  0  0  0  0
   -0.0073   -1.8474  -13.0828 H   0  0  0  0  0  0  0  0  0  0  0  0
   -0.4333   -5.5223  -12.5498 H   0  0  0  0  0  0  0  0  0  0  0  0
  1  2  2  0  0  0  0
  2  3  1  0  0  0  0
  3  4  2  0  0  0  0
  3  5  1  0  0  0  0
  5  6  2  0  0  0  0
  6  7  1  0  0  0  0
  7  8  2  0  0  0  0
  8  9  1  0  0  0  0
  9 10  2  0  0  0  0
 10 11  1  0  0  0  0
 11 12  2  0  0  0  0
 12 13  1  0  0  0  0
 13 14  3  0  0  0  0
 12 15  1  0  0  0  0
 15 16  3  0  0  0  0
  8 17  1  0  0  0  0
 17 18  1  0  0  0  0
 18 19  1  0  0  0  0
 19 20  2  0  0  0  0
 20 21  1  0  0  0  0
 21 22  1  0  0  0  0
 21 23  1  0  0  0  0
  1 24  1  0  0  0  0
 24 25  1  0  0  0  0
 25 26  1  0  0  0  0
 26 27  2  0  0  0  0
 27 28  1  0  0  0  0
 28 29  1  0  0  0  0
 29 30  1  0  0  0  0
 30 31  2  0  0  0  0
 30 32  1  0  0  0  0
 32 33  1  0  0  0  0
 33 34  1  0  0  0  0
 29 35  2  0  0  0  0
 35 36  1  0  0  0  0
 35 37  1  0  0  0  0
 26 38  1  0  0  0  0
 38 39  2  0  0  0  0
 39 40  1  0  0  0  0
 40 41  1  0  0  0  0
 41 42  2  0  0  0  0
 42 43  1  0  0  0  0
 43 44  2  0  0  0  0
 44 45  1  0  0  0  0
 45 46  1  0  0  0  0
 44 47  1  0  0  0  0
 47 48  2  0  0  0  0
 40 49  1  0  0  0  0
 49 50  2  0  0  0  0
 50 51  1  0  0  0  0
 51 52  2  0  0  0  0
 52 53  1  0  0  0  0
 53 54  1  0  0  0  0
 52 55  1  0  0  0  0
 55 56  2  0  0  0  0
 39 57  1  0  0  0  0
 57 58  1  0  0  0  0
 58 59  1  0  0  0  0
 59 60  2  0  0  0  0
 60 61  1  0  0  0  0
 61 62  1  0  0  0  0
 62 63  2  0  0  0  0
 63 64  1  0  0  0  0
 64 65  2  0  0  0  0
 65 66  1  0  0  0  0
 66 67  1  0  0  0  0
 65 68  1  0  0  0  0
 68 69  2  0  0  0  0
 61 70  1  0  0  0  0
 70 71  2  0  0  0  0
 71 72  1  0  0  0  0
 72 73  2  0  0  0  0
 73 74  1  0  0  0  0
 74 75  1  0  0  0  0
 73 76  1  0  0  0  0
 76 77  2  0  0  0  0
 60 78  1  0  0  0  0
 78 79  1  0  0  0  0
 59 80  1  0  0  0  0
 80 81  2  0  0  0  0
 81 82  1  0  0  0  0
 82 83  1  0  0  0  0
 83 84  2  0  0  0  0
 84 85  1  0  0  0  0
 85 86  2  0  0  0  0
 86 87  1  0  0  0  0
 87 88  1  0  0  0  0
 86 89  1  0  0  0  0
 89 90  2  0  0  0  0
 82 91  1  0  0  0  0
 91 92  2  0  0  0  0
 92 93  1  0  0  0  0
 93 94  2  0  0  0  0
 94 95  1  0  0  0  0
 95 96  1  0  0  0  0
 94 97  1  0  0  0  0
 97 98  2  0  0  0  0
 81 99  1  0  0  0  0
 99100  1  0  0  0  0
100101  1  0  0  0  0
101102  2  0  0  0  0
102103  1  0  0  0  0
103104  1  0  0  0  0
104105  2  0  0  0  0
105106  1  0  0  0  0
106107  2  0  0  0  0
107108  1  0  0  0  0
108109  1  0  0  0  0
107110  1  0  0  0  0
110111  2  0  0  0  0
103112  1  0  0  0  0
112113  2  0  0  0  0
113114  1  0  0  0  0
114115  2  0  0  0  0
115116  1  0  0  0  0
116117  1  0  0  0  0
115118  1  0  0  0  0
118119  2  0  0  0  0
102120  1  0  0  0  0
120121  1  0  0  0  0
101122  1  0  0  0  0
122123  2  0  0  0  0
123124  1  0  0  0  0
124125  2  0  0  0  0
124126  1  0  0  0  0
126127  2  0  0  0  0
127128  1  0  0  0  0
128129  2  0  0  0  0
129130  1  0  0  0  0
130131  2  0  0  0  0
131132  1  0  0  0  0
132133  2  0  0  0  0
133134  1  0  0  0  0
134135  3  0  0  0  0
133136  1  0  0  0  0
136137  3  0  0  0  0
129138  1  0  0  0  0
138139  1  0  0  0  0
139140  1  0  0  0  0
140141  2  0  0  0  0
141142  1  0  0  0  0
142143  1  0  0  0  0
142144  1  0  0  0  0
 11  2  1  0  0  0  0
 23 17  1  0  0  0  0
 36 24  2  0  0  0  0
 79 38  1  0  0  0  0
121 80  1  0  0  0  0
132123  1  0  0  0  0
144138  1  0  0  0  0
 10  5  1  0  0  0  0
 22 18  1  0  0  0  0
 36 27  1  0  0  0  0
 48 41  1  0  0  0  0
 56 49  1  0  0  0  0
 78 57  2  0  0  0  0
 90 83  1  0  0  0  0
 98 91  1  0  0  0  0
120 99  2  0  0  0  0
131126  1  0  0  0  0
143139  1  0  0  0  0
 23  7  1  0  0  0  0
 69 62  1  0  0  0  0
 77 70  1  0  0  0  0
111104  1  0  0  0  0
119112  1  0  0  0  0
144128  1  0  0  0  0
  1145  1  0  0  0  0
  6146  1  0  0  0  0
  9147  1  0  0  0  0
 17148  1  0  0  0  0
 18149  1  0  0  0  0
 19150  1  0  0  0  0
 20151  1  0  0  0  0
 21152  1  0  0  0  0
 22153  1  0  0  0  0
 22154  1  0  0  0  0
 23155  1  0  0  0  0
 33156  1  0  0  0  0
 33157  1  0  0  0  0
 34158  1  0  0  0  0
 34159  1  0  0  0  0
 34160  1  0  0  0  0
 42161  1  0  0  0  0
 43162  1  0  0  0  0
 46163  1  0  0  0  0
 46164  1  0  0  0  0
 46165  1  0  0  0  0
 47166  1  0  0  0  0
 48167  1  0  0  0  0
 50168  1  0  0  0  0
 51169  1  0  0  0  0
 54170  1  0  0  0  0
 54171  1  0  0  0  0
 54172  1  0  0  0  0
 55173  1  0  0  0  0
 56174  1  0  0  0  0
 63175  1  0  0  0  0
 64176  1  0  0  0  0
 67177  1  0  0  0  0
 67178  1  0  0  0  0
 67179  1  0  0  0  0
 68180  1  0  0  0  0
 69181  1  0  0  0  0
 71182  1  0  0  0  0
 72183  1  0  0  0  0
 75184  1  0  0  0  0
 75185  1  0  0  0  0
 75186  1  0  0  0  0
 76187  1  0  0  0  0
 77188  1  0  0  0  0
 84189  1  0  0  0  0
 85190  1  0  0  0  0
 88191  1  0  0  0  0
 88192  1  0  0  0  0
 88193  1  0  0  0  0
 89194  1  0  0  0  0
 90195  1  0  0  0  0
 92196  1  0  0  0  0
 93197  1  0  0  0  0
 96198  1  0  0  0  0
 96199  1  0  0  0  0
 96200  1  0  0  0  0
 97201  1  0  0  0  0
 98202  1  0  0  0  0
105203  1  0  0  0  0
106204  1  0  0  0  0
109205  1  0  0  0  0
109206  1  0  0  0  0
109207  1  0  0  0  0
110208  1  0  0  0  0
111209  1  0  0  0  0
113210  1  0  0  0  0
114211  1  0  0  0  0
117212  1  0  0  0  0
117213  1  0  0  0  0
117214  1  0  0  0  0
118215  1  0  0  0  0
119216  1  0  0  0  0
122217  1  0  0  0  0
127218  1  0  0  0  0
130219  1  0  0  0  0
138220  1  0  0  0  0
139221  1  0  0  0  0
140222  1  0  0  0  0
141223  1  0  0  0  0
142224  1  0  0  0  0
143225  1  0  0  0  0
143226  1  0  0  0  0
144227  1  0  0  0  0
M  END
