193

C         -5.80400        8.32880       -0.26690
C         -6.64200        8.88240        0.65420
C         -6.48970        9.05160        2.12340
O         -5.65850        8.57490        2.86940
C         -7.56790        9.96480        2.54040
C         -7.78440       10.45310        3.82860
C         -8.86740       11.29080        3.93400
C         -9.67720       11.62140        2.83790
C         -9.47800       11.14400        1.56530
C         -8.38010       10.28550        1.43630
C         -7.87210        9.57420        0.26990
C         -8.50460        9.50490       -0.94280
C         -8.10590        8.73150       -2.05580
N         -7.88720        8.12430       -3.00620
C         -9.70600       10.17790       -1.25540
N        -10.67490       10.69520       -1.58900
C        -10.57430       12.50710        3.66560
C        -10.36020       14.02930        3.52870
C        -11.01140       14.59830        4.76860
C        -10.24590       14.28550        5.80630
C         -9.06390       13.50010        5.28540
C         -8.88300       14.17160        3.91790
C         -9.67250       12.13850        4.88720
C         -4.60240        7.55150       -0.18400
C         -3.95850        7.25680       -1.40320
C         -2.82260        6.47950       -1.47330
C         -2.28490        5.95940       -0.29860
C         -1.21880        5.03230       -0.00680
C         -1.25650        4.84290        1.47710
O         -0.49070        4.22600        2.19720
N         -2.28860        5.60100        1.95380
C         -2.64270        5.70190        3.34310
C         -2.94220        6.24570        0.92180
C         -4.07300        7.02010        1.00360
C         -0.32230        4.42740       -0.84810
C          0.05140        4.93480       -2.21080
O         -0.32210        5.92860       -2.79650
N          1.00970        4.08550       -2.70170
C          1.63990        4.25670       -3.98120
C          1.25430        3.05640       -1.81740
C          2.08450        1.97420       -1.98250
C          2.15800        1.03420       -0.94790
C          1.33470        1.17600        0.17780
C          0.50440        2.26440        0.33490
C          0.47560        3.24660       -0.65050
C          3.04820       -0.09660       -1.04780
C          3.77550       -0.69460       -0.02910
N          3.92130       -0.19820        1.25170
C          4.09120       -1.10500        2.30700
C          5.01250       -0.85080        3.31830
C          5.24720       -1.78680        4.30670
C          4.56270       -2.99540        4.29760
S          4.83780       -4.30560        5.44920
C          6.04670       -3.62180        6.61740
C          3.60200       -3.23200        3.31650
C          3.36300       -2.29600        2.33620
C          3.87620        1.18430        1.48720
C          4.45390        2.07680        0.58440
C          4.28680        3.43200        0.74810
C          3.54890        3.92930        1.82150
S          3.32780        5.67500        1.88810
C          2.05790        5.89200        3.16370
C          3.03930        3.04730        2.76440
C          3.20140        1.68680        2.59530
C          4.39750       -1.88210       -0.48770
S          5.33620       -3.12530        0.25420
C          5.28540       -4.10410       -1.21240
C          4.68990       -3.40570       -2.25770
N          4.51280       -3.83280       -3.57190
C          5.58510       -4.17930       -4.38790
C          5.37530       -4.92020       -5.55490
C          6.43780       -5.27560       -6.35320
C          7.73920       -4.91480       -6.00850
S          9.01560       -5.43150       -7.11430
C         10.54640       -4.90700       -6.29230
C          7.95400       -4.18550       -4.84770
C          6.88800       -3.82110       -4.04890
C          3.19470       -3.75150       -4.05760
C          2.17440       -4.35370       -3.32200
C          0.87150       -4.26080       -3.75420
C          0.55370       -3.54630       -4.90470
S         -1.15900       -3.48290       -5.33760
C         -1.25880       -2.03600       -6.42980
C          1.56890       -2.95600       -5.64530
C          2.88090       -3.06340       -5.22540
C          4.16950       -2.16390       -1.82320
S          3.23250       -0.92590       -2.58380
C          5.47360       -5.52240       -1.05980
C          5.12640       -6.43100       -2.07630
C          4.77590       -7.73080       -1.77390
C          4.79670       -8.14400       -0.44780
C          4.26950       -9.27510        0.26210
C          4.97470       -9.27960        1.59530
O          4.97400      -10.09020        2.48410
N          5.57060       -8.03230        1.68750
C          6.24470       -7.56480        2.86810
C          5.45970       -7.33460        0.50350
C          5.77740       -6.02960        0.22030
C          3.03820       -9.84560        0.09080
C          2.49280      -10.97640        0.90140
O          3.07390      -11.85700        1.48410
N          1.11240      -10.89130        0.80220
C          0.21800      -11.78590        1.48320
C          0.74200       -9.85240       -0.01870
C         -0.51970       -9.33960       -0.24240
C         -0.63900       -8.18420       -1.02690
C          0.49290       -7.66780       -1.66890
C          1.74740       -8.19350       -1.45830
C          1.90140       -9.26170       -0.58410
C         -1.91190       -7.52130       -1.18940
C         -2.05270       -6.17240       -1.21760
C         -1.01090       -5.18370       -0.82170
O         -0.01330       -5.37100       -0.16820
C         -1.50190       -3.88090       -1.33600
C         -0.81210       -2.68490       -1.43600
Cl         0.73560       -2.49780       -0.75190
C         -1.39850       -1.63580       -2.15210
Cl        -0.56240       -0.14970       -2.33030
C         -2.63780       -1.82060       -2.76460
Cl        -3.29700       -0.55350       -3.70150
C         -3.34420       -3.02780       -2.64550
Cl        -4.77670       -3.22900       -3.56050
C         -2.79070       -4.04790       -1.88000
C         -3.24230       -5.40440       -1.58010
C         -4.53490       -5.83470       -1.48130
C         -5.67880       -5.00500       -1.50330
N         -6.65150       -4.40590       -1.40130
C         -4.90510       -7.16180       -1.16550
N         -5.27910       -8.21960       -0.92500
H         -6.09540        8.50250       -1.29690
H         -7.13740       10.16870        4.64370
H        -10.11120       11.40790        0.73530
H        -11.62530       12.22570        3.68900
H        -10.67100       14.44880        2.57590
H        -11.95890       15.10430        4.77000
H        -10.42610       14.47810        6.84760
H         -8.19340       13.43850        5.93300
H         -8.19650       13.64930        3.25400
H         -8.58000       15.21340        4.00830
H        -10.12240       11.61160        5.72660
H         -4.37320        7.65370       -2.31800
H         -2.35350        6.29290       -2.42340
H         -1.90450        5.14020        3.91440
H         -2.63870        6.74560        3.66080
H         -3.63510        5.28130        3.51820
H         -4.54530        7.21290        1.95010
H          1.24890        5.17590       -4.41630
H          1.41180        3.41600       -4.64030
H          2.72200        4.34100       -3.86520
H          2.68220        1.84680       -2.87210
H          1.33170        0.39680        0.92340
H         -0.10620        2.34990        1.21650
H          5.56140        0.07930        3.31550
H          5.98070       -1.56720        5.06540
H          6.98010       -3.40550        6.10590
H          6.20520       -4.39800        7.35960
H          5.64030       -2.73410        7.09320
H          3.05020       -4.15930        3.32880
H          2.61430       -2.48760        1.58190
H          5.01590        1.69950       -0.25700
H          4.71620        4.12510        0.04100
H          1.76230        6.93540        3.10940
H          2.47290        5.67880        4.14490
H          1.21180        5.24760        2.93860
H          2.48830        3.40360        3.61830
H          2.77580        1.00300        3.31500
H          4.37450       -5.22240       -5.82520
H          6.27340       -5.84820       -7.25300
H         10.61790       -5.37050       -5.31270
H         11.35320       -5.25980       -6.92710
H         10.58130       -3.82360       -6.22200
H          8.94640       -3.88540       -4.55280
H          7.07000       -3.24720       -3.15280
H          2.41010       -4.89030       -2.41420
H          0.07530       -4.74040       -3.20690
H         -2.31790       -1.82870       -6.54650
H         -0.82050       -2.26050       -7.39770
H         -0.76390       -1.19450       -5.95490
H          1.34960       -2.40920       -6.54820
H          3.67020       -2.60110       -5.79900
H          5.06580       -6.10560       -3.09900
H          4.48810       -8.41460       -2.55830
H          5.73950       -6.68630        3.27630
H          7.28360       -7.31400        2.64480
H          6.21380       -8.37030        3.60070
H          6.16830       -5.37470        0.98340
H          0.83260      -12.51800        2.00620
H         -0.43170      -12.29790        0.77060
H         -0.39520      -11.24470        2.20710
H         -1.38980       -9.76330        0.23450
H          0.37660       -6.84900       -2.36060
H          2.58880       -7.74970       -1.95720
H         -2.78020       -8.15380       -1.32050
