
  xtb     02052208263D
 energy: -327.165830830683 gnorm: 0.000659966241 xtb: 6.4.1 (unknown)
193210  0     0  0            999 V2000
   -4.4430   -4.5831   -3.8644 C   0  0  0  0  0  0  0  0  0  0  0  0
   -4.1056   -5.1510   -5.0424 C   0  0  0  0  0  0  0  0  0  0  0  0
   -5.1314   -5.5097   -6.0613 C   0  0  0  0  0  0  0  0  0  0  0  0
   -6.3212   -5.6234   -5.8896 O   0  0  0  0  0  0  0  0  0  0  0  0
   -4.3848   -5.5955   -7.3337 C   0  0  0  0  0  0  0  0  0  0  0  0
   -4.9158   -5.7695   -8.6105 C   0  0  0  0  0  0  0  0  0  0  0  0
   -3.9771   -5.7617   -9.6145 C   0  0  0  0  0  0  0  0  0  0  0  0
   -2.6059   -5.5915   -9.3747 C   0  0  0  0  0  0  0  0  0  0  0  0
   -2.0650   -5.4284   -8.1226 C   0  0  0  0  0  0  0  0  0  0  0  0
   -3.0042   -5.4343   -7.0868 C   0  0  0  0  0  0  0  0  0  0  0  0
   -2.8005   -5.3094   -5.6518 C   0  0  0  0  0  0  0  0  0  0  0  0
   -1.6206   -5.4687   -4.9771 C   0  0  0  0  0  0  0  0  0  0  0  0
   -0.3574   -5.6003   -5.5821 C   0  0  0  0  0  0  0  0  0  0  0  0
    0.7109   -5.6939   -5.9943 N   0  0  0  0  0  0  0  0  0  0  0  0
   -1.5458   -5.6204   -3.5800 C   0  0  0  0  0  0  0  0  0  0  0  0
   -1.4187   -5.8094   -2.4545 N   0  0  0  0  0  0  0  0  0  0  0  0
   -2.2588   -5.6624  -10.8407 C   0  0  0  0  0  0  0  0  0  0  0  0
   -1.9561   -4.3204  -11.5410 C   0  0  0  0  0  0  0  0  0  0  0  0
   -2.1285   -4.6321  -13.0101 C   0  0  0  0  0  0  0  0  0  0  0  0
   -3.4252   -4.7969  -13.2379 C   0  0  0  0  0  0  0  0  0  0  0  0
   -4.1511   -4.5987  -11.9267 C   0  0  0  0  0  0  0  0  0  0  0  0
   -3.2497   -3.5365  -11.2841 C   0  0  0  0  0  0  0  0  0  0  0  0
   -3.7860   -5.8555  -11.1080 C   0  0  0  0  0  0  0  0  0  0  0  0
   -3.5787   -3.7479   -3.0451 C   0  0  0  0  0  0  0  0  0  0  0  0
   -2.8651   -2.6752   -3.5905 C   0  0  0  0  0  0  0  0  0  0  0  0
   -3.0690   -2.2733   -5.3127 S   0  0  0  0  0  0  0  0  0  0  0  0
   -3.7353   -0.5754   -5.1578 C   0  0  0  0  0  0  0  0  0  0  0  0
   -5.0584   -0.5619   -4.4212 C   0  0  0  0  0  0  0  0  0  0  0  0
   -2.0559   -1.8904   -2.7634 C   0  0  0  0  0  0  0  0  0  0  0  0
   -0.8319   -0.7865   -3.4148 S   0  0  0  0  0  0  0  0  0  0  0  0
    0.1064   -1.9398   -4.4966 C   0  0  0  0  0  0  0  0  0  0  0  0
    1.3709   -1.2517   -4.9637 C   0  0  0  0  0  0  0  0  0  0  0  0
   -2.1698   -1.9853   -1.3694 C   0  0  0  0  0  0  0  0  0  0  0  0
   -2.8877   -3.0503   -0.8190 C   0  0  0  0  0  0  0  0  0  0  0  0
   -3.4948   -3.9833   -1.6651 C   0  0  0  0  0  0  0  0  0  0  0  0
   -3.9896   -5.2944   -1.2064 C   0  0  0  0  0  0  0  0  0  0  0  0
   -4.5265   -6.0726   -1.9757 O   0  0  0  0  0  0  0  0  0  0  0  0
   -3.6939   -5.5844    0.1925 C   0  0  0  0  0  0  0  0  0  0  0  0
   -3.2281   -4.5718    1.0858 C   0  0  0  0  0  0  0  0  0  0  0  0
   -3.0478   -3.1844    0.6532 C   0  0  0  0  0  0  0  0  0  0  0  0
   -3.0812   -2.2333    1.4051 O   0  0  0  0  0  0  0  0  0  0  0  0
   -3.0173   -5.0537    2.3451 C   0  0  0  0  0  0  0  0  0  0  0  0
   -3.3469   -6.7316    2.4549 S   0  0  0  0  0  0  0  0  0  0  0  0
   -3.8168   -6.7976    0.8099 C   0  0  0  0  0  0  0  0  0  0  0  0
   -1.5029   -1.0073   -0.5174 C   0  0  0  0  0  0  0  0  0  0  0  0
   -0.5515   -1.2506    0.4423 C   0  0  0  0  0  0  0  0  0  0  0  0
    0.0029   -2.5219    0.6431 N   0  0  0  0  0  0  0  0  0  0  0  0
    0.8436   -2.9527   -0.4129 C   0  0  0  0  0  0  0  0  0  0  0  0
    1.8166   -2.0800   -0.9012 C   0  0  0  0  0  0  0  0  0  0  0  0
    2.6552   -2.4760   -1.9172 C   0  0  0  0  0  0  0  0  0  0  0  0
    2.5318   -3.7453   -2.4816 C   0  0  0  0  0  0  0  0  0  0  0  0
    3.6698   -4.1307   -3.7725 S   0  0  0  0  0  0  0  0  0  0  0  0
    3.3888   -5.8878   -4.1166 C   0  0  0  0  0  0  0  0  0  0  0  0
    1.5469   -4.6055   -2.0145 C   0  0  0  0  0  0  0  0  0  0  0  0
    0.7101   -4.2106   -0.9846 C   0  0  0  0  0  0  0  0  0  0  0  0
    0.0510   -3.0804    1.9123 C   0  0  0  0  0  0  0  0  0  0  0  0
    0.8102   -4.2244    2.1740 C   0  0  0  0  0  0  0  0  0  0  0  0
    0.8109   -4.7930    3.4277 C   0  0  0  0  0  0  0  0  0  0  0  0
    0.0669   -4.2357    4.4642 C   0  0  0  0  0  0  0  0  0  0  0  0
    0.1161   -5.0718    6.0238 S   0  0  0  0  0  0  0  0  0  0  0  0
   -0.6332   -3.8785    7.1697 C   0  0  0  0  0  0  0  0  0  0  0  0
   -0.6777   -3.0918    4.2178 C   0  0  0  0  0  0  0  0  0  0  0  0
   -0.6839   -2.5215    2.9598 C   0  0  0  0  0  0  0  0  0  0  0  0
   -0.1711   -0.0567    1.0982 C   0  0  0  0  0  0  0  0  0  0  0  0
    0.9885    0.3257    2.3183 S   0  0  0  0  0  0  0  0  0  0  0  0
    0.5331    2.0074    2.2321 C   0  0  0  0  0  0  0  0  0  0  0  0
   -0.4351    2.2600    1.2868 C   0  0  0  0  0  0  0  0  0  0  0  0
   -0.8982    3.5404    0.9970 N   0  0  0  0  0  0  0  0  0  0  0  0
    0.0609    4.5616    0.9245 C   0  0  0  0  0  0  0  0  0  0  0  0
    1.2054    4.3756    0.1546 C   0  0  0  0  0  0  0  0  0  0  0  0
    2.2189    5.3142    0.1563 C   0  0  0  0  0  0  0  0  0  0  0  0
    2.0959    6.4623    0.9262 C   0  0  0  0  0  0  0  0  0  0  0  0
    3.3686    7.6774    1.0881 S   0  0  0  0  0  0  0  0  0  0  0  0
    4.4654    7.3382   -0.3179 C   0  0  0  0  0  0  0  0  0  0  0  0
    0.9250    6.6805    1.6501 C   0  0  0  0  0  0  0  0  0  0  0  0
   -0.0865    5.7464    1.6454 C   0  0  0  0  0  0  0  0  0  0  0  0
   -2.2567    3.7917    0.8236 C   0  0  0  0  0  0  0  0  0  0  0  0
   -2.6756    4.8801    0.0616 C   0  0  0  0  0  0  0  0  0  0  0  0
   -4.0193    5.1355   -0.1292 C   0  0  0  0  0  0  0  0  0  0  0  0
   -4.9730    4.2957    0.4283 C   0  0  0  0  0  0  0  0  0  0  0  0
   -6.7175    4.5119    0.2441 S   0  0  0  0  0  0  0  0  0  0  0  0
   -6.8684    5.9658   -0.8330 C   0  0  0  0  0  0  0  0  0  0  0  0
   -4.5590    3.2062    1.1914 C   0  0  0  0  0  0  0  0  0  0  0  0
   -3.2206    2.9580    1.3938 C   0  0  0  0  0  0  0  0  0  0  0  0
   -0.8359    1.0666    0.6363 C   0  0  0  0  0  0  0  0  0  0  0  0
   -1.9381    0.6800   -0.6341 S   0  0  0  0  0  0  0  0  0  0  0  0
    1.1037    3.0325    3.1085 C   0  0  0  0  0  0  0  0  0  0  0  0
    0.2894    3.5489    4.1253 C   0  0  0  0  0  0  0  0  0  0  0  0
   -1.2768    2.7634    4.4622 S   0  0  0  0  0  0  0  0  0  0  0  0
   -0.6716    1.2846    5.3526 C   0  0  0  0  0  0  0  0  0  0  0  0
   -0.0115    1.6425    6.6676 C   0  0  0  0  0  0  0  0  0  0  0  0
    0.6995    4.6214    4.9061 C   0  0  0  0  0  0  0  0  0  0  0  0
   -0.3147    5.2797    6.2032 S   0  0  0  0  0  0  0  0  0  0  0  0
   -1.7598    5.9178    5.2697 C   0  0  0  0  0  0  0  0  0  0  0  0
   -1.5116    7.3371    4.7997 C   0  0  0  0  0  0  0  0  0  0  0  0
    1.9891    5.1351    4.7358 C   0  0  0  0  0  0  0  0  0  0  0  0
    2.8171    4.6072    3.7425 C   0  0  0  0  0  0  0  0  0  0  0  0
    2.3916    3.5493    2.9214 C   0  0  0  0  0  0  0  0  0  0  0  0
    3.2648    3.0128    1.8550 C   0  0  0  0  0  0  0  0  0  0  0  0
    2.9468    2.1006    1.1133 O   0  0  0  0  0  0  0  0  0  0  0  0
    4.5710    3.6734    1.7434 C   0  0  0  0  0  0  0  0  0  0  0  0
    4.9853    4.7485    2.5850 C   0  0  0  0  0  0  0  0  0  0  0  0
    4.1227    5.2635    3.6350 C   0  0  0  0  0  0  0  0  0  0  0  0
    4.4223    6.1889    4.3784 O   0  0  0  0  0  0  0  0  0  0  0  0
    6.2374    5.2013    2.2720 C   0  0  0  0  0  0  0  0  0  0  0  0
    6.9266    4.3311    0.9679 S   0  0  0  0  0  0  0  0  0  0  0  0
    5.5285    3.3479    0.8250 C   0  0  0  0  0  0  0  0  0  0  0  0
    2.4745    6.2541    5.5412 C   0  0  0  0  0  0  0  0  0  0  0  0
    2.8069    6.1401    6.8563 C   0  0  0  0  0  0  0  0  0  0  0  0
    2.8128    4.7896    7.4502 C   0  0  0  0  0  0  0  0  0  0  0  0
    2.6662    3.7788    6.7826 O   0  0  0  0  0  0  0  0  0  0  0  0
    2.9654    4.7142    8.8121 N   0  0  0  0  0  0  0  0  0  0  0  0
    2.8911    3.3926    9.4261 C   0  0  0  0  0  0  0  0  0  0  0  0
    4.2530    2.7107    9.4320 C   0  0  0  0  0  0  0  0  0  0  0  0
    3.2515    5.7844    9.6534 C   0  0  0  0  0  0  0  0  0  0  0  0
    3.3784    5.6178   10.8468 O   0  0  0  0  0  0  0  0  0  0  0  0
    3.3991    7.0864    8.9917 C   0  0  0  0  0  0  0  0  0  0  0  0
    3.1902    7.2683    7.6588 C   0  0  0  0  0  0  0  0  0  0  0  0
    3.3626    8.6041    7.0152 C   0  0  0  0  0  0  0  0  0  0  0  0
    3.7760    8.1581    9.8308 C   0  0  0  0  0  0  0  0  0  0  0  0
    4.0859    9.0352   10.5013 N   0  0  0  0  0  0  0  0  0  0  0  0
   -5.4956   -4.5954   -3.6040 H   0  0  0  0  0  0  0  0  0  0  0  0
   -5.9767   -5.8980   -8.7572 H   0  0  0  0  0  0  0  0  0  0  0  0
   -1.0106   -5.2934   -7.9436 H   0  0  0  0  0  0  0  0  0  0  0  0
   -1.5736   -6.4571  -11.1291 H   0  0  0  0  0  0  0  0  0  0  0  0
   -1.0200   -3.8542  -11.2457 H   0  0  0  0  0  0  0  0  0  0  0  0
   -1.3121   -4.7513  -13.6979 H   0  0  0  0  0  0  0  0  0  0  0  0
   -3.9083   -5.0815  -14.1541 H   0  0  0  0  0  0  0  0  0  0  0  0
   -5.2151   -4.3857  -11.9839 H   0  0  0  0  0  0  0  0  0  0  0  0
   -3.4572   -3.3549  -10.2311 H   0  0  0  0  0  0  0  0  0  0  0  0
   -3.2737   -2.5936  -11.8280 H   0  0  0  0  0  0  0  0  0  0  0  0
   -4.1206   -6.7801  -11.5742 H   0  0  0  0  0  0  0  0  0  0  0  0
   -3.8499   -0.2521   -6.1919 H   0  0  0  0  0  0  0  0  0  0  0  0
   -2.9879    0.0438   -4.6637 H   0  0  0  0  0  0  0  0  0  0  0  0
   -5.4659    0.4468   -4.4242 H   0  0  0  0  0  0  0  0  0  0  0  0
   -5.7726   -1.2291   -4.9000 H   0  0  0  0  0  0  0  0  0  0  0  0
   -4.9280   -0.8741   -3.3862 H   0  0  0  0  0  0  0  0  0  0  0  0
   -0.5223   -2.2208   -5.3399 H   0  0  0  0  0  0  0  0  0  0  0  0
    0.3298   -2.8157   -3.8871 H   0  0  0  0  0  0  0  0  0  0  0  0
    1.9551   -0.9121   -4.1123 H   0  0  0  0  0  0  0  0  0  0  0  0
    1.1315   -0.3945   -5.5888 H   0  0  0  0  0  0  0  0  0  0  0  0
    1.9713   -1.9535   -5.5377 H   0  0  0  0  0  0  0  0  0  0  0  0
   -2.6530   -4.5116    3.1950 H   0  0  0  0  0  0  0  0  0  0  0  0
   -4.1476   -7.7172    0.3691 H   0  0  0  0  0  0  0  0  0  0  0  0
    1.9267   -1.0981   -0.4654 H   0  0  0  0  0  0  0  0  0  0  0  0
    3.4289   -1.8156   -2.2783 H   0  0  0  0  0  0  0  0  0  0  0  0
    4.1875   -6.1818   -4.7906 H   0  0  0  0  0  0  0  0  0  0  0  0
    2.4288   -6.0210   -4.6083 H   0  0  0  0  0  0  0  0  0  0  0  0
    3.4534   -6.4571   -3.1942 H   0  0  0  0  0  0  0  0  0  0  0  0
    1.4094   -5.5837   -2.4469 H   0  0  0  0  0  0  0  0  0  0  0  0
   -0.0572   -4.8840   -0.6352 H   0  0  0  0  0  0  0  0  0  0  0  0
    1.4108   -4.6640    1.3934 H   0  0  0  0  0  0  0  0  0  0  0  0
    1.3965   -5.6789    3.6198 H   0  0  0  0  0  0  0  0  0  0  0  0
   -0.4881   -4.2937    8.1621 H   0  0  0  0  0  0  0  0  0  0  0  0
   -1.6959   -3.7758    6.9682 H   0  0  0  0  0  0  0  0  0  0  0  0
   -0.1222   -2.9238    7.0880 H   0  0  0  0  0  0  0  0  0  0  0  0
   -1.2668   -2.6304    4.9947 H   0  0  0  0  0  0  0  0  0  0  0  0
   -1.2951   -1.6507    2.7894 H   0  0  0  0  0  0  0  0  0  0  0  0
    1.3106    3.4743   -0.4300 H   0  0  0  0  0  0  0  0  0  0  0  0
    3.0966    5.1364   -0.4443 H   0  0  0  0  0  0  0  0  0  0  0  0
    5.1644    8.1679   -0.3510 H   0  0  0  0  0  0  0  0  0  0  0  0
    3.8827    7.3066   -1.2334 H   0  0  0  0  0  0  0  0  0  0  0  0
    5.0069    6.4093   -0.1638 H   0  0  0  0  0  0  0  0  0  0  0  0
    0.8290    7.5935    2.2184 H   0  0  0  0  0  0  0  0  0  0  0  0
   -0.9938    5.9139    2.2055 H   0  0  0  0  0  0  0  0  0  0  0  0
   -1.9415    5.5300   -0.3917 H   0  0  0  0  0  0  0  0  0  0  0  0
   -4.3038    5.9886   -0.7239 H   0  0  0  0  0  0  0  0  0  0  0  0
   -7.9339    6.1070   -0.9849 H   0  0  0  0  0  0  0  0  0  0  0  0
   -6.3824    5.7743   -1.7853 H   0  0  0  0  0  0  0  0  0  0  0  0
   -6.4480    6.8394   -0.3430 H   0  0  0  0  0  0  0  0  0  0  0  0
   -5.3026    2.5597    1.6309 H   0  0  0  0  0  0  0  0  0  0  0  0
   -2.9186    2.1248    2.0080 H   0  0  0  0  0  0  0  0  0  0  0  0
    0.0068    0.7434    4.6940 H   0  0  0  0  0  0  0  0  0  0  0  0
   -1.5758    0.6947    5.5047 H   0  0  0  0  0  0  0  0  0  0  0  0
   -0.6934    2.2120    7.2959 H   0  0  0  0  0  0  0  0  0  0  0  0
    0.2680    0.7298    7.1913 H   0  0  0  0  0  0  0  0  0  0  0  0
    0.8879    2.2349    6.5061 H   0  0  0  0  0  0  0  0  0  0  0  0
   -2.5892    5.8746    5.9736 H   0  0  0  0  0  0  0  0  0  0  0  0
   -1.9583    5.2363    4.4454 H   0  0  0  0  0  0  0  0  0  0  0  0
   -1.3445    7.9942    5.6501 H   0  0  0  0  0  0  0  0  0  0  0  0
   -0.6385    7.3807    4.1522 H   0  0  0  0  0  0  0  0  0  0  0  0
   -2.3758    7.6985    4.2455 H   0  0  0  0  0  0  0  0  0  0  0  0
    6.7754    5.9990    2.7447 H   0  0  0  0  0  0  0  0  0  0  0  0
    5.4749    2.5793    0.0793 H   0  0  0  0  0  0  0  0  0  0  0  0
    2.4046    7.2288    5.0780 H   0  0  0  0  0  0  0  0  0  0  0  0
    2.5318    3.5329   10.4470 H   0  0  0  0  0  0  0  0  0  0  0  0
    2.1722    2.8063    8.8509 H   0  0  0  0  0  0  0  0  0  0  0  0
    4.6153    2.5889    8.4137 H   0  0  0  0  0  0  0  0  0  0  0  0
    4.1704    1.7312    9.8946 H   0  0  0  0  0  0  0  0  0  0  0  0
    4.9670    3.3052    9.9973 H   0  0  0  0  0  0  0  0  0  0  0  0
    4.0362    8.5173    6.1638 H   0  0  0  0  0  0  0  0  0  0  0  0
    2.4035    8.9769    6.6559 H   0  0  0  0  0  0  0  0  0  0  0  0
    3.7681    9.3228    7.7226 H   0  0  0  0  0  0  0  0  0  0  0  0
  1  2  2  0  0  0  0
  2  3  1  0  0  0  0
  3  4  2  0  0  0  0
  3  5  1  0  0  0  0
  5  6  2  0  0  0  0
  6  7  1  0  0  0  0
  7  8  2  0  0  0  0
  8  9  1  0  0  0  0
  9 10  2  0  0  0  0
 10 11  1  0  0  0  0
 11 12  2  0  0  0  0
 12 13  1  0  0  0  0
 13 14  3  0  0  0  0
 12 15  1  0  0  0  0
 15 16  3  0  0  0  0
  8 17  1  0  0  0  0
 17 18  1  0  0  0  0
 18 19  1  0  0  0  0
 19 20  2  0  0  0  0
 20 21  1  0  0  0  0
 21 22  1  0  0  0  0
 21 23  1  0  0  0  0
  1 24  1  0  0  0  0
 24 25  2  0  0  0  0
 25 26  1  0  0  0  0
 26 27  1  0  0  0  0
 27 28  1  0  0  0  0
 25 29  1  0  0  0  0
 29 30  1  0  0  0  0
 30 31  1  0  0  0  0
 31 32  1  0  0  0  0
 29 33  2  0  0  0  0
 33 34  1  0  0  0  0
 34 35  2  0  0  0  0
 35 36  1  0  0  0  0
 36 37  2  0  0  0  0
 36 38  1  0  0  0  0
 38 39  1  0  0  0  0
 39 40  1  0  0  0  0
 40 41  2  0  0  0  0
 39 42  2  0  0  0  0
 42 43  1  0  0  0  0
 43 44  1  0  0  0  0
 33 45  1  0  0  0  0
 45 46  2  0  0  0  0
 46 47  1  0  0  0  0
 47 48  1  0  0  0  0
 48 49  2  0  0  0  0
 49 50  1  0  0  0  0
 50 51  2  0  0  0  0
 51 52  1  0  0  0  0
 52 53  1  0  0  0  0
 51 54  1  0  0  0  0
 54 55  2  0  0  0  0
 47 56  1  0  0  0  0
 56 57  2  0  0  0  0
 57 58  1  0  0  0  0
 58 59  2  0  0  0  0
 59 60  1  0  0  0  0
 60 61  1  0  0  0  0
 59 62  1  0  0  0  0
 62 63  2  0  0  0  0
 46 64  1  0  0  0  0
 64 65  1  0  0  0  0
 65 66  1  0  0  0  0
 66 67  2  0  0  0  0
 67 68  1  0  0  0  0
 68 69  1  0  0  0  0
 69 70  2  0  0  0  0
 70 71  1  0  0  0  0
 71 72  2  0  0  0  0
 72 73  1  0  0  0  0
 73 74  1  0  0  0  0
 72 75  1  0  0  0  0
 75 76  2  0  0  0  0
 68 77  1  0  0  0  0
 77 78  2  0  0  0  0
 78 79  1  0  0  0  0
 79 80  2  0  0  0  0
 80 81  1  0  0  0  0
 81 82  1  0  0  0  0
 80 83  1  0  0  0  0
 83 84  2  0  0  0  0
 67 85  1  0  0  0  0
 85 86  1  0  0  0  0
 66 87  1  0  0  0  0
 87 88  2  0  0  0  0
 88 89  1  0  0  0  0
 89 90  1  0  0  0  0
 90 91  1  0  0  0  0
 88 92  1  0  0  0  0
 92 93  1  0  0  0  0
 93 94  1  0  0  0  0
 94 95  1  0  0  0  0
 92 96  2  0  0  0  0
 96 97  1  0  0  0  0
 97 98  2  0  0  0  0
 98 99  1  0  0  0  0
 99100  2  0  0  0  0
 99101  1  0  0  0  0
101102  1  0  0  0  0
102103  1  0  0  0  0
103104  2  0  0  0  0
102105  2  0  0  0  0
105106  1  0  0  0  0
106107  1  0  0  0  0
 96108  1  0  0  0  0
108109  2  0  0  0  0
109110  1  0  0  0  0
110111  2  0  0  0  0
110112  1  0  0  0  0
112113  1  0  0  0  0
113114  1  0  0  0  0
112115  1  0  0  0  0
115116  2  0  0  0  0
115117  1  0  0  0  0
117118  2  0  0  0  0
118119  1  0  0  0  0
117120  1  0  0  0  0
120121  3  0  0  0  0
 11  2  1  0  0  0  0
 23 17  1  0  0  0  0
 35 24  1  0  0  0  0
 44 38  2  0  0  0  0
 86 45  1  0  0  0  0
 98 87  1  0  0  0  0
107101  2  0  0  0  0
118109  1  0  0  0  0
 10  5  1  0  0  0  0
 22 18  1  0  0  0  0
 40 34  1  0  0  0  0
 55 48  1  0  0  0  0
 63 56  1  0  0  0  0
 85 64  2  0  0  0  0
103 97  1  0  0  0  0
 23  7  1  0  0  0  0
 76 69  1  0  0  0  0
 84 77  1  0  0  0  0
  1122  1  0  0  0  0
  6123  1  0  0  0  0
  9124  1  0  0  0  0
 17125  1  0  0  0  0
 18126  1  0  0  0  0
 19127  1  0  0  0  0
 20128  1  0  0  0  0
 21129  1  0  0  0  0
 22130  1  0  0  0  0
 22131  1  0  0  0  0
 23132  1  0  0  0  0
 27133  1  0  0  0  0
 27134  1  0  0  0  0
 28135  1  0  0  0  0
 28136  1  0  0  0  0
 28137  1  0  0  0  0
 31138  1  0  0  0  0
 31139  1  0  0  0  0
 32140  1  0  0  0  0
 32141  1  0  0  0  0
 32142  1  0  0  0  0
 42143  1  0  0  0  0
 44144  1  0  0  0  0
 49145  1  0  0  0  0
 50146  1  0  0  0  0
 53147  1  0  0  0  0
 53148  1  0  0  0  0
 53149  1  0  0  0  0
 54150  1  0  0  0  0
 55151  1  0  0  0  0
 57152  1  0  0  0  0
 58153  1  0  0  0  0
 61154  1  0  0  0  0
 61155  1  0  0  0  0
 61156  1  0  0  0  0
 62157  1  0  0  0  0
 63158  1  0  0  0  0
 70159  1  0  0  0  0
 71160  1  0  0  0  0
 74161  1  0  0  0  0
 74162  1  0  0  0  0
 74163  1  0  0  0  0
 75164  1  0  0  0  0
 76165  1  0  0  0  0
 78166  1  0  0  0  0
 79167  1  0  0  0  0
 82168  1  0  0  0  0
 82169  1  0  0  0  0
 82170  1  0  0  0  0
 83171  1  0  0  0  0
 84172  1  0  0  0  0
 90173  1  0  0  0  0
 90174  1  0  0  0  0
 91175  1  0  0  0  0
 91176  1  0  0  0  0
 91177  1  0  0  0  0
 94178  1  0  0  0  0
 94179  1  0  0  0  0
 95180  1  0  0  0  0
 95181  1  0  0  0  0
 95182  1  0  0  0  0
105183  1  0  0  0  0
107184  1  0  0  0  0
108185  1  0  0  0  0
113186  1  0  0  0  0
113187  1  0  0  0  0
114188  1  0  0  0  0
114189  1  0  0  0  0
114190  1  0  0  0  0
119191  1  0  0  0  0
119192  1  0  0  0  0
119193  1  0  0  0  0
M  END
