224

C         -1.95090        3.76010       -9.87790
C         -2.37190        3.28810      -11.08850
C         -2.92300        1.94870      -11.35440
O         -3.05970        1.03200      -10.56640
C         -3.29260        1.93000      -12.77860
C         -3.87030        0.87230      -13.47710
C         -4.11740        1.14580      -14.80050
C         -3.80590        2.37990      -15.38760
C         -3.23120        3.42900      -14.71070
C         -2.97660        3.17490      -13.35960
C         -2.39380        4.03670      -12.33310
C         -1.94630        5.31690      -12.53630
C         -1.37650        6.16240      -11.56120
N         -0.90060        6.91990      -10.84000
C         -1.98720        5.99200      -13.77470
N         -1.98280        6.60830      -14.74360
C         -4.33410        1.96150      -16.73680
C         -5.72070        2.50110      -17.16660
C         -6.48420        2.78140      -15.89600
C         -6.78180        1.61590      -15.33720
C         -6.22570        0.52630      -16.22050
C         -6.38850        1.18600      -17.59920
C         -4.68400        0.58810      -16.08170
C         -1.88970        3.13500       -8.61500
C         -1.48330        3.83000       -7.49040
C         -1.48460        3.06940       -6.31160
C         -1.16900        3.48990       -5.00200
C         -0.85490        4.89110       -4.69720
C         -1.70180        5.91580       -5.11840
C         -1.40660        7.22720       -4.80060
C         -0.27370        7.54410       -4.07100
C          0.58210        6.53080       -3.66100
S          2.04700        6.79190       -2.70700
C          2.47000        8.54780       -2.98530
C          2.87330        8.82150       -4.42120
C          0.28460        5.20890       -3.97150
C         -1.19500        2.51660       -4.02230
C         -1.55060        1.16520       -4.27600
C         -1.92830        0.76570       -5.56560
C         -2.44560       -0.58550       -5.82990
C         -3.55420       -1.04390       -5.12320
C         -4.10030       -2.27880       -5.41730
C         -3.53690       -3.07220       -6.39780
C         -2.40320       -2.63770       -7.07470
S         -1.66150       -3.77780       -8.21390
C         -0.98700       -2.71560       -9.53550
C         -2.07770       -1.96660      -10.27120
C         -1.86380       -1.39140       -6.79990
C         -1.86430        1.72350       -6.56580
S         -2.27780        1.46620       -8.23860
C         -1.46740        0.36080       -3.11240
C         -1.11150        1.05530       -1.99530
S         -0.86010        2.76530       -2.32980
C         -0.87080        0.62500       -0.65250
C         -0.24040       -0.51310       -0.17510
N          0.23970       -1.58250       -0.92420
C         -0.60240       -2.38250       -1.70220
C         -1.96220       -2.50950       -1.41220
C         -2.75020       -3.36500       -2.15020
C         -2.20490       -4.11490       -3.19070
S         -3.28140       -5.26270       -3.98560
C         -2.21530       -6.12230       -5.17430
C         -0.86540       -3.94940       -3.51820
C         -0.07480       -3.09230       -2.77910
C          1.49590       -2.07880       -0.52670
C          2.54700       -1.18450       -0.32050
C          3.75710       -1.63280        0.15810
C          3.94820       -2.98500        0.43490
S          5.52620       -3.44850        1.07710
C          5.24470       -5.11980        1.72990
C          2.91740       -3.88340        0.19390
C          1.70050       -3.43240       -0.27790
C         -0.02830       -0.41650        1.22460
S          0.76130       -1.41130        2.39260
C          0.41070       -0.24750        3.67610
C         -0.29230        0.85070        3.20130
N         -0.84670        1.89190        3.92980
C         -0.12390        2.65570        4.85180
C         -0.75050        3.08660        6.01910
C         -0.07310        3.86120        6.93530
C          1.24830        4.21800        6.69870
S          2.17530        5.24450        7.79100
C          1.19530        5.24860        9.31950
C          1.88140        3.79080        5.53500
C          1.20230        3.01850        4.61580
C         -2.16470        2.25920        3.61720
C         -3.11240        1.28320        3.32040
C         -4.40900        1.63020        2.99440
C         -4.78430        2.96590        2.97000
S         -6.40840        3.53640        2.58100
C         -7.31710        2.02280        2.15720
C         -3.84080        3.94630        3.27500
C         -2.54690        3.60100        3.59000
C         -0.52240        0.73560        1.80480
S         -1.26070        1.76380        0.63060
C          0.90840       -0.61880        4.96260
C          1.11280       -1.91280        5.36220
C          1.73680       -2.03990        6.62350
C          2.07990       -3.21000        7.32150
C          1.92770       -4.54550        6.72990
C          2.36760       -4.79900        5.43270
C          2.26410       -6.07500        4.90620
C          1.76070       -7.11120        5.66710
C          1.33780       -6.86910        6.97160
S          0.73420       -8.24420        7.89580
C          0.88810       -7.68870        9.63650
C          0.81760       -8.90060       10.54660
C          1.39600       -5.58440        7.48770
C          2.63660       -3.04180        8.58270
C          2.95020       -1.76630        9.12730
C          2.65340       -0.59420        8.40220
C          3.08280        0.73470        8.86030
C          2.74310        1.23470       10.11510
C          3.21990        2.47050       10.51180
C          4.04510        3.21660        9.68720
C          4.38860        2.72320        8.43590
S          5.43710        3.55050        7.28270
C          6.34930        4.78950        8.27160
C          5.67450        6.14760        8.29070
C          3.89240        1.49190        8.02480
C          2.02090       -0.76910        7.18810
S          1.47420        0.52910        6.16090
C          3.60450       -1.87760       10.36540
C          3.76830       -3.17760       10.80070
S          3.11830       -4.32970        9.65220
C          4.38800       -3.50070       12.02590
C          4.58880       -4.70780       12.62340
S          5.41910       -4.80590       14.17170
C          5.23970       -6.54370       14.21120
C          5.72280       -7.26450       15.27450
C          5.65270       -8.65690       15.44820
N          5.63340       -9.78710       15.65260
C          6.36620       -6.58700       16.33160
N          6.88970       -6.04910       17.19900
N          4.58300       -6.99450       13.11020
C          4.31280       -8.39060       12.81730
C          5.52090       -9.07530       12.18990
C          4.19690       -6.03350       12.18550
O          3.59520       -6.32680       11.17040
H         -1.61170        4.78870       -9.84580
H         -4.09070       -0.06130      -12.98320
H         -2.99920        4.37010      -15.18010
H         -3.61450        1.96870      -17.55290
H         -5.68520        3.30820      -17.89330
H         -6.67350        3.76850      -15.51680
H         -7.26920        1.43450      -14.39720
H         -6.65150       -0.46460      -16.08590
H         -5.85340        0.66840      -18.39410
H         -7.43170        1.31700      -17.88260
H         -4.19660       -0.30290      -16.47280
H         -1.18510        4.86320       -7.53160
H         -2.60110        5.67750       -5.66620
H         -2.06940        8.01880       -5.11770
H         -0.07820        8.57510       -3.82310
H          1.63060        9.16380       -2.66440
H          3.30510        8.72010       -2.30610
H          3.72540        8.20420       -4.69580
H          2.05590        8.60090       -5.10470
H          3.14900        9.86820       -4.53520
H          0.96460        4.43260       -3.65570
H         -3.99940       -0.41490       -4.36660
H         -4.97110       -2.62860       -4.88400
H         -3.96510       -4.03170       -6.64170
H         -0.47610       -3.42040      -10.19250
H         -0.24800       -2.04370       -9.10080
H         -1.64620       -1.40720      -11.09890
H         -2.58080       -1.25950       -9.61570
H         -2.81430       -2.66310      -10.66610
H         -0.98410       -1.03940       -7.31620
H         -1.68510       -0.69000       -3.12070
H         -2.38880       -1.94710       -0.59460
H         -3.79620       -3.48270       -1.91240
H         -1.39680       -6.60760       -4.65080
H         -1.85250       -5.42840       -5.92760
H         -2.84740       -6.87090       -5.64200
H         -0.42490       -4.48350       -4.34410
H          0.96970       -2.97620       -3.02710
H          2.39840       -0.13410       -0.52340
H          4.56720       -0.94120        0.33080
H          6.14210       -5.37280        2.28590
H          5.10630       -5.82710        0.91720
H          4.38780       -5.10850        2.39680
H          3.04250       -4.93730        0.38330
H          0.89490       -4.13360       -0.43690
H         -1.77680        2.80660        6.20460
H         -0.58620        4.17960        7.82810
H          1.00900        4.22490        9.63120
H          0.26920        5.79760        9.17530
H          1.80500        5.75580       10.06080
H          2.90880        4.07050        5.36100
H          1.69370        2.69040        3.71200
H         -2.83260        0.23980        3.34940
H         -5.11500        0.84670        2.77100
H         -7.37780        1.36850        3.02200
H         -6.83940        1.52720        1.31720
H         -8.31260        2.35060        1.87440
H         -4.13680        4.98360        3.24900
H         -1.81950        4.36770        3.80900
H          0.79690       -2.75340        4.77040
H          2.81260       -4.00450        4.85250
H          2.59690       -6.27030        3.89690
H          1.69830       -8.11230        5.26940
H          0.06760       -7.00170        9.84790
H          1.84390       -7.17580        9.73930
H          1.63190       -9.58750       10.32770
H         -0.12330       -9.42960       10.41070
H          0.89120       -8.58380       11.58530
H          1.01480       -5.37230        8.47290
H          2.09480        0.66420       10.76390
H          2.94950        2.86310       11.48190
H          4.40380        4.17510       10.02560
H          7.32270        4.85300        7.78440
H          6.48450        4.37620        9.27010
H          6.27010        6.84750        8.87420
H          4.67790        6.08740        8.72010
H          5.57650        6.53100        7.27840
H          4.17440        1.11320        7.05420
H          3.95480       -1.03010       10.92780
H          4.75850       -2.63910       12.57120
H          4.00760       -8.89810       13.73360
H          3.48100       -8.38950       12.10760
H          5.80090       -8.57050       11.26800
H          6.36980       -9.07390       12.86950
H          5.26940      -10.10660       11.96180
