
  xtb     02042212573D
 energy: -341.423986341256 gnorm: 0.000531082500 xtb: 6.4.1 (unknown)
209230  0     0  0            999 V2000
   -6.5356    5.2990   -5.4020 C   0  0  0  0  0  0  0  0  0  0  0  0
   -7.5553    4.9281   -6.2180 C   0  0  0  0  0  0  0  0  0  0  0  0
   -8.6755    5.8796   -6.4691 C   0  0  0  0  0  0  0  0  0  0  0  0
   -8.6704    7.0720   -6.2661 O   0  0  0  0  0  0  0  0  0  0  0  0
   -9.7933    5.0428   -6.9460 C   0  0  0  0  0  0  0  0  0  0  0  0
  -11.1035    5.4477   -7.1974 C   0  0  0  0  0  0  0  0  0  0  0  0
  -11.9316    4.4361   -7.6205 C   0  0  0  0  0  0  0  0  0  0  0  0
  -11.4976    3.1114   -7.7725 C   0  0  0  0  0  0  0  0  0  0  0  0
  -10.2098    2.6963   -7.5321 C   0  0  0  0  0  0  0  0  0  0  0  0
   -9.3480    3.7140   -7.1132 C   0  0  0  0  0  0  0  0  0  0  0  0
   -7.9165    3.6673   -6.8320 C   0  0  0  0  0  0  0  0  0  0  0  0
   -7.0425    2.7332   -7.3214 C   0  0  0  0  0  0  0  0  0  0  0  0
   -5.6453    2.9227   -7.3306 C   0  0  0  0  0  0  0  0  0  0  0  0
   -4.5115    3.0746   -7.4279 N   0  0  0  0  0  0  0  0  0  0  0  0
   -7.4336    1.5448   -7.9692 C   0  0  0  0  0  0  0  0  0  0  0  0
   -7.6980    0.5524   -8.4820 N   0  0  0  0  0  0  0  0  0  0  0  0
  -12.8540    2.6345   -8.2271 C   0  0  0  0  0  0  0  0  0  0  0  0
  -13.0209    2.3848   -9.7411 C   0  0  0  0  0  0  0  0  0  0  0  0
  -14.5183    2.4044   -9.9478 C   0  0  0  0  0  0  0  0  0  0  0  0
  -14.9283    3.6588   -9.8093 C   0  0  0  0  0  0  0  0  0  0  0  0
  -13.7148    4.5082   -9.5066 C   0  0  0  0  0  0  0  0  0  0  0  0
  -12.6565    3.7563  -10.3241 C   0  0  0  0  0  0  0  0  0  0  0  0
  -13.3368    4.1115   -8.0634 C   0  0  0  0  0  0  0  0  0  0  0  0
   -5.6161    4.4980   -4.6776 C   0  0  0  0  0  0  0  0  0  0  0  0
   -4.5295    4.9641   -3.9811 C   0  0  0  0  0  0  0  0  0  0  0  0
   -3.8317    3.9660   -3.2655 C   0  0  0  0  0  0  0  0  0  0  0  0
   -2.6809    4.1049   -2.4693 C   0  0  0  0  0  0  0  0  0  0  0  0
   -2.0731    5.4096   -2.1849 C   0  0  0  0  0  0  0  0  0  0  0  0
   -2.8363    6.4692   -1.7005 C   0  0  0  0  0  0  0  0  0  0  0  0
   -2.2326    7.6703   -1.3731 C   0  0  0  0  0  0  0  0  0  0  0  0
   -0.8649    7.8286   -1.5122 C   0  0  0  0  0  0  0  0  0  0  0  0
   -0.1038    6.7736   -1.9914 C   0  0  0  0  0  0  0  0  0  0  0  0
    1.6679    6.9282   -2.1337 S   0  0  0  0  0  0  0  0  0  0  0  0
    2.0735    6.8908   -0.3466 C   0  0  0  0  0  0  0  0  0  0  0  0
    1.8021    5.5321    0.2668 C   0  0  0  0  0  0  0  0  0  0  0  0
   -0.7007    5.5769   -2.3406 C   0  0  0  0  0  0  0  0  0  0  0  0
   -2.1483    2.9391   -1.9426 C   0  0  0  0  0  0  0  0  0  0  0  0
   -2.6913    1.6509   -2.1820 C   0  0  0  0  0  0  0  0  0  0  0  0
   -3.8768    1.5172   -2.9253 C   0  0  0  0  0  0  0  0  0  0  0  0
   -4.5232    0.2186   -3.1663 C   0  0  0  0  0  0  0  0  0  0  0  0
   -3.8030   -0.8588   -3.6715 C   0  0  0  0  0  0  0  0  0  0  0  0
   -4.4322   -2.0688   -3.9039 C   0  0  0  0  0  0  0  0  0  0  0  0
   -5.7841   -2.2122   -3.6582 C   0  0  0  0  0  0  0  0  0  0  0  0
   -6.5148   -1.1349   -3.1685 C   0  0  0  0  0  0  0  0  0  0  0  0
   -8.2377   -1.3988   -2.8523 S   0  0  0  0  0  0  0  0  0  0  0  0
   -8.9919    0.2229   -3.2271 C   0  0  0  0  0  0  0  0  0  0  0  0
   -8.8149    0.6083   -4.6821 C   0  0  0  0  0  0  0  0  0  0  0  0
   -5.8825    0.0704   -2.9088 C   0  0  0  0  0  0  0  0  0  0  0  0
   -4.4187    2.6853   -3.4354 C   0  0  0  0  0  0  0  0  0  0  0  0
   -5.8496    2.7752   -4.4250 S   0  0  0  0  0  0  0  0  0  0  0  0
   -1.9184    0.6358   -1.5647 C   0  0  0  0  0  0  0  0  0  0  0  0
   -0.8508    1.1101   -0.8638 C   0  0  0  0  0  0  0  0  0  0  0  0
   -0.7604    2.8569   -0.8899 S   0  0  0  0  0  0  0  0  0  0  0  0
    0.1849    0.3250   -0.2541 C   0  0  0  0  0  0  0  0  0  0  0  0
    0.8787   -0.6985   -0.8766 C   0  0  0  0  0  0  0  0  0  0  0  0
    0.7683   -1.0050   -2.2257 N   0  0  0  0  0  0  0  0  0  0  0  0
    0.7030   -2.3385   -2.6311 C   0  0  0  0  0  0  0  0  0  0  0  0
    1.2495   -2.7410   -3.8509 C   0  0  0  0  0  0  0  0  0  0  0  0
    1.1660   -4.0560   -4.2465 C   0  0  0  0  0  0  0  0  0  0  0  0
    0.5393   -5.0032   -3.4375 C   0  0  0  0  0  0  0  0  0  0  0  0
    0.5028   -6.6590   -4.0518 S   0  0  0  0  0  0  0  0  0  0  0  0
   -0.5401   -7.5468   -2.8601 C   0  0  0  0  0  0  0  0  0  0  0  0
    0.0017   -4.6093   -2.2201 C   0  0  0  0  0  0  0  0  0  0  0  0
    0.0840   -3.2884   -1.8230 C   0  0  0  0  0  0  0  0  0  0  0  0
    0.6372    0.0573   -3.1339 C   0  0  0  0  0  0  0  0  0  0  0  0
    1.3416    1.2437   -2.9228 C   0  0  0  0  0  0  0  0  0  0  0  0
    1.0955    2.3484   -3.7045 C   0  0  0  0  0  0  0  0  0  0  0  0
    0.1329    2.3007   -4.7121 C   0  0  0  0  0  0  0  0  0  0  0  0
   -0.2162    3.8143   -5.5481 S   0  0  0  0  0  0  0  0  0  0  0  0
   -1.7538    3.4585   -6.4359 C   0  0  0  0  0  0  0  0  0  0  0  0
   -0.4926    1.0934   -4.9939 C   0  0  0  0  0  0  0  0  0  0  0  0
   -0.2324   -0.0194   -4.2170 C   0  0  0  0  0  0  0  0  0  0  0  0
    1.8151   -1.2886    0.0058 C   0  0  0  0  0  0  0  0  0  0  0  0
    2.9053   -2.6213   -0.1092 S   0  0  0  0  0  0  0  0  0  0  0  0
    3.5125   -2.2857    1.5151 C   0  0  0  0  0  0  0  0  0  0  0  0
    2.8332   -1.2331    2.1307 C   0  0  0  0  0  0  0  0  0  0  0  0
    2.9865   -0.7642    3.4229 N   0  0  0  0  0  0  0  0  0  0  0  0
    3.3087   -1.5984    4.4942 C   0  0  0  0  0  0  0  0  0  0  0  0
    2.8930   -2.9287    4.5175 C   0  0  0  0  0  0  0  0  0  0  0  0
    3.3655   -3.7991    5.4796 C   0  0  0  0  0  0  0  0  0  0  0  0
    4.2415   -3.3441    6.4560 C   0  0  0  0  0  0  0  0  0  0  0  0
    5.0207   -4.3932    7.6448 S   0  0  0  0  0  0  0  0  0  0  0  0
    4.8260   -6.0498    6.9281 C   0  0  0  0  0  0  0  0  0  0  0  0
    4.5578   -1.9888    6.5113 C   0  0  0  0  0  0  0  0  0  0  0  0
    4.1051   -1.1264    5.5409 C   0  0  0  0  0  0  0  0  0  0  0  0
    2.8437    0.6199    3.6271 C   0  0  0  0  0  0  0  0  0  0  0  0
    2.1262    1.1066    4.7145 C   0  0  0  0  0  0  0  0  0  0  0  0
    1.9629    2.4659    4.8981 C   0  0  0  0  0  0  0  0  0  0  0  0
    2.5127    3.3611    3.9902 C   0  0  0  0  0  0  0  0  0  0  0  0
    2.3540    5.1152    4.1083 S   0  0  0  0  0  0  0  0  0  0  0  0
    1.4387    5.3767    5.6527 C   0  0  0  0  0  0  0  0  0  0  0  0
    3.2424    2.8776    2.9058 C   0  0  0  0  0  0  0  0  0  0  0  0
    3.4101    1.5235    2.7276 C   0  0  0  0  0  0  0  0  0  0  0  0
    1.8748   -0.6761    1.2469 C   0  0  0  0  0  0  0  0  0  0  0  0
    0.7531    0.6389    1.3730 S   0  0  0  0  0  0  0  0  0  0  0  0
    4.5745   -3.0927    1.9949 C   0  0  0  0  0  0  0  0  0  0  0  0
    4.8532   -4.3775    1.5228 C   0  0  0  0  0  0  0  0  0  0  0  0
    4.1068   -4.9497    0.5170 O   0  0  0  0  0  0  0  0  0  0  0  0
    2.9761   -5.6810    0.9794 C   0  0  0  0  0  0  0  0  0  0  0  0
    2.3326   -6.3553   -0.2180 C   0  0  0  0  0  0  0  0  0  0  0  0
    5.8933   -4.9978    2.2243 C   0  0  0  0  0  0  0  0  0  0  0  0
    6.3972   -6.2388    2.0932 O   0  0  0  0  0  0  0  0  0  0  0  0
    6.2691   -6.9389    0.8617 C   0  0  0  0  0  0  0  0  0  0  0  0
    6.9380   -6.2132   -0.2976 C   0  0  0  0  0  0  0  0  0  0  0  0
    6.4087   -4.1840    3.2592 C   0  0  0  0  0  0  0  0  0  0  0  0
    5.6881   -2.5974    3.2228 S   0  0  0  0  0  0  0  0  0  0  0  0
    7.2282   -4.7072    4.2598 C   0  0  0  0  0  0  0  0  0  0  0  0
    7.6994   -4.0963    5.3975 C   0  0  0  0  0  0  0  0  0  0  0  0
    7.6461   -2.6587    5.6576 C   0  0  0  0  0  0  0  0  0  0  0  0
    7.1812   -1.7917    4.9330 O   0  0  0  0  0  0  0  0  0  0  0  0
    8.3084   -2.4471    6.9548 C   0  0  0  0  0  0  0  0  0  0  0  0
    8.5025   -1.2359    7.6131 C   0  0  0  0  0  0  0  0  0  0  0  0
    9.1597   -1.3519    8.8146 C   0  0  0  0  0  0  0  0  0  0  0  0
    9.5896   -2.5832    9.3246 C   0  0  0  0  0  0  0  0  0  0  0  0
    9.3994   -3.7865    8.6868 C   0  0  0  0  0  0  0  0  0  0  0  0
    8.7360   -3.6905    7.4620 C   0  0  0  0  0  0  0  0  0  0  0  0
    8.3483   -4.7371    6.5162 C   0  0  0  0  0  0  0  0  0  0  0  0
    8.5092   -6.0862    6.7153 C   0  0  0  0  0  0  0  0  0  0  0  0
    8.0419   -7.1016    5.8569 C   0  0  0  0  0  0  0  0  0  0  0  0
    7.6672   -7.9958    5.2389 N   0  0  0  0  0  0  0  0  0  0  0  0
    9.1293   -6.6613    7.8425 C   0  0  0  0  0  0  0  0  0  0  0  0
    9.6204   -7.2090    8.7248 N   0  0  0  0  0  0  0  0  0  0  0  0
   10.1882   -1.9547   10.5580 C   0  0  0  0  0  0  0  0  0  0  0  0
   11.7271   -1.7886   10.6077 C   0  0  0  0  0  0  0  0  0  0  0  0
   12.1946   -1.6960    9.1765 C   0  0  0  0  0  0  0  0  0  0  0  0
   11.7884   -0.5299    8.6925 C   0  0  0  0  0  0  0  0  0  0  0  0
   11.0390    0.1872    9.7881 C   0  0  0  0  0  0  0  0  0  0  0  0
   11.8161   -0.3099   11.0175 C   0  0  0  0  0  0  0  0  0  0  0  0
    9.7096   -0.5816    9.9895 C   0  0  0  0  0  0  0  0  0  0  0  0
   -6.4792    6.3633   -5.1923 H   0  0  0  0  0  0  0  0  0  0  0  0
  -11.4012    6.4758   -7.0635 H   0  0  0  0  0  0  0  0  0  0  0  0
   -9.8846    1.6750   -7.6438 H   0  0  0  0  0  0  0  0  0  0  0  0
  -13.3170    1.8633   -7.6145 H   0  0  0  0  0  0  0  0  0  0  0  0
  -12.4844    1.5198  -10.1210 H   0  0  0  0  0  0  0  0  0  0  0  0
  -15.1126    1.5252  -10.1141 H   0  0  0  0  0  0  0  0  0  0  0  0
  -15.9334    4.0367   -9.8365 H   0  0  0  0  0  0  0  0  0  0  0  0
  -13.8119    5.5774   -9.6744 H   0  0  0  0  0  0  0  0  0  0  0  0
  -11.6334    4.0676  -10.1214 H   0  0  0  0  0  0  0  0  0  0  0  0
  -12.8480    3.8120  -11.3943 H   0  0  0  0  0  0  0  0  0  0  0  0
  -14.1240    4.3266   -7.3432 H   0  0  0  0  0  0  0  0  0  0  0  0
   -4.2187    5.9933   -4.0137 H   0  0  0  0  0  0  0  0  0  0  0  0
   -3.8989    6.3399   -1.5541 H   0  0  0  0  0  0  0  0  0  0  0  0
   -2.8318    8.4877   -0.9997 H   0  0  0  0  0  0  0  0  0  0  0  0
   -0.3901    8.7630   -1.2534 H   0  0  0  0  0  0  0  0  0  0  0  0
    3.1319    7.1429   -0.2992 H   0  0  0  0  0  0  0  0  0  0  0  0
    1.4950    7.6739    0.1428 H   0  0  0  0  0  0  0  0  0  0  0  0
    2.3784    4.7633   -0.2427 H   0  0  0  0  0  0  0  0  0  0  0  0
    2.0780    5.5407    1.3195 H   0  0  0  0  0  0  0  0  0  0  0  0
    0.7470    5.2758    0.1880 H   0  0  0  0  0  0  0  0  0  0  0  0
   -0.0974    4.7824   -2.7486 H   0  0  0  0  0  0  0  0  0  0  0  0
   -2.7583   -0.7323   -3.9022 H   0  0  0  0  0  0  0  0  0  0  0  0
   -3.8662   -2.9016   -4.2945 H   0  0  0  0  0  0  0  0  0  0  0  0
   -6.2869   -3.1479   -3.8470 H   0  0  0  0  0  0  0  0  0  0  0  0
   -8.5748    0.9711   -2.5543 H   0  0  0  0  0  0  0  0  0  0  0  0
  -10.0445    0.0817   -2.9825 H   0  0  0  0  0  0  0  0  0  0  0  0
   -9.2968    1.5663   -4.8711 H   0  0  0  0  0  0  0  0  0  0  0  0
   -7.7585    0.6952   -4.9296 H   0  0  0  0  0  0  0  0  0  0  0  0
   -9.2583   -0.1435   -5.3308 H   0  0  0  0  0  0  0  0  0  0  0  0
   -6.4297    0.8968   -2.4819 H   0  0  0  0  0  0  0  0  0  0  0  0
   -2.1551   -0.4109   -1.6249 H   0  0  0  0  0  0  0  0  0  0  0  0
    1.7406   -2.0141   -4.4798 H   0  0  0  0  0  0  0  0  0  0  0  0
    1.5898   -4.3701   -5.1879 H   0  0  0  0  0  0  0  0  0  0  0  0
   -1.5130   -7.0691   -2.7920 H   0  0  0  0  0  0  0  0  0  0  0  0
   -0.6496   -8.5499   -3.2603 H   0  0  0  0  0  0  0  0  0  0  0  0
   -0.0493   -7.5888   -1.8923 H   0  0  0  0  0  0  0  0  0  0  0  0
   -0.4952   -5.3155   -1.5745 H   0  0  0  0  0  0  0  0  0  0  0  0
   -0.3476   -2.9870   -0.8794 H   0  0  0  0  0  0  0  0  0  0  0  0
    2.0653    1.3006   -2.1234 H   0  0  0  0  0  0  0  0  0  0  0  0
    1.6343    3.2680   -3.5329 H   0  0  0  0  0  0  0  0  0  0  0  0
   -2.1159    4.4126   -6.8037 H   0  0  0  0  0  0  0  0  0  0  0  0
   -1.5694    2.7947   -7.2746 H   0  0  0  0  0  0  0  0  0  0  0  0
   -2.4810    3.0306   -5.7533 H   0  0  0  0  0  0  0  0  0  0  0  0
   -1.1977    1.0106   -5.8054 H   0  0  0  0  0  0  0  0  0  0  0  0
   -0.7177   -0.9579   -4.4417 H   0  0  0  0  0  0  0  0  0  0  0  0
    2.2241   -3.2940    3.7520 H   0  0  0  0  0  0  0  0  0  0  0  0
    3.0534   -4.8309    5.4507 H   0  0  0  0  0  0  0  0  0  0  0  0
    5.1660   -6.0428    5.8958 H   0  0  0  0  0  0  0  0  0  0  0  0
    3.7928   -6.3759    7.0026 H   0  0  0  0  0  0  0  0  0  0  0  0
    5.4558   -6.7068    7.5205 H   0  0  0  0  0  0  0  0  0  0  0  0
    5.2045   -1.6327    7.2983 H   0  0  0  0  0  0  0  0  0  0  0  0
    4.4160   -0.0941    5.5528 H   0  0  0  0  0  0  0  0  0  0  0  0
    1.6885    0.4132    5.4173 H   0  0  0  0  0  0  0  0  0  0  0  0
    1.3954    2.8099    5.7475 H   0  0  0  0  0  0  0  0  0  0  0  0
    1.3584    6.4536    5.7649 H   0  0  0  0  0  0  0  0  0  0  0  0
    0.4473    4.9396    5.5764 H   0  0  0  0  0  0  0  0  0  0  0  0
    1.9940    4.9596    6.4876 H   0  0  0  0  0  0  0  0  0  0  0  0
    3.6803    3.5777    2.2115 H   0  0  0  0  0  0  0  0  0  0  0  0
    3.9876    1.1536    1.8937 H   0  0  0  0  0  0  0  0  0  0  0  0
    3.2885   -6.4232    1.7285 H   0  0  0  0  0  0  0  0  0  0  0  0
    2.2640   -4.9952    1.4603 H   0  0  0  0  0  0  0  0  0  0  0  0
    1.4478   -6.8981    0.1045 H   0  0  0  0  0  0  0  0  0  0  0  0
    2.0555   -5.6023   -0.9509 H   0  0  0  0  0  0  0  0  0  0  0  0
    3.0280   -7.0495   -0.6827 H   0  0  0  0  0  0  0  0  0  0  0  0
    5.2190   -7.1352    0.6290 H   0  0  0  0  0  0  0  0  0  0  0  0
    6.7697   -7.8894    1.0633 H   0  0  0  0  0  0  0  0  0  0  0  0
    6.3960   -5.3028   -0.5415 H   0  0  0  0  0  0  0  0  0  0  0  0
    6.9438   -6.8587   -1.1711 H   0  0  0  0  0  0  0  0  0  0  0  0
    7.9632   -5.9591   -0.0379 H   0  0  0  0  0  0  0  0  0  0  0  0
    7.4561   -5.7564    4.1128 H   0  0  0  0  0  0  0  0  0  0  0  0
    8.1531   -0.3097    7.1836 H   0  0  0  0  0  0  0  0  0  0  0  0
    9.7373   -4.7246    9.0942 H   0  0  0  0  0  0  0  0  0  0  0  0
    9.7755   -2.2843   11.5094 H   0  0  0  0  0  0  0  0  0  0  0  0
   12.2394   -2.5141   11.2339 H   0  0  0  0  0  0  0  0  0  0  0  0
   12.7060   -2.4879    8.6612 H   0  0  0  0  0  0  0  0  0  0  0  0
   11.8922   -0.1531    7.6918 H   0  0  0  0  0  0  0  0  0  0  0  0
   10.9260    1.2617    9.6684 H   0  0  0  0  0  0  0  0  0  0  0  0
   12.8404    0.0587   11.0460 H   0  0  0  0  0  0  0  0  0  0  0  0
   11.3199   -0.0911   11.9622 H   0  0  0  0  0  0  0  0  0  0  0  0
    8.9859   -0.0139   10.5714 H   0  0  0  0  0  0  0  0  0  0  0  0
  1  2  2  0  0  0  0
  2  3  1  0  0  0  0
  3  4  2  0  0  0  0
  3  5  1  0  0  0  0
  5  6  2  0  0  0  0
  6  7  1  0  0  0  0
  7  8  2  0  0  0  0
  8  9  1  0  0  0  0
  9 10  2  0  0  0  0
 10 11  1  0  0  0  0
 11 12  2  0  0  0  0
 12 13  1  0  0  0  0
 13 14  3  0  0  0  0
 12 15  1  0  0  0  0
 15 16  3  0  0  0  0
  8 17  1  0  0  0  0
 17 18  1  0  0  0  0
 18 19  1  0  0  0  0
 19 20  2  0  0  0  0
 20 21  1  0  0  0  0
 21 22  1  0  0  0  0
 21 23  1  0  0  0  0
  1 24  1  0  0  0  0
 24 25  2  0  0  0  0
 25 26  1  0  0  0  0
 26 27  2  0  0  0  0
 27 28  1  0  0  0  0
 28 29  2  0  0  0  0
 29 30  1  0  0  0  0
 30 31  2  0  0  0  0
 31 32  1  0  0  0  0
 32 33  1  0  0  0  0
 33 34  1  0  0  0  0
 34 35  1  0  0  0  0
 32 36  2  0  0  0  0
 27 37  1  0  0  0  0
 37 38  2  0  0  0  0
 38 39  1  0  0  0  0
 39 40  1  0  0  0  0
 40 41  2  0  0  0  0
 41 42  1  0  0  0  0
 42 43  2  0  0  0  0
 43 44  1  0  0  0  0
 44 45  1  0  0  0  0
 45 46  1  0  0  0  0
 46 47  1  0  0  0  0
 44 48  2  0  0  0  0
 39 49  2  0  0  0  0
 49 50  1  0  0  0  0
 38 51  1  0  0  0  0
 51 52  2  0  0  0  0
 52 53  1  0  0  0  0
 52 54  1  0  0  0  0
 54 55  2  0  0  0  0
 55 56  1  0  0  0  0
 56 57  1  0  0  0  0
 57 58  2  0  0  0  0
 58 59  1  0  0  0  0
 59 60  2  0  0  0  0
 60 61  1  0  0  0  0
 61 62  1  0  0  0  0
 60 63  1  0  0  0  0
 63 64  2  0  0  0  0
 56 65  1  0  0  0  0
 65 66  2  0  0  0  0
 66 67  1  0  0  0  0
 67 68  2  0  0  0  0
 68 69  1  0  0  0  0
 69 70  1  0  0  0  0
 68 71  1  0  0  0  0
 71 72  2  0  0  0  0
 55 73  1  0  0  0  0
 73 74  1  0  0  0  0
 74 75  1  0  0  0  0
 75 76  2  0  0  0  0
 76 77  1  0  0  0  0
 77 78  1  0  0  0  0
 78 79  2  0  0  0  0
 79 80  1  0  0  0  0
 80 81  2  0  0  0  0
 81 82  1  0  0  0  0
 82 83  1  0  0  0  0
 81 84  1  0  0  0  0
 84 85  2  0  0  0  0
 77 86  1  0  0  0  0
 86 87  2  0  0  0  0
 87 88  1  0  0  0  0
 88 89  2  0  0  0  0
 89 90  1  0  0  0  0
 90 91  1  0  0  0  0
 89 92  1  0  0  0  0
 92 93  2  0  0  0  0
 76 94  1  0  0  0  0
 94 95  1  0  0  0  0
 75 96  1  0  0  0  0
 96 97  2  0  0  0  0
 97 98  1  0  0  0  0
 98 99  1  0  0  0  0
 99100  1  0  0  0  0
 97101  1  0  0  0  0
101102  1  0  0  0  0
102103  1  0  0  0  0
103104  1  0  0  0  0
101105  2  0  0  0  0
105106  1  0  0  0  0
105107  1  0  0  0  0
107108  2  0  0  0  0
108109  1  0  0  0  0
109110  2  0  0  0  0
109111  1  0  0  0  0
111112  2  0  0  0  0
112113  1  0  0  0  0
113114  2  0  0  0  0
114115  1  0  0  0  0
115116  2  0  0  0  0
116117  1  0  0  0  0
117118  2  0  0  0  0
118119  1  0  0  0  0
119120  3  0  0  0  0
118121  1  0  0  0  0
121122  3  0  0  0  0
114123  1  0  0  0  0
123124  1  0  0  0  0
124125  1  0  0  0  0
125126  2  0  0  0  0
126127  1  0  0  0  0
127128  1  0  0  0  0
127129  1  0  0  0  0
 11  2  1  0  0  0  0
 23 17  1  0  0  0  0
 50 24  1  0  0  0  0
 95 54  1  0  0  0  0
106 96  1  0  0  0  0
117108  1  0  0  0  0
129123  1  0  0  0  0
 10  5  1  0  0  0  0
 22 18  1  0  0  0  0
 49 26  1  0  0  0  0
 64 57  1  0  0  0  0
 72 65  1  0  0  0  0
 94 73  2  0  0  0  0
116111  1  0  0  0  0
128124  1  0  0  0  0
 23  7  1  0  0  0  0
 36 28  1  0  0  0  0
 53 37  1  0  0  0  0
 85 78  1  0  0  0  0
 93 86  1  0  0  0  0
129113  1  0  0  0  0
 48 40  1  0  0  0  0
  1130  1  0  0  0  0
  6131  1  0  0  0  0
  9132  1  0  0  0  0
 17133  1  0  0  0  0
 18134  1  0  0  0  0
 19135  1  0  0  0  0
 20136  1  0  0  0  0
 21137  1  0  0  0  0
 22138  1  0  0  0  0
 22139  1  0  0  0  0
 23140  1  0  0  0  0
 25141  1  0  0  0  0
 29142  1  0  0  0  0
 30143  1  0  0  0  0
 31144  1  0  0  0  0
 34145  1  0  0  0  0
 34146  1  0  0  0  0
 35147  1  0  0  0  0
 35148  1  0  0  0  0
 35149  1  0  0  0  0
 36150  1  0  0  0  0
 41151  1  0  0  0  0
 42152  1  0  0  0  0
 43153  1  0  0  0  0
 46154  1  0  0  0  0
 46155  1  0  0  0  0
 47156  1  0  0  0  0
 47157  1  0  0  0  0
 47158  1  0  0  0  0
 48159  1  0  0  0  0
 51160  1  0  0  0  0
 58161  1  0  0  0  0
 59162  1  0  0  0  0
 62163  1  0  0  0  0
 62164  1  0  0  0  0
 62165  1  0  0  0  0
 63166  1  0  0  0  0
 64167  1  0  0  0  0
 66168  1  0  0  0  0
 67169  1  0  0  0  0
 70170  1  0  0  0  0
 70171  1  0  0  0  0
 70172  1  0  0  0  0
 71173  1  0  0  0  0
 72174  1  0  0  0  0
 79175  1  0  0  0  0
 80176  1  0  0  0  0
 83177  1  0  0  0  0
 83178  1  0  0  0  0
 83179  1  0  0  0  0
 84180  1  0  0  0  0
 85181  1  0  0  0  0
 87182  1  0  0  0  0
 88183  1  0  0  0  0
 91184  1  0  0  0  0
 91185  1  0  0  0  0
 91186  1  0  0  0  0
 92187  1  0  0  0  0
 93188  1  0  0  0  0
 99189  1  0  0  0  0
 99190  1  0  0  0  0
100191  1  0  0  0  0
100192  1  0  0  0  0
100193  1  0  0  0  0
103194  1  0  0  0  0
103195  1  0  0  0  0
104196  1  0  0  0  0
104197  1  0  0  0  0
104198  1  0  0  0  0
107199  1  0  0  0  0
112200  1  0  0  0  0
115201  1  0  0  0  0
123202  1  0  0  0  0
124203  1  0  0  0  0
125204  1  0  0  0  0
126205  1  0  0  0  0
127206  1  0  0  0  0
128207  1  0  0  0  0
128208  1  0  0  0  0
129209  1  0  0  0  0
M  END
