
  xtb     02142210563D
 energy: -265.627844666437 gnorm: 0.000272139088 xtb: 6.4.1 (unknown)
151166  0     0  0            999 V2000
    2.0250    4.7211   -1.7115 C   0  0  0  0  0  0  0  0  0  0  0  0
    2.7866    4.1019   -2.6520 C   0  0  0  0  0  0  0  0  0  0  0  0
    2.7283    2.6409   -2.9345 C   0  0  0  0  0  0  0  0  0  0  0  0
    1.9042    1.8383   -2.5494 O   0  0  0  0  0  0  0  0  0  0  0  0
    3.9447    2.3428   -3.7109 C   0  0  0  0  0  0  0  0  0  0  0  0
    4.3625    1.0860   -4.1444 C   0  0  0  0  0  0  0  0  0  0  0  0
    5.5455    1.1005   -4.8423 C   0  0  0  0  0  0  0  0  0  0  0  0
    6.2668    2.2775   -5.0880 C   0  0  0  0  0  0  0  0  0  0  0  0
    5.8707    3.5222   -4.6598 C   0  0  0  0  0  0  0  0  0  0  0  0
    4.6648    3.5312   -3.9502 C   0  0  0  0  0  0  0  0  0  0  0  0
    3.9386    4.6446   -3.3508 C   0  0  0  0  0  0  0  0  0  0  0  0
    4.2262    5.9754   -3.4953 C   0  0  0  0  0  0  0  0  0  0  0  0
    5.3340    6.4811   -4.2063 C   0  0  0  0  0  0  0  0  0  0  0  0
    6.2192    6.9519   -4.7652 N   0  0  0  0  0  0  0  0  0  0  0  0
    3.4194    7.0135   -2.9832 C   0  0  0  0  0  0  0  0  0  0  0  0
    2.7877    7.8980   -2.6130 N   0  0  0  0  0  0  0  0  0  0  0  0
    7.3495    1.5493   -5.8451 C   0  0  0  0  0  0  0  0  0  0  0  0
    7.3070    1.6573   -7.3843 C   0  0  0  0  0  0  0  0  0  0  0  0
    8.1530    0.4943   -7.8510 C   0  0  0  0  0  0  0  0  0  0  0  0
    7.4719   -0.6200   -7.6164 C   0  0  0  0  0  0  0  0  0  0  0  0
    6.1542   -0.2292   -6.9872 C   0  0  0  0  0  0  0  0  0  0  0  0
    5.9091    1.1082   -7.6976 C   0  0  0  0  0  0  0  0  0  0  0  0
    6.5460    0.2379   -5.5693 C   0  0  0  0  0  0  0  0  0  0  0  0
    0.8991    4.0998   -1.0662 C   0  0  0  0  0  0  0  0  0  0  0  0
    0.8767    4.0930    0.3398 C   0  0  0  0  0  0  0  0  0  0  0  0
    0.1041    3.2028    1.0347 C   0  0  0  0  0  0  0  0  0  0  0  0
   -0.7799    2.3113    0.3880 C   0  0  0  0  0  0  0  0  0  0  0  0
   -0.9952    2.5296   -0.9846 C   0  0  0  0  0  0  0  0  0  0  0  0
   -1.9017    1.9604   -1.9611 C   0  0  0  0  0  0  0  0  0  0  0  0
   -3.0983    1.3289   -1.9840 C   0  0  0  0  0  0  0  0  0  0  0  0
   -4.0482    1.0299   -0.9564 C   0  0  0  0  0  0  0  0  0  0  0  0
   -4.1627    1.6575    0.3198 C   0  0  0  0  0  0  0  0  0  0  0  0
   -5.2208    1.2052    1.0293 C   0  0  0  0  0  0  0  0  0  0  0  0
   -6.1079   -0.0048    0.1799 S   0  0  0  0  0  0  0  0  0  0  0  0
   -5.0618    0.1261   -1.1617 C   0  0  0  0  0  0  0  0  0  0  0  0
   -1.4201    2.4324   -3.2856 C   0  0  0  0  0  0  0  0  0  0  0  0
   -1.8630    2.1677   -4.3809 O   0  0  0  0  0  0  0  0  0  0  0  0
   -0.4139    3.3435   -3.0471 N   0  0  0  0  0  0  0  0  0  0  0  0
    0.0864    4.1575   -4.1260 C   0  0  0  0  0  0  0  0  0  0  0  0
   -0.1582    5.6434   -3.8943 C   0  0  0  0  0  0  0  0  0  0  0  0
   -0.1108    3.3751   -1.7053 C   0  0  0  0  0  0  0  0  0  0  0  0
   -1.1846    1.1130    1.0836 C   0  0  0  0  0  0  0  0  0  0  0  0
   -1.0175    0.7941    2.4341 C   0  0  0  0  0  0  0  0  0  0  0  0
   -0.8000    1.6785    3.4827 N   0  0  0  0  0  0  0  0  0  0  0  0
    0.1175    1.2975    4.4745 C   0  0  0  0  0  0  0  0  0  0  0  0
    1.3070    0.6730    4.1047 C   0  0  0  0  0  0  0  0  0  0  0  0
    2.1854    0.2083    5.0621 C   0  0  0  0  0  0  0  0  0  0  0  0
    1.8917    0.3711    6.4093 C   0  0  0  0  0  0  0  0  0  0  0  0
    2.9282   -0.2344    7.7020 S   0  0  0  0  0  0  0  0  0  0  0  0
    3.8217   -1.5930    6.8907 C   0  0  0  0  0  0  0  0  0  0  0  0
    0.7326    1.0486    6.7815 C   0  0  0  0  0  0  0  0  0  0  0  0
   -0.1496    1.5037    5.8274 C   0  0  0  0  0  0  0  0  0  0  0  0
   -1.6162    2.8034    3.6646 C   0  0  0  0  0  0  0  0  0  0  0  0
   -1.0932    3.9810    4.2025 C   0  0  0  0  0  0  0  0  0  0  0  0
   -1.8987    5.0848    4.3605 C   0  0  0  0  0  0  0  0  0  0  0  0
   -3.2403    5.0469    3.9799 C   0  0  0  0  0  0  0  0  0  0  0  0
   -4.1633    6.5311    4.2175 S   0  0  0  0  0  0  0  0  0  0  0  0
   -5.8020    6.1441    3.5391 C   0  0  0  0  0  0  0  0  0  0  0  0
   -3.7664    3.8720    3.4611 C   0  0  0  0  0  0  0  0  0  0  0  0
   -2.9597    2.7597    3.3148 C   0  0  0  0  0  0  0  0  0  0  0  0
   -1.0596   -0.6071    2.6377 C   0  0  0  0  0  0  0  0  0  0  0  0
   -0.6862   -1.6300    3.9833 S   0  0  0  0  0  0  0  0  0  0  0  0
   -0.8811   -3.0540    2.9767 C   0  0  0  0  0  0  0  0  0  0  0  0
   -1.2004   -2.7384    1.6550 C   0  0  0  0  0  0  0  0  0  0  0  0
   -1.2571   -3.6193    0.5941 N   0  0  0  0  0  0  0  0  0  0  0  0
   -2.3197   -3.4601   -0.3125 C   0  0  0  0  0  0  0  0  0  0  0  0
   -3.5991   -3.2168    0.1768 C   0  0  0  0  0  0  0  0  0  0  0  0
   -4.6643   -3.0766   -0.6882 C   0  0  0  0  0  0  0  0  0  0  0  0
   -4.4580   -3.1619   -2.0594 C   0  0  0  0  0  0  0  0  0  0  0  0
   -5.7410   -2.9636   -3.2543 S   0  0  0  0  0  0  0  0  0  0  0  0
   -7.2667   -3.0327   -2.2698 C   0  0  0  0  0  0  0  0  0  0  0  0
   -3.1736   -3.3924   -2.5513 C   0  0  0  0  0  0  0  0  0  0  0  0
   -2.1125   -3.5473   -1.6874 C   0  0  0  0  0  0  0  0  0  0  0  0
   -0.3862   -4.7046    0.5039 C   0  0  0  0  0  0  0  0  0  0  0  0
    0.9130   -4.6033    1.0035 C   0  0  0  0  0  0  0  0  0  0  0  0
    1.7426   -5.7040    1.0487 C   0  0  0  0  0  0  0  0  0  0  0  0
    1.2935   -6.9337    0.5807 C   0  0  0  0  0  0  0  0  0  0  0  0
    2.2335   -8.4233    0.6711 S   0  0  0  0  0  0  0  0  0  0  0  0
    3.6393   -7.9885    1.7369 C   0  0  0  0  0  0  0  0  0  0  0  0
    0.0297   -7.0206   -0.0030 C   0  0  0  0  0  0  0  0  0  0  0  0
   -0.7996   -5.9220   -0.0438 C   0  0  0  0  0  0  0  0  0  0  0  0
   -1.3090   -1.3398    1.4885 C   0  0  0  0  0  0  0  0  0  0  0  0
   -1.5195   -0.3183    0.1148 S   0  0  0  0  0  0  0  0  0  0  0  0
   -0.6272   -4.3672    3.4725 C   0  0  0  0  0  0  0  0  0  0  0  0
    0.4131   -4.7038    4.3296 C   0  0  0  0  0  0  0  0  0  0  0  0
    1.1669   -3.7305    4.8749 F   0  0  0  0  0  0  0  0  0  0  0  0
    0.8270   -6.0238    4.5515 C   0  0  0  0  0  0  0  0  0  0  0  0
    1.9480   -6.1889    5.2773 F   0  0  0  0  0  0  0  0  0  0  0  0
    0.2352   -7.1441    3.9679 C   0  0  0  0  0  0  0  0  0  0  0  0
   -0.9680   -6.8474    3.2722 C   0  0  0  0  0  0  0  0  0  0  0  0
   -1.3791   -5.4891    3.0241 C   0  0  0  0  0  0  0  0  0  0  0  0
   -2.5418   -5.5388    2.4100 N   0  0  0  0  0  0  0  0  0  0  0  0
   -2.8432   -6.8297    2.2901 O   0  0  0  0  0  0  0  0  0  0  0  0
   -1.9133   -7.6288    2.7992 N   0  0  0  0  0  0  0  0  0  0  0  0
    0.8487   -8.4261    4.0619 C   0  0  0  0  0  0  0  0  0  0  0  0
    0.6172   -9.5248    3.2905 C   0  0  0  0  0  0  0  0  0  0  0  0
   -0.2854   -9.6797    2.2154 C   0  0  0  0  0  0  0  0  0  0  0  0
   -0.9435   -9.9146    1.3059 N   0  0  0  0  0  0  0  0  0  0  0  0
    1.4123  -10.6765    3.5060 C   0  0  0  0  0  0  0  0  0  0  0  0
    2.0780  -11.5926    3.6831 N   0  0  0  0  0  0  0  0  0  0  0  0
    2.3511    5.6710   -1.3046 H   0  0  0  0  0  0  0  0  0  0  0  0
    3.7777    0.2052   -3.9302 H   0  0  0  0  0  0  0  0  0  0  0  0
    6.4419    4.4173   -4.8422 H   0  0  0  0  0  0  0  0  0  0  0  0
    8.3554    1.6402   -5.4398 H   0  0  0  0  0  0  0  0  0  0  0  0
    7.5613    2.6372   -7.7787 H   0  0  0  0  0  0  0  0  0  0  0  0
    9.1490    0.5952   -8.2402 H   0  0  0  0  0  0  0  0  0  0  0  0
    7.7852   -1.6359   -7.7703 H   0  0  0  0  0  0  0  0  0  0  0  0
    5.3579   -0.9679   -7.0194 H   0  0  0  0  0  0  0  0  0  0  0  0
    5.0957    1.6939   -7.2731 H   0  0  0  0  0  0  0  0  0  0  0  0
    5.7469    0.9822   -8.7666 H   0  0  0  0  0  0  0  0  0  0  0  0
    7.0148   -0.5459   -4.9771 H   0  0  0  0  0  0  0  0  0  0  0  0
    1.5849    4.7107    0.8715 H   0  0  0  0  0  0  0  0  0  0  0  0
    0.2566    3.1262    2.0946 H   0  0  0  0  0  0  0  0  0  0  0  0
   -3.4203    1.0474   -2.9827 H   0  0  0  0  0  0  0  0  0  0  0  0
   -3.5016    2.4375    0.6501 H   0  0  0  0  0  0  0  0  0  0  0  0
   -5.5597    1.5038    2.0014 H   0  0  0  0  0  0  0  0  0  0  0  0
   -5.2217   -0.4706   -2.0372 H   0  0  0  0  0  0  0  0  0  0  0  0
   -0.4630    3.8202   -5.0109 H   0  0  0  0  0  0  0  0  0  0  0  0
    1.1519    3.9673   -4.2963 H   0  0  0  0  0  0  0  0  0  0  0  0
    0.1273    6.2010   -4.7821 H   0  0  0  0  0  0  0  0  0  0  0  0
   -1.2118    5.8236   -3.6941 H   0  0  0  0  0  0  0  0  0  0  0  0
    0.4235    6.0183   -3.0549 H   0  0  0  0  0  0  0  0  0  0  0  0
    1.5370    0.5444    3.0564 H   0  0  0  0  0  0  0  0  0  0  0  0
    3.0943   -0.2783    4.7476 H   0  0  0  0  0  0  0  0  0  0  0  0
    4.6082   -1.2026    6.2511 H   0  0  0  0  0  0  0  0  0  0  0  0
    4.2609   -2.1786    7.6922 H   0  0  0  0  0  0  0  0  0  0  0  0
    3.1173   -2.1983    6.3283 H   0  0  0  0  0  0  0  0  0  0  0  0
    0.5208    1.1890    7.8300 H   0  0  0  0  0  0  0  0  0  0  0  0
   -1.0623    1.9978    6.1244 H   0  0  0  0  0  0  0  0  0  0  0  0
   -0.0551    4.0221    4.4977 H   0  0  0  0  0  0  0  0  0  0  0  0
   -1.4982    5.9974    4.7739 H   0  0  0  0  0  0  0  0  0  0  0  0
   -6.3771    7.0604    3.6290 H   0  0  0  0  0  0  0  0  0  0  0  0
   -5.7143    5.8654    2.4929 H   0  0  0  0  0  0  0  0  0  0  0  0
   -6.2726    5.3575    4.1219 H   0  0  0  0  0  0  0  0  0  0  0  0
   -4.8043    3.8041    3.1775 H   0  0  0  0  0  0  0  0  0  0  0  0
   -3.3742    1.8365    2.9412 H   0  0  0  0  0  0  0  0  0  0  0  0
   -3.7579   -3.1706    1.2433 H   0  0  0  0  0  0  0  0  0  0  0  0
   -5.6477   -2.9094   -0.2807 H   0  0  0  0  0  0  0  0  0  0  0  0
   -7.3536   -2.1559   -1.6338 H   0  0  0  0  0  0  0  0  0  0  0  0
   -7.2815   -3.9475   -1.6852 H   0  0  0  0  0  0  0  0  0  0  0  0
   -8.0768   -3.0428   -2.9925 H   0  0  0  0  0  0  0  0  0  0  0  0
   -3.0220   -3.4488   -3.6180 H   0  0  0  0  0  0  0  0  0  0  0  0
   -1.1202   -3.7342   -2.0685 H   0  0  0  0  0  0  0  0  0  0  0  0
    1.2712   -3.6525    1.3701 H   0  0  0  0  0  0  0  0  0  0  0  0
    2.7372   -5.5901    1.4489 H   0  0  0  0  0  0  0  0  0  0  0  0
    4.1529   -8.9250    1.9323 H   0  0  0  0  0  0  0  0  0  0  0  0
    4.3068   -7.3038    1.2222 H   0  0  0  0  0  0  0  0  0  0  0  0
    3.2819   -7.5630    2.6705 H   0  0  0  0  0  0  0  0  0  0  0  0
   -0.3086   -7.9704   -0.3858 H   0  0  0  0  0  0  0  0  0  0  0  0
   -1.7908   -6.0113   -0.4612 H   0  0  0  0  0  0  0  0  0  0  0  0
    1.6461   -8.5072    4.7922 H   0  0  0  0  0  0  0  0  0  0  0  0
  1  2  2  0  0  0  0
  2  3  1  0  0  0  0
  3  4  2  0  0  0  0
  3  5  1  0  0  0  0
  5  6  2  0  0  0  0
  6  7  1  0  0  0  0
  7  8  2  0  0  0  0
  8  9  1  0  0  0  0
  9 10  2  0  0  0  0
 10 11  1  0  0  0  0
 11 12  2  0  0  0  0
 12 13  1  0  0  0  0
 13 14  3  0  0  0  0
 12 15  1  0  0  0  0
 15 16  3  0  0  0  0
  8 17  1  0  0  0  0
 17 18  1  0  0  0  0
 18 19  1  0  0  0  0
 19 20  2  0  0  0  0
 20 21  1  0  0  0  0
 21 22  1  0  0  0  0
 21 23  1  0  0  0  0
  1 24  1  0  0  0  0
 24 25  2  0  0  0  0
 25 26  1  0  0  0  0
 26 27  2  0  0  0  0
 27 28  1  0  0  0  0
 28 29  1  0  0  0  0
 29 30  2  0  0  0  0
 30 31  1  0  0  0  0
 31 32  1  0  0  0  0
 32 33  2  0  0  0  0
 33 34  1  0  0  0  0
 34 35  1  0  0  0  0
 29 36  1  0  0  0  0
 36 37  2  0  0  0  0
 36 38  1  0  0  0  0
 38 39  1  0  0  0  0
 39 40  1  0  0  0  0
 38 41  1  0  0  0  0
 27 42  1  0  0  0  0
 42 43  2  0  0  0  0
 43 44  1  0  0  0  0
 44 45  1  0  0  0  0
 45 46  2  0  0  0  0
 46 47  1  0  0  0  0
 47 48  2  0  0  0  0
 48 49  1  0  0  0  0
 49 50  1  0  0  0  0
 48 51  1  0  0  0  0
 51 52  2  0  0  0  0
 44 53  1  0  0  0  0
 53 54  2  0  0  0  0
 54 55  1  0  0  0  0
 55 56  2  0  0  0  0
 56 57  1  0  0  0  0
 57 58  1  0  0  0  0
 56 59  1  0  0  0  0
 59 60  2  0  0  0  0
 43 61  1  0  0  0  0
 61 62  1  0  0  0  0
 62 63  1  0  0  0  0
 63 64  2  0  0  0  0
 64 65  1  0  0  0  0
 65 66  1  0  0  0  0
 66 67  2  0  0  0  0
 67 68  1  0  0  0  0
 68 69  2  0  0  0  0
 69 70  1  0  0  0  0
 70 71  1  0  0  0  0
 69 72  1  0  0  0  0
 72 73  2  0  0  0  0
 65 74  1  0  0  0  0
 74 75  2  0  0  0  0
 75 76  1  0  0  0  0
 76 77  2  0  0  0  0
 77 78  1  0  0  0  0
 78 79  1  0  0  0  0
 77 80  1  0  0  0  0
 80 81  2  0  0  0  0
 64 82  1  0  0  0  0
 82 83  1  0  0  0  0
 63 84  1  0  0  0  0
 84 85  2  0  0  0  0
 85 86  1  0  0  0  0
 85 87  1  0  0  0  0
 87 88  1  0  0  0  0
 87 89  2  0  0  0  0
 89 90  1  0  0  0  0
 90 91  1  0  0  0  0
 91 92  2  0  0  0  0
 92 93  1  0  0  0  0
 93 94  1  0  0  0  0
 89 95  1  0  0  0  0
 95 96  2  0  0  0  0
 96 97  1  0  0  0  0
 97 98  3  0  0  0  0
 96 99  1  0  0  0  0
 99100  3  0  0  0  0
 11  2  1  0  0  0  0
 23 17  1  0  0  0  0
 41 24  1  0  0  0  0
 83 42  1  0  0  0  0
 91 84  1  0  0  0  0
 10  5  1  0  0  0  0
 22 18  1  0  0  0  0
 41 28  2  0  0  0  0
 52 45  1  0  0  0  0
 60 53  1  0  0  0  0
 82 61  2  0  0  0  0
 94 90  2  0  0  0  0
 23  7  1  0  0  0  0
 35 31  2  0  0  0  0
 73 66  1  0  0  0  0
 81 74  1  0  0  0  0
  1101  1  0  0  0  0
  6102  1  0  0  0  0
  9103  1  0  0  0  0
 17104  1  0  0  0  0
 18105  1  0  0  0  0
 19106  1  0  0  0  0
 20107  1  0  0  0  0
 21108  1  0  0  0  0
 22109  1  0  0  0  0
 22110  1  0  0  0  0
 23111  1  0  0  0  0
 25112  1  0  0  0  0
 26113  1  0  0  0  0
 30114  1  0  0  0  0
 32115  1  0  0  0  0
 33116  1  0  0  0  0
 35117  1  0  0  0  0
 39118  1  0  0  0  0
 39119  1  0  0  0  0
 40120  1  0  0  0  0
 40121  1  0  0  0  0
 40122  1  0  0  0  0
 46123  1  0  0  0  0
 47124  1  0  0  0  0
 50125  1  0  0  0  0
 50126  1  0  0  0  0
 50127  1  0  0  0  0
 51128  1  0  0  0  0
 52129  1  0  0  0  0
 54130  1  0  0  0  0
 55131  1  0  0  0  0
 58132  1  0  0  0  0
 58133  1  0  0  0  0
 58134  1  0  0  0  0
 59135  1  0  0  0  0
 60136  1  0  0  0  0
 67137  1  0  0  0  0
 68138  1  0  0  0  0
 71139  1  0  0  0  0
 71140  1  0  0  0  0
 71141  1  0  0  0  0
 72142  1  0  0  0  0
 73143  1  0  0  0  0
 75144  1  0  0  0  0
 76145  1  0  0  0  0
 79146  1  0  0  0  0
 79147  1  0  0  0  0
 79148  1  0  0  0  0
 80149  1  0  0  0  0
 81150  1  0  0  0  0
 95151  1  0  0  0  0
M  END
