216

C          9.64870       -2.77020        3.50180
C         10.94220       -2.86630        3.07800
C         11.40830       -2.83210        1.67900
O         10.72990       -2.79510        0.67080
C         12.87900       -2.84650        1.73670
C         13.75670       -2.79890        0.65520
C         15.08340       -2.81660        1.01170
C         15.50690       -2.87850        2.34660
C         14.65210       -2.93310        3.42140
C         13.29490       -2.91560        3.08180
C         12.11130       -2.96440        3.93650
C         12.12450       -3.10980        5.29950
C         10.99000       -3.20950        6.13250
N         10.12620       -3.30800        6.88370
C         13.29440       -3.20250        6.08340
N         14.19470       -3.28240        6.79140
C         16.96670       -2.85340        1.96840
C         17.70480       -1.51050        2.15290
C         18.92940       -1.64880        1.27740
C         18.53000       -1.59360        0.01320
C         17.02870       -1.41620        0.01290
C         16.86290       -0.56940        1.28140
C         16.49470       -2.78690        0.48040
C          8.44660       -2.65410        2.76990
C          7.22710       -2.51590        3.40570
C          6.13590       -2.39630        2.53120
C          4.77690       -2.21270        2.86580
C          4.29400       -2.29040        4.24900
C          4.65440       -3.36480        5.06110
C          4.12580       -3.48870        6.33300
C          3.21430       -2.56150        6.80750
C          2.84690       -1.49710        5.99930
S          1.61640       -0.32540        6.54470
C          0.15910       -1.43360        6.48510
C         -0.15790       -1.88650        5.07440
C          3.39840       -1.34560        4.74020
C          3.91190       -1.99860        1.80930
C          4.31150       -2.07140        0.44690
C          5.65510       -2.31780        0.11370
C          6.08480       -2.44180       -1.28490
C          7.23000       -1.79660       -1.74810
C          7.63010       -1.93320       -3.06430
C          6.88990       -2.69920       -3.94840
C          5.74530       -3.33350       -3.49440
S          4.74330       -4.29530       -4.62320
C          3.47360       -3.02450       -4.98790
C          4.00380       -1.93710       -5.90040
C          5.35220       -3.22560       -2.17310
C          6.55090       -2.43000        1.17150
S          8.27360       -2.64360        1.02670
C          3.23370       -1.79710       -0.42810
C          2.06660       -1.48060        0.20830
S          2.21210       -1.62400        1.94950
C          0.85230       -0.98170       -0.34260
C          0.65050       -0.30880       -1.54340
N          1.63230        0.10600       -2.43200
C          1.32790        0.11110       -3.80070
C          1.73440        1.15860       -4.62180
C          1.42670        1.15870       -5.96820
C          0.69600        0.11220       -6.51670
S          0.24570       -0.00300       -8.21880
C          0.86700        1.54010       -8.94540
C          0.28420       -0.93700       -5.69640
C          0.59820       -0.94120       -4.35650
C          2.85650        0.59330       -1.96020
C          2.94810        1.19570       -0.70650
C          4.17580        1.50330       -0.15830
C          5.33970        1.23120       -0.86390
S          6.94990        1.47750       -0.17990
C          6.65030        1.24100        1.59780
C          5.25040        0.73860       -2.16220
C          4.02580        0.41450       -2.70210
C         -0.71600        0.02330       -1.70560
S         -1.60460        0.85020       -2.93530
C         -3.06830        0.79530       -1.94890
C         -2.84220        0.20880       -0.70530
N         -3.71200        0.20730        0.36970
C         -3.63810       -0.82870        1.31010
C         -3.46750       -2.14690        0.89740
C         -3.36760       -3.16840        1.82250
C         -3.44470       -2.88550        3.17830
S         -3.32300       -4.09760        4.45660
C         -3.05810       -5.65580        3.56750
C         -3.63160       -1.56790        3.59520
C         -3.72520       -0.55050        2.67480
C         -4.56370        1.29810        0.59660
C         -4.17190        2.59560        0.26070
C         -5.07590        3.63150        0.32640
C         -6.38520        3.40300        0.74870
S         -7.48700        4.77670        0.67670
C         -8.96980        4.18630        1.53550
C         -6.75420        2.13120        1.16840
C         -5.84950        1.09020        1.09250
C         -1.51410       -0.28020       -0.61570
S         -0.61390       -1.07780        0.62540
C         -4.23200        1.41030       -2.48290
S         -5.84960        1.00690       -1.97610
C         -6.49310        2.30150       -2.92070
C         -7.82100        2.76340       -2.96350
C         -8.15260        3.68830       -3.96650
O         -7.26910        4.09750       -4.89880
C         -5.88060        4.14020       -4.50820
C         -5.09110        4.14960       -5.82630
C         -5.42690        5.33110       -6.72820
C         -5.69530        5.41600       -3.65200
C         -4.26470        5.69980       -3.21970
C         -5.51460        2.93540       -3.67650
C         -4.24560        2.41740       -3.43350
C         -9.48100        4.06530       -3.90860
C        -10.17530        3.49580       -2.83460
S         -9.13180        2.44290       -1.90070
C        -11.51770        3.79150       -2.57890
C        -12.31530        3.46040       -1.50900
C        -11.88670        2.74420       -0.31070
O        -10.81060        2.19380       -0.11590
C        -12.99560        2.83860        0.65320
C        -13.01630        2.37080        1.96470
C        -14.18440        2.64100        2.63710
C        -15.25120        3.33310        2.05040
C        -15.24430        3.79850        0.75610
C        -14.06930        3.52650        0.05220
C        -13.69000        3.87270       -1.31790
C        -14.51940        4.44450       -2.24870
C        -15.86370        4.79770       -2.01090
N        -16.96290        5.10900       -1.89290
C        -14.17530        4.73740       -3.58470
N        -13.98610        5.00220       -4.68670
C        -16.08960        3.26450        3.30190
C        -17.24160        2.23080        3.34520
C        -16.85100        1.11470        2.40860
C        -15.84290        0.45510        2.96310
C        -15.53320        1.11350        4.28480
C        -16.94260        1.56650        4.69850
C        -14.90240        2.48910        3.95520
H          9.48300       -2.76470        4.57260
H         13.38490       -2.75480       -0.35640
H         14.99610       -2.98550        4.44050
H         17.55500       -3.70990        2.29190
H         17.87200       -1.22140        3.18680
H         19.91990       -1.82310        1.65470
H         19.12020       -1.71260       -0.87640
H         16.58040       -1.04080       -0.90300
H         15.83130       -0.46180        1.61170
H         17.31750        0.41470        1.18120
H         16.76660       -3.60070       -0.18920
H          7.13770       -2.47800        4.47740
H          5.32700       -4.11890        4.68000
H          4.41700       -4.32140        6.95570
H          2.79010       -2.66270        7.79490
H          0.35810       -2.28050        7.14140
H         -0.65270       -0.83920        6.90220
H         -1.04240       -2.51960        5.08410
H          0.67160       -2.45390        4.65550
H         -0.34820       -1.03280        4.42790
H          3.12450       -0.48630        4.14820
H          7.79900       -1.16570       -1.08420
H          8.52340       -1.43140       -3.40490
H          7.19320       -2.81190       -4.97790
H          3.12900       -2.61990       -4.03580
H          2.65780       -3.56870       -5.46110
H          4.33260       -2.36670       -6.84370
H          3.22060       -1.20800       -6.10190
H          4.85000       -1.42830       -5.44010
H          4.49000       -3.77830       -1.83040
H          3.33280       -1.80870       -1.49580
H          2.29150        1.98160       -4.19960
H          1.75750        1.98570       -6.57510
H          0.57100        1.50880       -9.98940
H          1.95010        1.57940       -8.87190
H          0.40440        2.39250       -8.45680
H         -0.27870       -1.74990       -6.12810
H          0.28350       -1.76260       -3.72990
H          2.05030        1.40650       -0.14510
H          4.21550        1.94810        0.82340
H          6.24940        2.14720        2.04300
H          7.61680        1.01480        2.03730
H          5.97350        0.40330        1.73770
H          6.15340        0.57510       -2.72850
H          3.97280       -0.01760       -3.68940
H         -3.41960       -2.37350       -0.15770
H         -3.23540       -4.17780        1.46860
H         -2.14240       -5.59940        2.98740
H         -3.91530       -5.87440        2.93720
H         -2.96230       -6.41660        4.33580
H         -3.69180       -1.35510        4.65140
H         -3.85720        0.46930        3.00350
H         -3.16300        2.78200       -0.07630
H         -4.78300        4.63050        0.04230
H         -9.42060        3.36560        0.98310
H         -9.64990        5.03300        1.56080
H         -8.70850        3.89130        2.54820
H         -7.75420        1.92700        1.51210
H         -6.15480        0.09440        1.37490
H         -4.02520        4.14160       -5.60240
H         -5.33260        3.22120       -6.34870
H         -4.96080        5.19260       -7.70110
H         -5.06390        6.26510       -6.30710
H         -6.50200        5.40080       -6.86540
H         -6.08750        6.25790       -4.22430
H         -6.32180        5.30320       -2.76170
H         -4.24650        6.59330       -2.60010
H         -3.61870        5.86840       -4.07720
H         -3.86570        4.87280       -2.63720
H         -3.33780        2.77690       -3.88330
H         -9.94410        4.73990       -4.60510
H        -11.96370        4.42070       -3.33950
H        -12.16910        1.85000        2.38320
H        -16.07020        4.33730        0.32290
H        -16.37430        4.22070        3.73660
H        -18.23230        2.65320        3.20160
H        -17.29610        0.96030        1.44330
H        -15.27700       -0.36100        2.55360
H        -14.96970        0.51780        4.99820
H        -16.94610        2.26460        5.53460
H        -17.60720        0.73130        4.91400
H        -14.41400        2.93830        4.81800
