
  xtb     02042219343D
 energy: -346.350548410221 gnorm: 0.000970486207 xtb: 6.4.1 (unknown)
214237  0     0  0            999 V2000
    8.3216    2.4251   -6.8501 C   0  0  0  0  0  0  0  0  0  0  0  0
    7.8964    3.4121   -7.6819 C   0  0  0  0  0  0  0  0  0  0  0  0
    8.7556    3.8572   -8.8141 C   0  0  0  0  0  0  0  0  0  0  0  0
    9.9317    3.6190   -8.9668 O   0  0  0  0  0  0  0  0  0  0  0  0
    7.8536    4.5942   -9.7213 C   0  0  0  0  0  0  0  0  0  0  0  0
    8.1601    5.1172  -10.9755 C   0  0  0  0  0  0  0  0  0  0  0  0
    7.1052    5.7431  -11.5955 C   0  0  0  0  0  0  0  0  0  0  0  0
    5.8285    5.8278  -11.0226 C   0  0  0  0  0  0  0  0  0  0  0  0
    5.5111    5.3204   -9.7857 C   0  0  0  0  0  0  0  0  0  0  0  0
    6.5766    4.6990   -9.1297 C   0  0  0  0  0  0  0  0  0  0  0  0
    6.6359    4.1164   -7.7929 C   0  0  0  0  0  0  0  0  0  0  0  0
    5.7793    4.4141   -6.7650 C   0  0  0  0  0  0  0  0  0  0  0  0
    6.0337    4.0893   -5.4162 C   0  0  0  0  0  0  0  0  0  0  0  0
    6.2108    3.9110   -4.2959 N   0  0  0  0  0  0  0  0  0  0  0  0
    4.5773    5.1329   -6.9112 C   0  0  0  0  0  0  0  0  0  0  0  0
    3.5659    5.6750   -6.9642 N   0  0  0  0  0  0  0  0  0  0  0  0
    5.2638    6.5857  -12.1973 C   0  0  0  0  0  0  0  0  0  0  0  0
    5.0493    8.1102  -12.0292 C   0  0  0  0  0  0  0  0  0  0  0  0
    6.0388    8.5684  -10.9863 C   0  0  0  0  0  0  0  0  0  0  0  0
    7.2508    8.4980  -11.5205 C   0  0  0  0  0  0  0  0  0  0  0  0
    7.1028    7.9915  -12.9340 C   0  0  0  0  0  0  0  0  0  0  0  0
    5.7463    8.6130  -13.3034 C   0  0  0  0  0  0  0  0  0  0  0  0
    6.6886    6.5021  -12.8302 C   0  0  0  0  0  0  0  0  0  0  0  0
    7.5347    1.6339   -5.9742 C   0  0  0  0  0  0  0  0  0  0  0  0
    6.1955    1.3475   -6.0524 C   0  0  0  0  0  0  0  0  0  0  0  0
    5.7249    0.5318   -5.0051 C   0  0  0  0  0  0  0  0  0  0  0  0
    4.4055    0.0980   -4.7799 C   0  0  0  0  0  0  0  0  0  0  0  0
    3.2654    0.5850   -5.5663 C   0  0  0  0  0  0  0  0  0  0  0  0
    3.1085    1.9534   -5.7835 C   0  0  0  0  0  0  0  0  0  0  0  0
    1.9919    2.4323   -6.4424 C   0  0  0  0  0  0  0  0  0  0  0  0
    1.0018    1.5639   -6.8670 C   0  0  0  0  0  0  0  0  0  0  0  0
    1.1359    0.2032   -6.6267 C   0  0  0  0  0  0  0  0  0  0  0  0
   -0.1029   -0.9732   -7.1090 S   0  0  0  0  0  0  0  0  0  0  0  0
   -1.6573   -0.1088   -6.6777 C   0  0  0  0  0  0  0  0  0  0  0  0
   -1.7590    0.1909   -5.1949 C   0  0  0  0  0  0  0  0  0  0  0  0
    2.2738   -0.2867   -6.0020 C   0  0  0  0  0  0  0  0  0  0  0  0
    4.2091   -0.7233   -3.6859 C   0  0  0  0  0  0  0  0  0  0  0  0
    5.2384   -1.0893   -2.7792 C   0  0  0  0  0  0  0  0  0  0  0  0
    6.5496   -0.6218   -2.9837 C   0  0  0  0  0  0  0  0  0  0  0  0
    7.6237   -0.9245   -2.0271 C   0  0  0  0  0  0  0  0  0  0  0  0
    8.4230    0.0960   -1.5171 C   0  0  0  0  0  0  0  0  0  0  0  0
    9.4302   -0.1959   -0.6149 C   0  0  0  0  0  0  0  0  0  0  0  0
    9.6374   -1.4955   -0.1905 C   0  0  0  0  0  0  0  0  0  0  0  0
    8.8356   -2.5156   -0.6872 C   0  0  0  0  0  0  0  0  0  0  0  0
    9.1455   -4.1735   -0.1312 S   0  0  0  0  0  0  0  0  0  0  0  0
    7.4487   -4.7795    0.1886 C   0  0  0  0  0  0  0  0  0  0  0  0
    6.7665   -3.9723    1.2740 C   0  0  0  0  0  0  0  0  0  0  0  0
    7.8472   -2.2344   -1.6162 C   0  0  0  0  0  0  0  0  0  0  0  0
    6.7606    0.1685   -4.1034 C   0  0  0  0  0  0  0  0  0  0  0  0
    8.2877    0.8393   -4.6036 S   0  0  0  0  0  0  0  0  0  0  0  0
    4.7296   -1.8345   -1.6899 C   0  0  0  0  0  0  0  0  0  0  0  0
    3.3790   -2.0484   -1.7481 C   0  0  0  0  0  0  0  0  0  0  0  0
    2.6608   -1.3345   -3.1785 S   0  0  0  0  0  0  0  0  0  0  0  0
    2.5416   -2.5758   -0.7327 C   0  0  0  0  0  0  0  0  0  0  0  0
    1.1625   -2.7439   -0.7787 C   0  0  0  0  0  0  0  0  0  0  0  0
    0.4114   -2.8071   -1.9396 N   0  0  0  0  0  0  0  0  0  0  0  0
   -0.8735   -2.2499   -1.9258 C   0  0  0  0  0  0  0  0  0  0  0  0
   -1.0820   -1.0175   -1.3124 C   0  0  0  0  0  0  0  0  0  0  0  0
   -2.3501   -0.4785   -1.2191 C   0  0  0  0  0  0  0  0  0  0  0  0
   -3.4342   -1.1656   -1.7463 C   0  0  0  0  0  0  0  0  0  0  0  0
   -5.1050   -0.5999   -1.6547 S   0  0  0  0  0  0  0  0  0  0  0  0
   -5.0231    0.8128   -0.5178 C   0  0  0  0  0  0  0  0  0  0  0  0
   -3.2250   -2.3808   -2.3964 C   0  0  0  0  0  0  0  0  0  0  0  0
   -1.9620   -2.9205   -2.4847 C   0  0  0  0  0  0  0  0  0  0  0  0
    0.8271   -3.6191   -3.0062 C   0  0  0  0  0  0  0  0  0  0  0  0
    0.4781   -3.2853   -4.3162 C   0  0  0  0  0  0  0  0  0  0  0  0
    0.8946   -4.0646   -5.3696 C   0  0  0  0  0  0  0  0  0  0  0  0
    1.6767   -5.1972   -5.1456 C   0  0  0  0  0  0  0  0  0  0  0  0
    2.1604   -6.1103   -6.5762 S   0  0  0  0  0  0  0  0  0  0  0  0
    3.0736   -7.5295   -5.9054 C   0  0  0  0  0  0  0  0  0  0  0  0
    2.0272   -5.5342   -3.8458 C   0  0  0  0  0  0  0  0  0  0  0  0
    1.6018   -4.7535   -2.7876 C   0  0  0  0  0  0  0  0  0  0  0  0
    0.6298   -2.8615    0.5260 C   0  0  0  0  0  0  0  0  0  0  0  0
   -0.9718   -2.9094    1.1586 S   0  0  0  0  0  0  0  0  0  0  0  0
   -0.3546   -2.8837    2.8068 C   0  0  0  0  0  0  0  0  0  0  0  0
    1.0298   -2.9504    2.8463 C   0  0  0  0  0  0  0  0  0  0  0  0
    1.8016   -3.1043    3.9874 N   0  0  0  0  0  0  0  0  0  0  0  0
    3.1129   -2.6023    3.9786 C   0  0  0  0  0  0  0  0  0  0  0  0
    4.1790   -3.3760    4.4388 C   0  0  0  0  0  0  0  0  0  0  0  0
    5.4678   -2.9042    4.3424 C   0  0  0  0  0  0  0  0  0  0  0  0
    5.7262   -1.6566    3.7764 C   0  0  0  0  0  0  0  0  0  0  0  0
    7.4217   -1.1862    3.6219 S   0  0  0  0  0  0  0  0  0  0  0  0
    7.3753    0.1621    2.4081 C   0  0  0  0  0  0  0  0  0  0  0  0
    4.6659   -0.8608    3.3683 C   0  0  0  0  0  0  0  0  0  0  0  0
    3.3705   -1.3306    3.4737 C   0  0  0  0  0  0  0  0  0  0  0  0
    1.3625   -3.8971    5.0566 C   0  0  0  0  0  0  0  0  0  0  0  0
    1.7643   -3.5889    6.3539 C   0  0  0  0  0  0  0  0  0  0  0  0
    1.3274   -4.3371    7.4291 C   0  0  0  0  0  0  0  0  0  0  0  0
    0.4701   -5.4092    7.2265 C   0  0  0  0  0  0  0  0  0  0  0  0
   -0.1726   -6.4289    8.5162 S   0  0  0  0  0  0  0  0  0  0  0  0
    0.5931   -5.7662   10.0228 C   0  0  0  0  0  0  0  0  0  0  0  0
    0.0722   -5.7271    5.9295 C   0  0  0  0  0  0  0  0  0  0  0  0
    0.5142   -4.9860    4.8578 C   0  0  0  0  0  0  0  0  0  0  0  0
    1.5766   -2.8883    1.5370 C   0  0  0  0  0  0  0  0  0  0  0  0
    3.1819   -2.7710    0.8949 S   0  0  0  0  0  0  0  0  0  0  0  0
   -1.3242   -2.6652    3.8561 C   0  0  0  0  0  0  0  0  0  0  0  0
   -2.6580   -2.9855    3.6071 C   0  0  0  0  0  0  0  0  0  0  0  0
   -3.6172   -2.6100    4.5278 C   0  0  0  0  0  0  0  0  0  0  0  0
   -4.9818   -2.7381    4.4601 N   0  0  0  0  0  0  0  0  0  0  0  0
   -5.7015   -3.2505    3.3232 C   0  0  0  0  0  0  0  0  0  0  0  0
   -5.8163   -2.2061    2.2129 C   0  0  0  0  0  0  0  0  0  0  0  0
   -5.5282   -2.1262    5.5635 C   0  0  0  0  0  0  0  0  0  0  0  0
   -4.4838   -1.6449    6.3995 C   0  0  0  0  0  0  0  0  0  0  0  0
   -3.2596   -1.9491    5.7303 C   0  0  0  0  0  0  0  0  0  0  0  0
   -1.9215   -1.6641    5.9846 C   0  0  0  0  0  0  0  0  0  0  0  0
   -0.9733   -2.0037    5.0487 C   0  0  0  0  0  0  0  0  0  0  0  0
   -4.7926   -1.0003    7.5935 C   0  0  0  0  0  0  0  0  0  0  0  0
   -6.1115   -0.7819    7.9127 C   0  0  0  0  0  0  0  0  0  0  0  0
   -7.1492   -1.2110    7.0637 C   0  0  0  0  0  0  0  0  0  0  0  0
   -6.8527   -1.9329    5.9019 C   0  0  0  0  0  0  0  0  0  0  0  0
   -8.5346   -0.9600    7.3633 C   0  0  0  0  0  0  0  0  0  0  0  0
   -9.0708    0.1458    7.9411 C   0  0  0  0  0  0  0  0  0  0  0  0
   -8.3948    1.4624    8.1068 C   0  0  0  0  0  0  0  0  0  0  0  0
   -7.2306    1.7419    7.9226 O   0  0  0  0  0  0  0  0  0  0  0  0
   -9.4655    2.4154    8.4572 C   0  0  0  0  0  0  0  0  0  0  0  0
   -9.3166    3.7860    8.6638 C   0  0  0  0  0  0  0  0  0  0  0  0
  -10.4875    4.4363    8.9673 C   0  0  0  0  0  0  0  0  0  0  0  0
  -11.7205    3.7745    9.0539 C   0  0  0  0  0  0  0  0  0  0  0  0
  -11.8814    2.4246    8.8549 C   0  0  0  0  0  0  0  0  0  0  0  0
  -10.6989    1.7413    8.5476 C   0  0  0  0  0  0  0  0  0  0  0  0
  -10.4761    0.3261    8.2755 C   0  0  0  0  0  0  0  0  0  0  0  0
  -11.4132   -0.6667    8.3865 C   0  0  0  0  0  0  0  0  0  0  0  0
  -11.1664   -2.0438    8.1991 C   0  0  0  0  0  0  0  0  0  0  0  0
  -11.0522   -3.1805    8.0808 N   0  0  0  0  0  0  0  0  0  0  0  0
  -12.7648   -0.4554    8.7310 C   0  0  0  0  0  0  0  0  0  0  0  0
  -13.8767   -0.3575    8.9996 N   0  0  0  0  0  0  0  0  0  0  0  0
  -12.4691    5.0435    9.3779 C   0  0  0  0  0  0  0  0  0  0  0  0
  -13.2765    5.6812    8.2273 C   0  0  0  0  0  0  0  0  0  0  0  0
  -13.4887    7.1074    8.6816 C   0  0  0  0  0  0  0  0  0  0  0  0
  -12.3215    7.7337    8.6037 C   0  0  0  0  0  0  0  0  0  0  0  0
  -11.3009    6.7416    8.0946 C   0  0  0  0  0  0  0  0  0  0  0  0
  -12.1890    5.9015    7.1678 C   0  0  0  0  0  0  0  0  0  0  0  0
  -11.0945    5.7804    9.2846 C   0  0  0  0  0  0  0  0  0  0  0  0
    9.3779    2.1836   -6.9073 H   0  0  0  0  0  0  0  0  0  0  0  0
    9.1529    5.0245  -11.3872 H   0  0  0  0  0  0  0  0  0  0  0  0
    4.5250    5.3842   -9.3551 H   0  0  0  0  0  0  0  0  0  0  0  0
    4.4426    6.1052  -12.7254 H   0  0  0  0  0  0  0  0  0  0  0  0
    4.0155    8.4062  -11.8726 H   0  0  0  0  0  0  0  0  0  0  0  0
    5.7690    8.8328   -9.9807 H   0  0  0  0  0  0  0  0  0  0  0  0
    8.1968    8.6922  -11.0499 H   0  0  0  0  0  0  0  0  0  0  0  0
    7.9389    8.1813  -13.6018 H   0  0  0  0  0  0  0  0  0  0  0  0
    5.3188    8.2093  -14.2202 H   0  0  0  0  0  0  0  0  0  0  0  0
    5.7832    9.6997  -13.3619 H   0  0  0  0  0  0  0  0  0  0  0  0
    6.7979    5.9751  -13.7760 H   0  0  0  0  0  0  0  0  0  0  0  0
    5.5722    1.6678   -6.8688 H   0  0  0  0  0  0  0  0  0  0  0  0
    3.8438    2.6418   -5.3952 H   0  0  0  0  0  0  0  0  0  0  0  0
    1.8883    3.4934   -6.6164 H   0  0  0  0  0  0  0  0  0  0  0  0
    0.1332    1.9506   -7.3770 H   0  0  0  0  0  0  0  0  0  0  0  0
   -1.7302    0.7966   -7.2788 H   0  0  0  0  0  0  0  0  0  0  0  0
   -2.4367   -0.8019   -6.9929 H   0  0  0  0  0  0  0  0  0  0  0  0
   -1.7459   -0.7279   -4.6125 H   0  0  0  0  0  0  0  0  0  0  0  0
   -2.6921    0.7114   -4.9878 H   0  0  0  0  0  0  0  0  0  0  0  0
   -0.9307    0.8186   -4.8697 H   0  0  0  0  0  0  0  0  0  0  0  0
    2.3769   -1.3521   -5.8612 H   0  0  0  0  0  0  0  0  0  0  0  0
    8.2425    1.1171   -1.8163 H   0  0  0  0  0  0  0  0  0  0  0  0
   10.0517    0.5995   -0.2308 H   0  0  0  0  0  0  0  0  0  0  0  0
   10.4108   -1.7318    0.5236 H   0  0  0  0  0  0  0  0  0  0  0  0
    7.5919   -5.8141    0.4982 H   0  0  0  0  0  0  0  0  0  0  0  0
    6.8869   -4.7664   -0.7449 H   0  0  0  0  0  0  0  0  0  0  0  0
    5.7756   -4.3723    1.4809 H   0  0  0  0  0  0  0  0  0  0  0  0
    7.3533   -3.9971    2.1884 H   0  0  0  0  0  0  0  0  0  0  0  0
    6.6586   -2.9324    0.9711 H   0  0  0  0  0  0  0  0  0  0  0  0
    7.2592   -3.0299   -2.0487 H   0  0  0  0  0  0  0  0  0  0  0  0
    5.3254   -2.1760   -0.8628 H   0  0  0  0  0  0  0  0  0  0  0  0
   -0.2397   -0.4794   -0.9029 H   0  0  0  0  0  0  0  0  0  0  0  0
   -2.4753    0.4758   -0.7340 H   0  0  0  0  0  0  0  0  0  0  0  0
   -4.4832    1.6353   -0.9779 H   0  0  0  0  0  0  0  0  0  0  0  0
   -4.5586    0.5075    0.4151 H   0  0  0  0  0  0  0  0  0  0  0  0
   -6.0532    1.1049   -0.3395 H   0  0  0  0  0  0  0  0  0  0  0  0
   -4.0713   -2.9037   -2.8146 H   0  0  0  0  0  0  0  0  0  0  0  0
   -1.8131   -3.8734   -2.9695 H   0  0  0  0  0  0  0  0  0  0  0  0
   -0.1049   -2.3982   -4.5042 H   0  0  0  0  0  0  0  0  0  0  0  0
    0.6296   -3.7928   -6.3797 H   0  0  0  0  0  0  0  0  0  0  0  0
    3.9658   -7.1898   -5.3874 H   0  0  0  0  0  0  0  0  0  0  0  0
    2.4303   -8.1084   -5.2492 H   0  0  0  0  0  0  0  0  0  0  0  0
    3.3546   -8.1277   -6.7666 H   0  0  0  0  0  0  0  0  0  0  0  0
    2.6272   -6.4052   -3.6367 H   0  0  0  0  0  0  0  0  0  0  0  0
    1.8760   -5.0336   -1.7810 H   0  0  0  0  0  0  0  0  0  0  0  0
    3.9885   -4.3564    4.8489 H   0  0  0  0  0  0  0  0  0  0  0  0
    6.2951   -3.5071    4.6832 H   0  0  0  0  0  0  0  0  0  0  0  0
    8.4074    0.3340    2.1199 H   0  0  0  0  0  0  0  0  0  0  0  0
    6.9636    1.0621    2.8552 H   0  0  0  0  0  0  0  0  0  0  0  0
    6.8000   -0.1457    1.5397 H   0  0  0  0  0  0  0  0  0  0  0  0
    4.8325    0.1243    2.9632 H   0  0  0  0  0  0  0  0  0  0  0  0
    2.5477   -0.7093    3.1504 H   0  0  0  0  0  0  0  0  0  0  0  0
    2.4236   -2.7498    6.5223 H   0  0  0  0  0  0  0  0  0  0  0  0
    1.6573   -4.0638    8.4182 H   0  0  0  0  0  0  0  0  0  0  0  0
    0.2728   -4.7410   10.1837 H   0  0  0  0  0  0  0  0  0  0  0  0
    1.6746   -5.8377    9.9521 H   0  0  0  0  0  0  0  0  0  0  0  0
    0.2348   -6.3947   10.8321 H   0  0  0  0  0  0  0  0  0  0  0  0
   -0.5849   -6.5690    5.7748 H   0  0  0  0  0  0  0  0  0  0  0  0
    0.2058   -5.2548    3.8592 H   0  0  0  0  0  0  0  0  0  0  0  0
   -2.9251   -3.4894    2.6902 H   0  0  0  0  0  0  0  0  0  0  0  0
   -6.6948   -3.5609    3.6543 H   0  0  0  0  0  0  0  0  0  0  0  0
   -5.1766   -4.1350    2.9507 H   0  0  0  0  0  0  0  0  0  0  0  0
   -4.8266   -1.9135    1.8696 H   0  0  0  0  0  0  0  0  0  0  0  0
   -6.3693   -2.6108    1.3697 H   0  0  0  0  0  0  0  0  0  0  0  0
   -6.3327   -1.3217    2.5799 H   0  0  0  0  0  0  0  0  0  0  0  0
   -1.6364   -1.1477    6.8884 H   0  0  0  0  0  0  0  0  0  0  0  0
    0.0519   -1.7143    5.2090 H   0  0  0  0  0  0  0  0  0  0  0  0
   -4.0051   -0.6658    8.2509 H   0  0  0  0  0  0  0  0  0  0  0  0
   -6.3635   -0.2957    8.8400 H   0  0  0  0  0  0  0  0  0  0  0  0
   -7.6566   -2.2776    5.2682 H   0  0  0  0  0  0  0  0  0  0  0  0
   -9.2173   -1.7344    7.0319 H   0  0  0  0  0  0  0  0  0  0  0  0
   -8.3475    4.2538    8.5868 H   0  0  0  0  0  0  0  0  0  0  0  0
  -12.8360    1.9307    8.9243 H   0  0  0  0  0  0  0  0  0  0  0  0
  -13.0020    5.0510   10.3267 H   0  0  0  0  0  0  0  0  0  0  0  0
  -14.1614    5.1253    7.9299 H   0  0  0  0  0  0  0  0  0  0  0  0
  -14.4226    7.4857    9.0536 H   0  0  0  0  0  0  0  0  0  0  0  0
  -12.0856    8.7396    8.8976 H   0  0  0  0  0  0  0  0  0  0  0  0
  -10.3857    7.1519    7.6759 H   0  0  0  0  0  0  0  0  0  0  0  0
  -12.5536    6.4747    6.3169 H   0  0  0  0  0  0  0  0  0  0  0  0
  -11.7202    4.9846    6.8149 H   0  0  0  0  0  0  0  0  0  0  0  0
  -10.7094    6.2784   10.1724 H   0  0  0  0  0  0  0  0  0  0  0  0
  1  2  2  0  0  0  0
  2  3  1  0  0  0  0
  3  4  2  0  0  0  0
  3  5  1  0  0  0  0
  5  6  2  0  0  0  0
  6  7  1  0  0  0  0
  7  8  2  0  0  0  0
  8  9  1  0  0  0  0
  9 10  2  0  0  0  0
 10 11  1  0  0  0  0
 11 12  2  0  0  0  0
 12 13  1  0  0  0  0
 13 14  3  0  0  0  0
 12 15  1  0  0  0  0
 15 16  3  0  0  0  0
  8 17  1  0  0  0  0
 17 18  1  0  0  0  0
 18 19  1  0  0  0  0
 19 20  2  0  0  0  0
 20 21  1  0  0  0  0
 21 22  1  0  0  0  0
 21 23  1  0  0  0  0
  1 24  1  0  0  0  0
 24 25  2  0  0  0  0
 25 26  1  0  0  0  0
 26 27  2  0  0  0  0
 27 28  1  0  0  0  0
 28 29  2  0  0  0  0
 29 30  1  0  0  0  0
 30 31  2  0  0  0  0
 31 32  1  0  0  0  0
 32 33  1  0  0  0  0
 33 34  1  0  0  0  0
 34 35  1  0  0  0  0
 32 36  2  0  0  0  0
 27 37  1  0  0  0  0
 37 38  2  0  0  0  0
 38 39  1  0  0  0  0
 39 40  1  0  0  0  0
 40 41  2  0  0  0  0
 41 42  1  0  0  0  0
 42 43  2  0  0  0  0
 43 44  1  0  0  0  0
 44 45  1  0  0  0  0
 45 46  1  0  0  0  0
 46 47  1  0  0  0  0
 44 48  2  0  0  0  0
 39 49  2  0  0  0  0
 49 50  1  0  0  0  0
 38 51  1  0  0  0  0
 51 52  2  0  0  0  0
 52 53  1  0  0  0  0
 52 54  1  0  0  0  0
 54 55  2  0  0  0  0
 55 56  1  0  0  0  0
 56 57  1  0  0  0  0
 57 58  2  0  0  0  0
 58 59  1  0  0  0  0
 59 60  2  0  0  0  0
 60 61  1  0  0  0  0
 61 62  1  0  0  0  0
 60 63  1  0  0  0  0
 63 64  2  0  0  0  0
 56 65  1  0  0  0  0
 65 66  2  0  0  0  0
 66 67  1  0  0  0  0
 67 68  2  0  0  0  0
 68 69  1  0  0  0  0
 69 70  1  0  0  0  0
 68 71  1  0  0  0  0
 71 72  2  0  0  0  0
 55 73  1  0  0  0  0
 73 74  1  0  0  0  0
 74 75  1  0  0  0  0
 75 76  2  0  0  0  0
 76 77  1  0  0  0  0
 77 78  1  0  0  0  0
 78 79  2  0  0  0  0
 79 80  1  0  0  0  0
 80 81  2  0  0  0  0
 81 82  1  0  0  0  0
 82 83  1  0  0  0  0
 81 84  1  0  0  0  0
 84 85  2  0  0  0  0
 77 86  1  0  0  0  0
 86 87  2  0  0  0  0
 87 88  1  0  0  0  0
 88 89  2  0  0  0  0
 89 90  1  0  0  0  0
 90 91  1  0  0  0  0
 89 92  1  0  0  0  0
 92 93  2  0  0  0  0
 76 94  1  0  0  0  0
 94 95  1  0  0  0  0
 75 96  1  0  0  0  0
 96 97  2  0  0  0  0
 97 98  1  0  0  0  0
 98 99  1  0  0  0  0
 99100  1  0  0  0  0
100101  1  0  0  0  0
 99102  1  0  0  0  0
102103  2  0  0  0  0
103104  1  0  0  0  0
104105  1  0  0  0  0
105106  2  0  0  0  0
103107  1  0  0  0  0
107108  2  0  0  0  0
108109  1  0  0  0  0
109110  2  0  0  0  0
109111  1  0  0  0  0
111112  2  0  0  0  0
112113  1  0  0  0  0
113114  2  0  0  0  0
113115  1  0  0  0  0
115116  2  0  0  0  0
116117  1  0  0  0  0
117118  2  0  0  0  0
118119  1  0  0  0  0
119120  2  0  0  0  0
120121  1  0  0  0  0
121122  2  0  0  0  0
122123  1  0  0  0  0
123124  3  0  0  0  0
122125  1  0  0  0  0
125126  3  0  0  0  0
118127  1  0  0  0  0
127128  1  0  0  0  0
128129  1  0  0  0  0
129130  2  0  0  0  0
130131  1  0  0  0  0
131132  1  0  0  0  0
131133  1  0  0  0  0
 11  2  1  0  0  0  0
 23 17  1  0  0  0  0
 50 24  1  0  0  0  0
 95 54  1  0  0  0  0
106 96  1  0  0  0  0
121112  1  0  0  0  0
133127  1  0  0  0  0
 10  5  1  0  0  0  0
 22 18  1  0  0  0  0
 49 26  1  0  0  0  0
 64 57  1  0  0  0  0
 72 65  1  0  0  0  0
 94 73  2  0  0  0  0
104 98  2  0  0  0  0
120115  1  0  0  0  0
132128  1  0  0  0  0
 23  7  1  0  0  0  0
 36 28  1  0  0  0  0
 53 37  1  0  0  0  0
 85 78  1  0  0  0  0
 93 86  1  0  0  0  0
110102  1  0  0  0  0
133117  1  0  0  0  0
 48 40  1  0  0  0  0
  1134  1  0  0  0  0
  6135  1  0  0  0  0
  9136  1  0  0  0  0
 17137  1  0  0  0  0
 18138  1  0  0  0  0
 19139  1  0  0  0  0
 20140  1  0  0  0  0
 21141  1  0  0  0  0
 22142  1  0  0  0  0
 22143  1  0  0  0  0
 23144  1  0  0  0  0
 25145  1  0  0  0  0
 29146  1  0  0  0  0
 30147  1  0  0  0  0
 31148  1  0  0  0  0
 34149  1  0  0  0  0
 34150  1  0  0  0  0
 35151  1  0  0  0  0
 35152  1  0  0  0  0
 35153  1  0  0  0  0
 36154  1  0  0  0  0
 41155  1  0  0  0  0
 42156  1  0  0  0  0
 43157  1  0  0  0  0
 46158  1  0  0  0  0
 46159  1  0  0  0  0
 47160  1  0  0  0  0
 47161  1  0  0  0  0
 47162  1  0  0  0  0
 48163  1  0  0  0  0
 51164  1  0  0  0  0
 58165  1  0  0  0  0
 59166  1  0  0  0  0
 62167  1  0  0  0  0
 62168  1  0  0  0  0
 62169  1  0  0  0  0
 63170  1  0  0  0  0
 64171  1  0  0  0  0
 66172  1  0  0  0  0
 67173  1  0  0  0  0
 70174  1  0  0  0  0
 70175  1  0  0  0  0
 70176  1  0  0  0  0
 71177  1  0  0  0  0
 72178  1  0  0  0  0
 79179  1  0  0  0  0
 80180  1  0  0  0  0
 83181  1  0  0  0  0
 83182  1  0  0  0  0
 83183  1  0  0  0  0
 84184  1  0  0  0  0
 85185  1  0  0  0  0
 87186  1  0  0  0  0
 88187  1  0  0  0  0
 91188  1  0  0  0  0
 91189  1  0  0  0  0
 91190  1  0  0  0  0
 92191  1  0  0  0  0
 93192  1  0  0  0  0
 97193  1  0  0  0  0
100194  1  0  0  0  0
100195  1  0  0  0  0
101196  1  0  0  0  0
101197  1  0  0  0  0
101198  1  0  0  0  0
105199  1  0  0  0  0
106200  1  0  0  0  0
107201  1  0  0  0  0
108202  1  0  0  0  0
110203  1  0  0  0  0
111204  1  0  0  0  0
116205  1  0  0  0  0
119206  1  0  0  0  0
127207  1  0  0  0  0
128208  1  0  0  0  0
129209  1  0  0  0  0
130210  1  0  0  0  0
131211  1  0  0  0  0
132212  1  0  0  0  0
132213  1  0  0  0  0
133214  1  0  0  0  0
M  END
