170

C          2.08990        5.22370        2.96750
C          3.27360        5.00510        3.57450
C          4.11220        3.80120        3.35490
O          3.90790        2.91150        2.55420
C          5.28180        3.95990        4.23140
C          6.35370        3.07900        4.36150
C          7.30840        3.48640        5.25920
C          7.20710        4.68540        5.97990
C          6.15810        5.56330        5.86180
C          5.17330        5.17070        4.94770
C          3.94000        5.84460        4.56050
C          3.47360        7.02750        5.06340
C          4.12600        7.78550        6.05920
N          4.59630        8.44770        6.87080
C          2.27900        7.66960        4.67010
N          1.33840        8.27180        4.40360
C          8.51930        4.46210        6.68890
C          9.75010        5.26280        6.19610
C          9.50370        5.57690        4.74140
C          9.59980        4.44270        4.06050
C          9.91250        3.34100        5.04270
C         10.76620        4.11770        6.05770
C          8.63150        3.12720        5.88690
C          1.41870        4.27750        2.07700
C          1.92470        3.96020        0.80030
S          3.24740        5.01870        0.30310
C          4.42710        4.16160       -0.80920
C          4.94300        2.84900       -0.26610
C          1.29700        2.97010        0.04750
S          1.85180        2.60090       -1.60310
C          1.18290        4.07700       -2.46270
C         -0.31870        4.01540       -2.63680
C          0.16330        2.29410        0.54100
C         -0.49230        2.82900        1.67030
C          0.18840        3.75260        2.48020
C         -0.30420        4.12730        3.81610
O          0.39830        4.72980        4.61520
C         -1.65870        3.69000        4.12460
C         -2.44180        2.95220        3.18960
C         -1.93320        2.57190        1.87010
O         -2.66720        2.17070        0.98420
C         -3.67820        2.64740        3.68010
S         -3.90160        3.23910        5.27450
C         -2.33120        3.91940        5.29310
C         -0.34910        1.06730       -0.02320
C         -0.90000        0.00070        0.68950
N         -1.01610       -0.11940        2.06430
C         -0.03870        0.34930        2.94420
C         -0.40080        0.79650        4.21450
C          0.54250        1.32670        5.07210
C          1.87350        1.39170        4.68420
S          3.14660        2.07730        5.69900
C          2.25590        3.24250        6.77100
C          2.25510        0.86300        3.45310
C          1.31010        0.36460        2.58640
C         -2.08870       -0.89160        2.55350
C         -1.87080       -1.89470        3.49140
C         -2.90610       -2.71830        3.88800
C         -4.17360       -2.55280        3.34570
S         -5.54600       -3.59590        3.72390
C         -4.77430       -5.04690        4.49640
C         -4.40690       -1.51170        2.45060
C         -3.37660       -0.68740        2.05780
C         -1.33160       -1.02350       -0.18150
S         -2.12960       -2.54200        0.05580
C         -2.07580       -2.86860       -1.67610
C         -1.56520       -1.77310       -2.40510
N         -1.55290       -1.59050       -3.76180
C         -2.53600       -2.06550       -4.62340
C         -3.84040       -2.29970       -4.18600
C         -4.81140       -2.73960       -5.05900
C         -4.50110       -2.95820       -6.39910
S         -5.64500       -3.49940       -7.60870
C         -7.16730       -3.81600       -6.67630
C         -3.19860       -2.71250       -6.84440
C         -2.23400       -2.26460       -5.97620
C         -0.53960       -0.74890       -4.26620
C         -0.84950        0.35790       -5.05510
C          0.14460        1.23580       -5.42530
C          1.46280        1.02460       -5.02070
S          2.63700        2.25420       -5.47860
C          4.10380        1.83590       -4.49340
C          1.78300       -0.11320       -4.29110
C          0.78570       -0.99060       -3.91670
C         -1.11650       -0.76090       -1.52240
S         -0.32120        0.75460       -1.74160
C         -2.45590       -4.16410       -2.07970
C         -2.10690       -4.80310       -3.29400
C         -2.53940       -6.14690       -3.62630
N         -2.01740       -6.55270       -4.78100
S         -1.08150       -5.39020       -5.38930
N         -1.28890       -4.30520       -4.22010
C         -3.34900       -6.93510       -2.76910
C         -3.61630       -6.32770       -1.51490
N         -4.30150       -6.87960       -0.51660
S         -4.38530       -5.84310        0.71110
N         -3.55410       -4.63810        0.04050
C         -3.17740       -4.99610       -1.18450
C         -3.79330       -8.24650       -3.01160
C         -3.79720       -8.97440       -4.17470
C         -3.88750      -10.44720       -4.12210
O         -4.16520      -11.13480       -3.16760
C         -3.50160      -10.90530       -5.48620
C         -3.26060      -12.18810       -5.94120
Cl        -3.55580      -13.55170       -4.95730
C         -2.75440      -12.34870       -7.24010
Cl        -2.46560      -13.91970       -7.85330
C         -2.44850      -11.23340       -8.01580
Cl        -1.74150      -11.45110       -9.55870
C         -2.69810       -9.93280       -7.54890
Cl        -2.15590       -8.60040       -8.48260
C         -3.28460       -9.77720       -6.30280
C         -3.69770       -8.58980       -5.55570
C         -4.21190       -7.42970       -6.08160
C         -4.42500       -7.14350       -7.44440
N         -4.70470       -6.83230       -8.51380
C         -4.79780       -6.43400       -5.28020
N         -5.31850       -5.59370       -4.69270
H          1.55540        6.14800        3.14750
H          6.38880        2.16130        3.79550
H          6.09580        6.48070        6.42310
H          8.47110        4.40260        7.77430
H         10.02460        6.10280        6.82830
H          9.23690        6.55130        4.37620
H          9.42950        4.28030        3.01210
H         10.33570        2.43100        4.62530
H         11.71780        4.44690        5.64310
H         10.93740        3.57480        6.98610
H          8.65450        2.19530        6.44830
H          5.22680        4.90170       -0.87300
H          3.97250        4.04460       -1.79070
H          5.72120        2.46910       -0.92560
H          4.14360        2.11480       -0.20770
H          5.35480        2.97770        0.73050
H          1.68910        4.07590       -3.42780
H          1.48780        4.95240       -1.88960
H         -0.66270        4.92510       -3.12470
H         -0.59570        3.16210       -3.25170
H         -0.82160        3.92970       -1.67470
H         -4.45320        2.09050        3.19170
H         -1.97800        4.45930        6.14960
H         -1.43290        0.72970        4.52590
H          0.23070        1.68690        6.03980
H          1.58680        3.84920        6.16720
H          3.02050        3.86730        7.22320
H          1.71720        2.70660        7.54710
H          3.29630        0.85950        3.17750
H          1.61380       -0.02380        1.62610
H         -0.87950       -2.04270        3.89410
H         -2.70600       -3.49600        4.60720
H         -3.96280       -5.40210        3.86830
H         -4.42500       -4.80340        5.49580
H         -5.55470       -5.79900        4.55580
H         -5.40100       -1.37180        2.05500
H         -3.54960        0.10890        1.34920
H         -4.10260       -2.11740       -3.15500
H         -5.80830       -2.90330       -4.68750
H         -7.85320       -4.26950       -7.38490
H         -6.95460       -4.50830       -5.86690
H         -7.57830       -2.88080       -6.30740
H         -2.96240       -2.88390       -7.88330
H         -1.22720       -2.09490       -6.32540
H         -1.87380        0.53880       -5.34410
H         -0.08990        2.11020       -6.01290
H          3.82190        1.74550       -3.44830
H          4.55770        0.92230       -4.86600
H          4.79200        2.66510       -4.62600
H          2.79910       -0.32110       -4.00020
H          1.02490       -1.86920       -3.33660
H         -4.11210       -8.78690       -2.12610
