
  xtb     02042214083D
 energy: -344.948364593507 gnorm: 0.000467835973 xtb: 6.4.1 (unknown)
201223  0     0  0            999 V2000
   -3.0519   -3.3156    8.6047 C   0  0  0  0  0  0  0  0  0  0  0  0
   -4.0841   -4.2076    8.6100 C   0  0  0  0  0  0  0  0  0  0  0  0
   -4.7494   -4.7947    7.4225 C   0  0  0  0  0  0  0  0  0  0  0  0
   -4.3645   -4.8220    6.2697 O   0  0  0  0  0  0  0  0  0  0  0  0
   -6.0472   -5.2999    7.9040 C   0  0  0  0  0  0  0  0  0  0  0  0
   -7.0637   -5.8553    7.1278 C   0  0  0  0  0  0  0  0  0  0  0  0
   -8.1737   -6.2314    7.8443 C   0  0  0  0  0  0  0  0  0  0  0  0
   -8.2725   -6.0609    9.2323 C   0  0  0  0  0  0  0  0  0  0  0  0
   -7.2802   -5.5135   10.0099 C   0  0  0  0  0  0  0  0  0  0  0  0
   -6.1377   -5.1310    9.3002 C   0  0  0  0  0  0  0  0  0  0  0  0
   -4.8997   -4.5215    9.7714 C   0  0  0  0  0  0  0  0  0  0  0  0
   -4.5295   -4.3581   11.0791 C   0  0  0  0  0  0  0  0  0  0  0  0
   -3.2738   -3.8700   11.5024 C   0  0  0  0  0  0  0  0  0  0  0  0
   -2.2683   -3.5090   11.9225 N   0  0  0  0  0  0  0  0  0  0  0  0
   -5.3345   -4.7081   12.1832 C   0  0  0  0  0  0  0  0  0  0  0  0
   -5.9429   -4.9700   13.1208 N   0  0  0  0  0  0  0  0  0  0  0  0
   -9.6586   -6.6524    9.2869 C   0  0  0  0  0  0  0  0  0  0  0  0
   -9.7688   -8.1020    9.8055 C   0  0  0  0  0  0  0  0  0  0  0  0
  -11.1178   -8.5633    9.3031 C   0  0  0  0  0  0  0  0  0  0  0  0
  -11.0250   -8.7269    7.9897 C   0  0  0  0  0  0  0  0  0  0  0  0
   -9.6113   -8.3790    7.5820 C   0  0  0  0  0  0  0  0  0  0  0  0
   -8.8533   -8.8519    8.8292 C   0  0  0  0  0  0  0  0  0  0  0  0
   -9.5479   -6.8449    7.7402 C   0  0  0  0  0  0  0  0  0  0  0  0
   -2.2062   -2.9891    7.5176 C   0  0  0  0  0  0  0  0  0  0  0  0
   -1.8147   -3.7520    6.4475 C   0  0  0  0  0  0  0  0  0  0  0  0
   -0.9957   -3.0666    5.5274 C   0  0  0  0  0  0  0  0  0  0  0  0
   -0.5141   -3.5250    4.2778 C   0  0  0  0  0  0  0  0  0  0  0  0
   -0.9391   -4.7902    3.7257 C   0  0  0  0  0  0  0  0  0  0  0  0
   -2.1442   -5.4199    3.8900 C   0  0  0  0  0  0  0  0  0  0  0  0
   -2.2828   -6.6231    3.1667 C   0  0  0  0  0  0  0  0  0  0  0  0
   -3.5291   -7.4500    3.1627 C   0  0  0  0  0  0  0  0  0  0  0  0
   -4.4946   -6.9720    2.0767 C   0  0  0  0  0  0  0  0  0  0  0  0
   -1.1565   -6.8957    2.4432 C   0  0  0  0  0  0  0  0  0  0  0  0
   -0.8940   -8.2475    1.4297 Cl  0  0  0  0  0  0  0  0  0  0  0  0
    0.0794   -5.6958    2.6356 S   0  0  0  0  0  0  0  0  0  0  0  0
    0.2962   -2.6415    3.5731 C   0  0  0  0  0  0  0  0  0  0  0  0
    0.5843   -1.3250    4.0115 C   0  0  0  0  0  0  0  0  0  0  0  0
    0.0547   -0.8503    5.2244 C   0  0  0  0  0  0  0  0  0  0  0  0
    0.2370    0.5280    5.6403 C   0  0  0  0  0  0  0  0  0  0  0  0
    0.0707    1.6554    4.8893 C   0  0  0  0  0  0  0  0  0  0  0  0
    0.2947    2.8627    5.5904 C   0  0  0  0  0  0  0  0  0  0  0  0
    0.1896    4.2202    4.9709 C   0  0  0  0  0  0  0  0  0  0  0  0
    1.4936    4.5967    4.2666 C   0  0  0  0  0  0  0  0  0  0  0  0
    0.6529    2.6186    6.8845 C   0  0  0  0  0  0  0  0  0  0  0  0
    0.6951    0.9292    7.2720 S   0  0  0  0  0  0  0  0  0  0  0  0
    1.0306    3.7852    8.0774 Cl  0  0  0  0  0  0  0  0  0  0  0  0
   -0.7029   -1.7485    5.9651 C   0  0  0  0  0  0  0  0  0  0  0  0
   -1.4833   -1.3890    7.4729 S   0  0  0  0  0  0  0  0  0  0  0  0
    1.3166   -0.5914    3.0452 C   0  0  0  0  0  0  0  0  0  0  0  0
    1.5112   -1.2727    1.8837 C   0  0  0  0  0  0  0  0  0  0  0  0
    0.9623   -2.9317    1.9919 S   0  0  0  0  0  0  0  0  0  0  0  0
    1.9447   -0.7425    0.6250 C   0  0  0  0  0  0  0  0  0  0  0  0
    1.2635   -0.8535   -0.5753 C   0  0  0  0  0  0  0  0  0  0  0  0
    0.0459   -1.4969   -0.7557 N   0  0  0  0  0  0  0  0  0  0  0  0
   -0.1577   -2.2068   -1.9444 C   0  0  0  0  0  0  0  0  0  0  0  0
    0.8831   -2.9499   -2.5013 C   0  0  0  0  0  0  0  0  0  0  0  0
    0.6912   -3.6347   -3.6788 C   0  0  0  0  0  0  0  0  0  0  0  0
   -0.5372   -3.5872   -4.3346 C   0  0  0  0  0  0  0  0  0  0  0  0
   -0.6484   -4.4837   -5.8526 S   0  0  0  0  0  0  0  0  0  0  0  0
   -2.3096   -4.0972   -6.4722 C   0  0  0  0  0  0  0  0  0  0  0  0
   -1.5801   -2.8607   -3.7760 C   0  0  0  0  0  0  0  0  0  0  0  0
   -1.3898   -2.1781   -2.5904 C   0  0  0  0  0  0  0  0  0  0  0  0
   -0.9461   -1.4452    0.2304 C   0  0  0  0  0  0  0  0  0  0  0  0
   -1.1086   -0.3008    1.0130 C   0  0  0  0  0  0  0  0  0  0  0  0
   -1.9927   -0.3008    2.0685 C   0  0  0  0  0  0  0  0  0  0  0  0
   -2.7387   -1.4369    2.3701 C   0  0  0  0  0  0  0  0  0  0  0  0
   -3.7378   -1.3538    3.8240 S   0  0  0  0  0  0  0  0  0  0  0  0
   -4.9341   -2.7019    3.6076 C   0  0  0  0  0  0  0  0  0  0  0  0
   -2.6300   -2.5568    1.5563 C   0  0  0  0  0  0  0  0  0  0  0  0
   -1.7472   -2.5561    0.4944 C   0  0  0  0  0  0  0  0  0  0  0  0
    1.9166   -0.1148   -1.5947 C   0  0  0  0  0  0  0  0  0  0  0  0
    1.5836    0.1676   -3.2675 S   0  0  0  0  0  0  0  0  0  0  0  0
    2.8952    1.3237   -3.3395 C   0  0  0  0  0  0  0  0  0  0  0  0
    3.6289    1.3912   -2.1632 C   0  0  0  0  0  0  0  0  0  0  0  0
    4.8235    2.0654   -2.0288 N   0  0  0  0  0  0  0  0  0  0  0  0
    5.6083    2.3173   -3.1693 C   0  0  0  0  0  0  0  0  0  0  0  0
    6.1410    3.5866   -3.3902 C   0  0  0  0  0  0  0  0  0  0  0  0
    6.7689    3.8736   -4.5814 C   0  0  0  0  0  0  0  0  0  0  0  0
    6.8829    2.9037   -5.5760 C   0  0  0  0  0  0  0  0  0  0  0  0
    7.5792    3.4199   -7.1101 S   0  0  0  0  0  0  0  0  0  0  0  0
    7.2478    2.0308   -8.2266 C   0  0  0  0  0  0  0  0  0  0  0  0
    6.4383    1.6125   -5.3180 C   0  0  0  0  0  0  0  0  0  0  0  0
    5.8107    1.3238   -4.1230 C   0  0  0  0  0  0  0  0  0  0  0  0
    5.2290    2.5767   -0.7903 C   0  0  0  0  0  0  0  0  0  0  0  0
    6.5793    2.5429   -0.4391 C   0  0  0  0  0  0  0  0  0  0  0  0
    6.9889    3.0286    0.7806 C   0  0  0  0  0  0  0  0  0  0  0  0
    6.0626    3.5552    1.6801 C   0  0  0  0  0  0  0  0  0  0  0  0
    6.7094    4.1370    3.2156 S   0  0  0  0  0  0  0  0  0  0  0  0
    5.2279    4.4330    4.2218 C   0  0  0  0  0  0  0  0  0  0  0  0
    4.7224    3.6129    1.3247 C   0  0  0  0  0  0  0  0  0  0  0  0
    4.3108    3.1307    0.0964 C   0  0  0  0  0  0  0  0  0  0  0  0
    3.0384    0.5757   -1.1625 C   0  0  0  0  0  0  0  0  0  0  0  0
    3.3426    0.3114    0.5210 S   0  0  0  0  0  0  0  0  0  0  0  0
    3.0901    2.1293   -4.5215 C   0  0  0  0  0  0  0  0  0  0  0  0
    3.2701    3.5029   -4.4373 C   0  0  0  0  0  0  0  0  0  0  0  0
    3.2032    4.0878   -3.2239 F   0  0  0  0  0  0  0  0  0  0  0  0
    3.4989    4.3235   -5.5309 C   0  0  0  0  0  0  0  0  0  0  0  0
    3.5616    3.7889   -6.8070 C   0  0  0  0  0  0  0  0  0  0  0  0
    3.4082    2.3779   -6.9463 C   0  0  0  0  0  0  0  0  0  0  0  0
    3.5163    1.8229   -8.1751 N   0  0  0  0  0  0  0  0  0  0  0  0
    3.3902    0.5366   -8.2862 C   0  0  0  0  0  0  0  0  0  0  0  0
    3.1522   -0.2904   -7.1498 C   0  0  0  0  0  0  0  0  0  0  0  0
    3.0847   -1.5993   -7.3482 O   0  0  0  0  0  0  0  0  0  0  0  0
    2.9361   -2.4272   -6.1964 C   0  0  0  0  0  0  0  0  0  0  0  0
    3.0137   -3.8704   -6.6595 C   0  0  0  0  0  0  0  0  0  0  0  0
    3.0330    0.2206   -5.9476 N   0  0  0  0  0  0  0  0  0  0  0  0
    3.1481    1.5592   -5.8202 C   0  0  0  0  0  0  0  0  0  0  0  0
    3.8285    4.5461   -7.9981 C   0  0  0  0  0  0  0  0  0  0  0  0
    3.4914    5.8285   -8.2871 C   0  0  0  0  0  0  0  0  0  0  0  0
    2.5369    6.6937   -7.5381 C   0  0  0  0  0  0  0  0  0  0  0  0
    2.0379    6.5020   -6.4508 O   0  0  0  0  0  0  0  0  0  0  0  0
    2.2491    7.8323   -8.4278 C   0  0  0  0  0  0  0  0  0  0  0  0
    1.3445    8.8643   -8.1812 C   0  0  0  0  0  0  0  0  0  0  0  0
    1.2644    9.7909   -9.1915 C   0  0  0  0  0  0  0  0  0  0  0  0
    2.0242    9.6960  -10.3663 C   0  0  0  0  0  0  0  0  0  0  0  0
    2.9152    8.6825  -10.6240 C   0  0  0  0  0  0  0  0  0  0  0  0
    3.0164    7.7284   -9.6046 C   0  0  0  0  0  0  0  0  0  0  0  0
    3.8254    6.5174   -9.5280 C   0  0  0  0  0  0  0  0  0  0  0  0
    4.7650    6.1305  -10.4449 C   0  0  0  0  0  0  0  0  0  0  0  0
    5.0836    6.8553  -11.6140 C   0  0  0  0  0  0  0  0  0  0  0  0
    5.3928    7.3874  -12.5831 N   0  0  0  0  0  0  0  0  0  0  0  0
    5.5700    4.9735  -10.3759 C   0  0  0  0  0  0  0  0  0  0  0  0
    6.2776    4.0705  -10.4283 N   0  0  0  0  0  0  0  0  0  0  0  0
    1.4351   10.9589  -10.9436 C   0  0  0  0  0  0  0  0  0  0  0  0
    2.3183   12.2233  -10.8833 C   0  0  0  0  0  0  0  0  0  0  0  0
    1.3359   13.3583  -11.0623 C   0  0  0  0  0  0  0  0  0  0  0  0
    0.6168   13.4487   -9.9507 C   0  0  0  0  0  0  0  0  0  0  0  0
    1.1011   12.3764   -9.0016 C   0  0  0  0  0  0  0  0  0  0  0  0
    2.5880   12.3428   -9.3777 C   0  0  0  0  0  0  0  0  0  0  0  0
    0.5891   11.0648   -9.6341 C   0  0  0  0  0  0  0  0  0  0  0  0
   -2.8887   -2.7257    9.4993 H   0  0  0  0  0  0  0  0  0  0  0  0
   -6.9518   -5.9606    6.0597 H   0  0  0  0  0  0  0  0  0  0  0  0
   -7.3747   -5.3764   11.0741 H   0  0  0  0  0  0  0  0  0  0  0  0
  -10.4376   -6.0004    9.6771 H   0  0  0  0  0  0  0  0  0  0  0  0
   -9.5743   -8.2209   10.8677 H   0  0  0  0  0  0  0  0  0  0  0  0
  -11.9867   -8.6665    9.9261 H   0  0  0  0  0  0  0  0  0  0  0  0
  -11.8008   -8.9937    7.2962 H   0  0  0  0  0  0  0  0  0  0  0  0
   -9.2743   -8.7522    6.6185 H   0  0  0  0  0  0  0  0  0  0  0  0
   -7.8126   -8.5347    8.8638 H   0  0  0  0  0  0  0  0  0  0  0  0
   -8.9092   -9.9312    8.9598 H   0  0  0  0  0  0  0  0  0  0  0  0
  -10.2539   -6.3211    7.0982 H   0  0  0  0  0  0  0  0  0  0  0  0
   -2.0556   -4.7934    6.3697 H   0  0  0  0  0  0  0  0  0  0  0  0
   -2.9413   -5.0327    4.4965 H   0  0  0  0  0  0  0  0  0  0  0  0
   -4.0095   -7.3677    4.1392 H   0  0  0  0  0  0  0  0  0  0  0  0
   -3.2728   -8.4956    2.9854 H   0  0  0  0  0  0  0  0  0  0  0  0
   -4.0256   -7.0402    1.0979 H   0  0  0  0  0  0  0  0  0  0  0  0
   -5.3926   -7.5849    2.0744 H   0  0  0  0  0  0  0  0  0  0  0  0
   -4.7824   -5.9376    2.2520 H   0  0  0  0  0  0  0  0  0  0  0  0
   -0.2501    1.6315    3.8635 H   0  0  0  0  0  0  0  0  0  0  0  0
   -0.6293    4.2201    4.2492 H   0  0  0  0  0  0  0  0  0  0  0  0
   -0.0304    4.9571    5.7443 H   0  0  0  0  0  0  0  0  0  0  0  0
    1.4012    5.5737    3.7984 H   0  0  0  0  0  0  0  0  0  0  0  0
    2.3089    4.6299    4.9856 H   0  0  0  0  0  0  0  0  0  0  0  0
    1.7346    3.8634    3.4994 H   0  0  0  0  0  0  0  0  0  0  0  0
    1.6308    0.4268    3.1804 H   0  0  0  0  0  0  0  0  0  0  0  0
    1.8361   -2.9955   -1.9960 H   0  0  0  0  0  0  0  0  0  0  0  0
    1.4882   -4.2256   -4.1007 H   0  0  0  0  0  0  0  0  0  0  0  0
   -2.4149   -3.0240   -6.6023 H   0  0  0  0  0  0  0  0  0  0  0  0
   -3.0627   -4.4904   -5.7954 H   0  0  0  0  0  0  0  0  0  0  0  0
   -2.3854   -4.5945   -7.4343 H   0  0  0  0  0  0  0  0  0  0  0  0
   -2.5449   -2.8113   -4.2544 H   0  0  0  0  0  0  0  0  0  0  0  0
   -2.2019   -1.6092   -2.1624 H   0  0  0  0  0  0  0  0  0  0  0  0
   -0.5290    0.5829    0.7913 H   0  0  0  0  0  0  0  0  0  0  0  0
   -2.1137    0.5770    2.6844 H   0  0  0  0  0  0  0  0  0  0  0  0
   -5.3415   -2.6661    2.6018 H   0  0  0  0  0  0  0  0  0  0  0  0
   -4.4670   -3.6583    3.8178 H   0  0  0  0  0  0  0  0  0  0  0  0
   -5.7184   -2.5168    4.3351 H   0  0  0  0  0  0  0  0  0  0  0  0
   -3.2010   -3.4484    1.7608 H   0  0  0  0  0  0  0  0  0  0  0  0
   -1.6398   -3.4435   -0.1112 H   0  0  0  0  0  0  0  0  0  0  0  0
    6.0189    4.3522   -2.6392 H   0  0  0  0  0  0  0  0  0  0  0  0
    7.1527    4.8639   -4.7716 H   0  0  0  0  0  0  0  0  0  0  0  0
    6.1923    1.7778   -8.1898 H   0  0  0  0  0  0  0  0  0  0  0  0
    7.8737    1.1815   -7.9678 H   0  0  0  0  0  0  0  0  0  0  0  0
    7.4971    2.3958   -9.2177 H   0  0  0  0  0  0  0  0  0  0  0  0
    6.5679    0.8257   -6.0440 H   0  0  0  0  0  0  0  0  0  0  0  0
    5.4435    0.3246   -3.9399 H   0  0  0  0  0  0  0  0  0  0  0  0
    7.2986    2.1277   -1.1290 H   0  0  0  0  0  0  0  0  0  0  0  0
    8.0311    2.9989    1.0587 H   0  0  0  0  0  0  0  0  0  0  0  0
    4.6225    3.5320    4.2507 H   0  0  0  0  0  0  0  0  0  0  0  0
    4.6675    5.2757    3.8273 H   0  0  0  0  0  0  0  0  0  0  0  0
    5.5914    4.6678    5.2174 H   0  0  0  0  0  0  0  0  0  0  0  0
    3.9894    4.0444    1.9871 H   0  0  0  0  0  0  0  0  0  0  0  0
    3.2732    3.2092   -0.1907 H   0  0  0  0  0  0  0  0  0  0  0  0
    3.6378    5.3764   -5.3570 H   0  0  0  0  0  0  0  0  0  0  0  0
    3.4874    0.1010   -9.2700 H   0  0  0  0  0  0  0  0  0  0  0  0
    1.9786   -2.2064   -5.7120 H   0  0  0  0  0  0  0  0  0  0  0  0
    3.7363   -2.1889   -5.4859 H   0  0  0  0  0  0  0  0  0  0  0  0
    2.1579   -4.1121   -7.2830 H   0  0  0  0  0  0  0  0  0  0  0  0
    3.0223   -4.5370   -5.8031 H   0  0  0  0  0  0  0  0  0  0  0  0
    3.9227   -4.0252   -7.2350 H   0  0  0  0  0  0  0  0  0  0  0  0
    4.3014    3.9596   -8.7765 H   0  0  0  0  0  0  0  0  0  0  0  0
    0.7749    8.8918   -7.2655 H   0  0  0  0  0  0  0  0  0  0  0  0
    3.4804    8.6183  -11.5384 H   0  0  0  0  0  0  0  0  0  0  0  0
    0.9149   10.8481  -11.8930 H   0  0  0  0  0  0  0  0  0  0  0  0
    3.1779   12.2097  -11.5475 H   0  0  0  0  0  0  0  0  0  0  0  0
    1.2310   13.9234  -11.9697 H   0  0  0  0  0  0  0  0  0  0  0  0
   -0.2089   14.1043   -9.7444 H   0  0  0  0  0  0  0  0  0  0  0  0
    0.8518   12.5034   -7.9515 H   0  0  0  0  0  0  0  0  0  0  0  0
    3.1339   11.5008   -8.9562 H   0  0  0  0  0  0  0  0  0  0  0  0
    3.0975   13.2708   -9.1236 H   0  0  0  0  0  0  0  0  0  0  0  0
   -0.4960   11.0242   -9.7099 H   0  0  0  0  0  0  0  0  0  0  0  0
  1  2  2  0  0  0  0
  2  3  1  0  0  0  0
  3  4  2  0  0  0  0
  3  5  1  0  0  0  0
  5  6  2  0  0  0  0
  6  7  1  0  0  0  0
  7  8  2  0  0  0  0
  8  9  1  0  0  0  0
  9 10  2  0  0  0  0
 10 11  1  0  0  0  0
 11 12  2  0  0  0  0
 12 13  1  0  0  0  0
 13 14  3  0  0  0  0
 12 15  1  0  0  0  0
 15 16  3  0  0  0  0
  8 17  1  0  0  0  0
 17 18  1  0  0  0  0
 18 19  1  0  0  0  0
 19 20  2  0  0  0  0
 20 21  1  0  0  0  0
 21 22  1  0  0  0  0
 21 23  1  0  0  0  0
  1 24  1  0  0  0  0
 24 25  2  0  0  0  0
 25 26  1  0  0  0  0
 26 27  2  0  0  0  0
 27 28  1  0  0  0  0
 28 29  2  0  0  0  0
 29 30  1  0  0  0  0
 30 31  1  0  0  0  0
 31 32  1  0  0  0  0
 30 33  2  0  0  0  0
 33 34  1  0  0  0  0
 33 35  1  0  0  0  0
 27 36  1  0  0  0  0
 36 37  2  0  0  0  0
 37 38  1  0  0  0  0
 38 39  1  0  0  0  0
 39 40  2  0  0  0  0
 40 41  1  0  0  0  0
 41 42  1  0  0  0  0
 42 43  1  0  0  0  0
 41 44  2  0  0  0  0
 44 45  1  0  0  0  0
 44 46  1  0  0  0  0
 38 47  2  0  0  0  0
 47 48  1  0  0  0  0
 37 49  1  0  0  0  0
 49 50  2  0  0  0  0
 50 51  1  0  0  0  0
 50 52  1  0  0  0  0
 52 53  2  0  0  0  0
 53 54  1  0  0  0  0
 54 55  1  0  0  0  0
 55 56  2  0  0  0  0
 56 57  1  0  0  0  0
 57 58  2  0  0  0  0
 58 59  1  0  0  0  0
 59 60  1  0  0  0  0
 58 61  1  0  0  0  0
 61 62  2  0  0  0  0
 54 63  1  0  0  0  0
 63 64  2  0  0  0  0
 64 65  1  0  0  0  0
 65 66  2  0  0  0  0
 66 67  1  0  0  0  0
 67 68  1  0  0  0  0
 66 69  1  0  0  0  0
 69 70  2  0  0  0  0
 53 71  1  0  0  0  0
 71 72  1  0  0  0  0
 72 73  1  0  0  0  0
 73 74  2  0  0  0  0
 74 75  1  0  0  0  0
 75 76  1  0  0  0  0
 76 77  2  0  0  0  0
 77 78  1  0  0  0  0
 78 79  2  0  0  0  0
 79 80  1  0  0  0  0
 80 81  1  0  0  0  0
 79 82  1  0  0  0  0
 82 83  2  0  0  0  0
 75 84  1  0  0  0  0
 84 85  2  0  0  0  0
 85 86  1  0  0  0  0
 86 87  2  0  0  0  0
 87 88  1  0  0  0  0
 88 89  1  0  0  0  0
 87 90  1  0  0  0  0
 90 91  2  0  0  0  0
 74 92  1  0  0  0  0
 92 93  1  0  0  0  0
 73 94  1  0  0  0  0
 94 95  2  0  0  0  0
 95 96  1  0  0  0  0
 95 97  1  0  0  0  0
 97 98  2  0  0  0  0
 98 99  1  0  0  0  0
 99100  2  0  0  0  0
100101  1  0  0  0  0
101102  2  0  0  0  0
102103  1  0  0  0  0
103104  1  0  0  0  0
104105  1  0  0  0  0
102106  1  0  0  0  0
106107  2  0  0  0  0
 98108  1  0  0  0  0
108109  2  0  0  0  0
109110  1  0  0  0  0
110111  2  0  0  0  0
110112  1  0  0  0  0
112113  2  0  0  0  0
113114  1  0  0  0  0
114115  2  0  0  0  0
115116  1  0  0  0  0
116117  2  0  0  0  0
117118  1  0  0  0  0
118119  2  0  0  0  0
119120  1  0  0  0  0
120121  3  0  0  0  0
119122  1  0  0  0  0
122123  3  0  0  0  0
115124  1  0  0  0  0
124125  1  0  0  0  0
125126  1  0  0  0  0
126127  2  0  0  0  0
127128  1  0  0  0  0
128129  1  0  0  0  0
128130  1  0  0  0  0
 11  2  1  0  0  0  0
 23 17  1  0  0  0  0
 48 24  1  0  0  0  0
 93 52  1  0  0  0  0
107 94  1  0  0  0  0
118109  1  0  0  0  0
130124  1  0  0  0  0
 10  5  1  0  0  0  0
 22 18  1  0  0  0  0
 47 26  1  0  0  0  0
 62 55  1  0  0  0  0
 70 63  1  0  0  0  0
 92 71  2  0  0  0  0
107 99  1  0  0  0  0
117112  1  0  0  0  0
129125  1  0  0  0  0
 23  7  1  0  0  0  0
 35 28  1  0  0  0  0
 51 36  1  0  0  0  0
 83 76  1  0  0  0  0
 91 84  1  0  0  0  0
130114  1  0  0  0  0
 45 39  1  0  0  0  0
  1131  1  0  0  0  0
  6132  1  0  0  0  0
  9133  1  0  0  0  0
 17134  1  0  0  0  0
 18135  1  0  0  0  0
 19136  1  0  0  0  0
 20137  1  0  0  0  0
 21138  1  0  0  0  0
 22139  1  0  0  0  0
 22140  1  0  0  0  0
 23141  1  0  0  0  0
 25142  1  0  0  0  0
 29143  1  0  0  0  0
 31144  1  0  0  0  0
 31145  1  0  0  0  0
 32146  1  0  0  0  0
 32147  1  0  0  0  0
 32148  1  0  0  0  0
 40149  1  0  0  0  0
 42150  1  0  0  0  0
 42151  1  0  0  0  0
 43152  1  0  0  0  0
 43153  1  0  0  0  0
 43154  1  0  0  0  0
 49155  1  0  0  0  0
 56156  1  0  0  0  0
 57157  1  0  0  0  0
 60158  1  0  0  0  0
 60159  1  0  0  0  0
 60160  1  0  0  0  0
 61161  1  0  0  0  0
 62162  1  0  0  0  0
 64163  1  0  0  0  0
 65164  1  0  0  0  0
 68165  1  0  0  0  0
 68166  1  0  0  0  0
 68167  1  0  0  0  0
 69168  1  0  0  0  0
 70169  1  0  0  0  0
 77170  1  0  0  0  0
 78171  1  0  0  0  0
 81172  1  0  0  0  0
 81173  1  0  0  0  0
 81174  1  0  0  0  0
 82175  1  0  0  0  0
 83176  1  0  0  0  0
 85177  1  0  0  0  0
 86178  1  0  0  0  0
 89179  1  0  0  0  0
 89180  1  0  0  0  0
 89181  1  0  0  0  0
 90182  1  0  0  0  0
 91183  1  0  0  0  0
 97184  1  0  0  0  0
101185  1  0  0  0  0
104186  1  0  0  0  0
104187  1  0  0  0  0
105188  1  0  0  0  0
105189  1  0  0  0  0
105190  1  0  0  0  0
108191  1  0  0  0  0
113192  1  0  0  0  0
116193  1  0  0  0  0
124194  1  0  0  0  0
125195  1  0  0  0  0
126196  1  0  0  0  0
127197  1  0  0  0  0
128198  1  0  0  0  0
129199  1  0  0  0  0
129200  1  0  0  0  0
130201  1  0  0  0  0
M  END
