237

C          4.53440       -3.10190        5.53500
C          3.53680       -3.97810        5.26340
C          2.60900       -3.84180        4.10480
O          2.74570       -3.17220        3.10160
C          1.42540       -4.63830        4.45660
C          0.23470       -4.70360        3.73470
C         -0.73130       -5.47620        4.32940
C         -0.52800       -6.15230        5.54200
C          0.64890       -6.11160        6.25330
C          1.64370       -5.31420        5.67560
C          2.99020       -5.00390        6.13930
C          3.67160       -5.61680        7.15440
C          5.02360       -5.34010        7.44940
N          6.12980       -5.16650        7.70180
C          3.13310       -6.62520        7.97970
N          2.74080       -7.44220        8.68380
C         -1.93380       -6.70440        5.55530
C         -2.93140       -6.01910        6.51310
C         -4.28710       -6.39970        5.96190
C         -4.46630       -5.73170        4.82930
C         -3.23210       -4.89270        4.59240
C         -2.85770       -4.56130        6.04270
C         -2.15830       -5.93590        4.21290
C          4.87540       -2.05590        4.58870
C          4.58170       -0.72620        4.93370
C          4.35290        0.22610        3.96820
C          4.47740       -0.07740        2.60200
C          5.08990       -1.29550        2.27810
C          5.45880       -1.88960        1.00530
C          5.56910       -1.19890       -0.16040
C          5.58330       -1.63340       -1.52190
C          5.59530       -2.96580       -2.03550
C          5.44060       -3.01030       -3.37530
S          5.26700       -1.43720       -4.07410
C          5.42270       -0.71490       -2.53890
C          5.80680       -3.29500        1.30800
O          6.21190       -4.17970        0.57830
N          5.69200       -3.44760        2.67580
C          6.14800       -4.64870        3.33830
C          5.24690       -5.84870        3.06730
C          5.22910       -2.29090        3.26160
C          3.75360        0.69110        1.61250
C          3.39850        2.02990        1.57960
N          3.96650        3.02620        2.35460
C          3.17550        4.13190        2.71020
C          3.65470        5.42910        2.55900
C          2.86740        6.51080        2.89870
C          1.58600        6.31000        3.39610
S          0.50900        7.61740        3.87930
C          1.22770        9.07990        3.08290
C          1.11020        5.01250        3.56520
C          1.89540        3.93330        3.22430
C          5.30930        2.96990        2.74540
C          6.27260        2.37360        1.93750
C          7.58760        2.28470        2.34750
C          7.96930        2.80410        3.57690
S          9.61430        2.74180        4.21360
C         10.49760        1.68020        3.03540
C          7.01580        3.43090        4.37660
C          5.70320        3.51050        3.97060
C          2.43830        2.27980        0.55880
S          1.54390        3.65140       -0.01420
C          0.83560        2.68810       -1.30690
C          1.32070        1.39210       -1.32290
N          1.06200        0.40180       -2.26700
C          1.45330        0.56300       -3.60480
C          2.46750        1.43740       -3.97780
C          2.89750        1.49900       -5.29110
C          2.32670        0.67550       -6.24890
S          2.85890        0.58050       -7.92770
C          4.28560        1.69530       -8.00080
C          1.27380       -0.16490       -5.88700
C          0.83760       -0.21760       -4.58560
C          0.94540       -0.90540       -1.76330
C          1.70420       -1.96200       -2.26620
C          1.61240       -3.21290       -1.69400
C          0.77000       -3.42660       -0.61130
S          0.68090       -5.02460        0.16430
C          2.43620       -5.26680        0.56970
C         -0.01160       -2.38850       -0.12660
C          0.07890       -1.13640       -0.69840
C          2.15530        1.16330       -0.20610
S          2.92280       -0.25540        0.38330
C         -0.29780        3.15140       -2.05130
C         -1.46550        3.62400       -1.47690
N         -1.61770        3.79580       -0.08990
C         -1.71000        2.62340        0.66930
C         -2.38270        1.50390        0.17510
C         -2.43140        0.33710        0.90860
C         -1.79020        0.24690        2.14110
S         -1.88060       -1.30580        2.98970
C         -0.45590       -1.24960        4.11400
C         -1.12570        1.35830        2.64100
C         -1.09040        2.53130        1.91350
C         -1.71760        5.07820        0.43790
C         -1.19820        6.16160       -0.27330
C         -1.33170        7.44370        0.21010
C         -1.98290        7.68060        1.41680
S         -2.12700        9.37010        1.92060
C         -2.84170        9.26890        3.58520
C         -2.49580        6.60880        2.13220
C         -2.36830        5.32320        1.64510
C         -2.53040        3.61810       -2.39960
S         -4.24960        3.65140       -2.18960
C         -4.42860        2.59970       -3.63270
C         -3.24230        2.56690       -4.38490
N         -3.10320        2.05900       -5.63130
C         -4.16200        1.30150       -6.21030
C         -4.08830       -0.08380       -6.30220
C         -5.16250       -0.79630       -6.79220
C         -6.32160       -0.13810       -7.20130
S         -7.65460       -1.15640       -7.73140
C         -9.01720        0.00730       -8.01040
C         -6.37320        1.24990       -7.15590
C         -5.29910        1.96010       -6.65570
C         -2.01970        2.43910       -6.44750
C         -1.57710        3.76010       -6.44730
C         -0.52390        4.15670       -7.24620
C          0.09430        3.23890       -8.08320
S          1.45370        3.63130       -9.13440
C          1.54460        5.44530       -9.07190
C         -0.36870        1.92550       -8.11610
C         -1.41190        1.52870       -7.30890
C         -2.17300        3.14300       -3.65200
S         -0.47950        2.80550       -3.75410
C         -5.46680        1.65100       -3.56690
C         -5.21900        0.29800       -3.61430
C         -3.88270       -0.27160       -3.35200
O         -2.79420        0.27140       -3.42400
C         -4.12460       -1.63950       -2.86350
C         -3.17210       -2.51350       -2.34470
C         -3.69210       -3.71360       -1.92240
C         -5.05650       -4.02030       -2.00800
C         -6.00490       -3.16720       -2.52630
C         -5.49800       -1.93840       -2.95700
C         -6.18420       -0.76490       -3.49320
C         -7.50040       -0.68930       -3.87120
C         -8.07070        0.45490       -4.45630
N         -8.59320        1.33900       -4.97340
C         -8.42130       -1.75040       -3.77920
N         -9.21920       -2.57450       -3.72340
C         -4.87110       -5.37430       -1.36630
C         -5.27200       -5.49300        0.12040
C         -4.55240       -6.73830        0.58740
C         -3.25750       -6.45460        0.65100
C         -3.08090       -5.01330        0.23630
C         -4.39000       -4.41910        0.76990
C         -3.34780       -5.03460       -1.28300
H          4.97060       -3.05870        6.52600
H          0.11970       -4.18610        2.79610
H          0.79570       -6.63240        7.18530
H         -2.01690       -7.78910        5.55570
H         -2.75910       -6.21630        7.56780
H         -4.93130       -7.13240        6.41100
H         -5.28800       -5.79930        4.14080
H         -3.31820       -4.05850        3.90140
H         -1.87510       -4.10670        6.15680
H         -3.60500       -3.93360        6.52500
H         -2.41540       -6.49500        3.31620
H          4.38460       -0.49250        5.96960
H          3.96540        1.18800        4.26360
H          5.52660       -0.11910       -0.06690
H          5.73380       -3.82700       -1.40920
H          5.41500       -3.86790       -4.01780
H          5.35630        0.35210       -2.44930
H          7.14990       -4.87420        2.95540
H          6.21690       -4.44410        4.40980
H          4.22690       -5.65710        3.39120
H          5.62730       -6.71730        3.59840
H          5.23790       -6.06070        2.00150
H          4.65110        5.58640        2.17330
H          3.26350        7.50530        2.77220
H          1.39230        8.86750        2.03100
H          2.14770        9.36960        3.58250
H          0.48720        9.86700        3.18440
H          0.12240        4.87110        3.97760
H          1.53260        2.92450        3.35690
H          5.99360        1.98140        0.97140
H          8.30380        1.81500        1.69290
H          9.99050        0.72360        2.95030
H         10.57750        2.17370        2.07110
H         11.48770        1.53760        3.45700
H          7.31790        3.84300        5.32700
H          4.97020        3.98700        4.60470
H          2.93720        2.06470       -3.23360
H          3.69450        2.17900       -5.54470
H          5.04600        1.36850       -7.29750
H          4.66060        1.61980       -9.01650
H          3.96630        2.71450       -7.80540
H          0.81630       -0.78360       -6.64330
H          0.02120       -0.86530       -4.30590
H          2.37620       -1.79680       -3.09490
H          2.21160       -4.02100       -2.08550
H          2.77730       -4.41980        1.15820
H          3.02580       -5.36730       -0.33610
H          2.49080       -6.18140        1.15210
H         -0.68270       -2.55500        0.70200
H         -0.51240       -0.31880       -0.31780
H         -2.85990        1.53560       -0.79160
H         -2.95920       -0.52250        0.52250
H          0.44730       -1.03260        3.54990
H         -0.61960       -0.51680        4.89900
H         -0.38780       -2.24140        4.55090
H         -0.62650        1.32040        3.59700
H         -0.56340        3.39000        2.29630
H         -0.68900        5.99020       -1.21030
H         -0.93430        8.27950       -0.34620
H         -3.85240        8.87470        3.53310
H         -2.20580        8.65490        4.21680
H         -2.86500       10.28840        3.95780
H         -3.01000        6.75880        3.06750
H         -2.79990        4.50240        2.19790
H         -3.20540       -0.60230       -5.96150
H         -5.12380       -1.87370       -6.84910
H         -8.79520        0.64190       -8.86350
H         -9.18870        0.59070       -7.10930
H         -9.88440       -0.60980       -8.22420
H         -7.24610        1.78600       -7.48750
H         -5.34960        3.03730       -6.59850
H         -2.06720        4.49380       -5.82440
H         -0.20580        5.18610       -7.21080
H          0.58710        5.87160       -9.35570
H          1.84600        5.77640       -8.08220
H          2.30170        5.72430       -9.79820
H          0.10720        1.21890       -8.77780
H         -1.75860        0.50940       -7.34980
H         -6.44470        1.99900       -3.25350
H         -2.13040       -2.23680       -2.28340
H         -7.05290       -3.41200       -2.58380
H         -5.18520       -6.23010       -1.96070
H         -6.34160       -5.44550        0.30770
H         -5.03720       -7.68210        0.75760
H         -2.43740       -7.11350        0.87020
H         -2.14830       -4.53980        0.52590
H         -4.44350       -4.44550        1.85620
H         -4.59190       -3.40770        0.42240
H         -2.64060       -5.65710       -1.82700
