232

C         10.21020        0.07790        0.85420
C         10.93940        1.21490        1.05070
C         12.19480        1.38060        0.25500
O         12.74720        0.51580       -0.39080
C         12.54250        2.80300        0.36490
C         13.54500        3.48510       -0.32230
C         13.58960        4.83160       -0.05380
C         12.70240        5.45910        0.83150
C         11.71490        4.79810        1.52390
C         11.65540        3.42860        1.26680
C         10.74050        2.42370        1.80330
C          9.97570        2.56230        2.93280
C          9.88620        3.74110        3.70060
N          9.77100        4.65980        4.37910
C          9.25410        1.50400        3.51520
N          8.65990        0.66890        4.03330
C         13.29430        6.82320        0.58340
C         12.50830        7.78540       -0.34180
C         11.69490        6.91680       -1.26930
C         12.53370        6.32330       -2.10770
C         13.92990        6.77970       -1.76190
C         13.63810        8.21350       -1.29170
C         14.28290        6.12490       -0.40280
C          8.83650       -0.17330        1.05080
C          7.75990        0.70250        1.19030
C          6.56230       -0.05470        1.10600
C          6.90800       -1.44360        0.92630
O          6.22950       -2.44450        0.79440
N          8.30740       -1.44480        0.91350
C          9.04870       -2.68100        0.83030
C          9.32590       -3.08750       -0.61600
C          5.49110        0.82260        1.05820
N          5.98260        2.09620        1.20450
C          5.22090        3.26860        1.56330
C          4.70560        3.16250        2.99640
C          7.38670        2.09870        1.25670
O          8.04140        3.12000        1.33380
C          4.13280        0.51610        0.76180
C          3.31000        1.12170       -0.18580
N          3.71580        2.09980       -1.07230
C          5.05820        2.16710       -1.50050
C          5.78250        1.01150       -1.77550
C          7.13400        1.07850       -2.05580
C          7.78370        2.30600       -2.07160
S          9.52240        2.50980       -2.28150
C         10.11910        0.83010       -2.61870
C          7.03970        3.47040       -1.88520
C          5.69310        3.40440       -1.60780
C          2.75610        2.95040       -1.63840
C          2.80160        3.25440       -2.99760
C          1.80890        4.02650       -3.56370
C          0.76580        4.49800       -2.78040
S         -0.58050        5.38740       -3.54060
C         -1.45420        3.93660       -4.21270
C          0.74480        4.25150       -1.41830
C          1.73950        3.48350       -0.84640
C          2.03950        0.50010       -0.19740
S          0.54900        0.78110       -1.02450
C         -0.23940       -0.53560       -0.14530
C          0.63760       -1.17050        0.72450
N          0.37200       -2.22620        1.59260
C         -0.69420       -2.17420        2.49100
C         -1.28520       -0.95920        2.83450
C         -2.31310       -0.90150        3.75730
C         -2.76330       -2.05970        4.37430
S         -4.08920       -2.11100        5.54220
C         -4.30710       -0.37230        6.01990
C         -2.18520       -3.28010        4.02900
C         -1.17710       -3.33870        3.09490
C          1.41490       -3.16360        1.73030
C          2.16720       -3.49450        0.60400
C          3.22720       -4.37090        0.68290
C          3.55250       -4.95380        1.89960
S          4.86220       -6.12200        2.07750
C          5.96180       -5.69370        0.69490
C          2.80910       -4.62860        3.03040
C          1.76400       -3.73250        2.95400
C          1.92410       -0.57150        0.67390
S          3.39480       -0.87550        1.52800
C         -1.64830       -0.61510       -0.35420
C         -2.58390       -1.64180       -0.28170
N         -2.34790       -2.98600       -0.06200
C         -3.41430       -3.72940        0.49110
C         -4.08430       -3.23300        1.60410
C         -5.17600       -3.89230        2.13170
C         -5.63240       -5.05610        1.53170
S         -7.05440       -5.93890        2.08110
C         -7.88090       -4.75580        3.18300
C         -4.95350       -5.57070        0.42910
C         -3.85590       -4.91890       -0.08630
C         -1.26050       -3.67050       -0.61340
C         -0.84930       -4.87260       -0.03940
C          0.19050       -5.60240       -0.57540
C          0.85000       -5.14360       -1.70730
S          2.22150       -5.96870       -2.44910
C          2.52430       -7.38590       -1.35560
C          0.43710       -3.94970       -2.29560
C         -0.60240       -3.22070       -1.75860
C         -3.89770       -1.14480       -0.50710
S         -5.45150       -1.89920       -0.53610
C         -6.22140       -0.34280       -0.84730
C         -5.26280        0.68330       -1.05810
N         -5.54210        1.96770       -1.44140
C         -6.59290        2.26640       -2.32730
C         -7.30330        3.45500       -2.19050
C         -8.35450        3.74600       -3.03780
C         -8.72310        2.84270       -4.02430
S        -10.08510        3.08420       -5.11750
C        -11.00600        4.44790       -4.35120
C         -7.98720        1.66880       -4.18880
C         -6.92830        1.38610       -3.35770
C         -4.69620        3.00660       -1.01340
C         -4.26110        3.05220        0.30760
C         -3.41980        4.05910        0.73890
C         -3.00860        5.04550       -0.14720
S         -1.93240        6.37670        0.27590
C         -1.56660        6.10500        2.03460
C         -3.45810        5.01390       -1.46750
C         -4.28880        4.00510       -1.89810
C         -3.96450        0.20830       -0.80330
S         -2.39060        0.92810       -0.80710
C         -7.58660       -0.10440       -0.69790
C         -8.59980       -0.97290       -0.34990
C         -8.49220       -2.42860       -0.23900
O         -7.51370       -3.12570       -0.45640
C         -9.81910       -2.91750        0.17020
C        -10.17460       -4.23330        0.45800
C        -11.48260       -4.38000        0.85460
C        -12.36840       -3.29950        0.95400
C        -12.02880       -1.99760        0.66750
C        -10.70270       -1.82430        0.26210
C         -9.96590       -0.60280       -0.06830
C        -10.50400        0.66280       -0.06720
C        -11.87030        0.95050        0.12260
N        -12.96680        1.27110        0.24600
C         -9.79060        1.86510       -0.22140
N         -9.29670        2.90240       -0.28530
C        -13.50890       -4.17250        1.41600
C        -14.58720       -4.51310        0.36630
C        -15.27830       -5.72930        0.93960
C        -14.43960       -6.75290        0.84280
C        -13.16750       -6.24600        0.20240
C        -13.75000       -5.17900       -0.73330
C        -12.52130       -5.37820        1.30290
H         10.76910       -0.70980        0.35610
H         14.20450        2.96840       -1.00220
H         11.02490        5.28950        2.18950
H         13.71120        7.32930        1.45190
H         11.96750        8.57070        0.17960
H         10.63360        6.77690       -1.18380
H         12.30920        5.59120       -2.86100
H         14.68360        6.65040       -2.53440
H         14.47880        8.68290       -0.78240
H         13.28950        8.85810       -2.09730
H         15.34690        6.17610       -0.17980
H          8.42790       -3.44680        1.30460
H          9.97740       -2.58310        1.39660
H          9.95680       -2.35850       -1.12050
H          8.38830       -3.17460       -1.16000
H          9.82960       -4.04990       -0.63620
H          4.38810        3.40800        0.87240
H          5.90810        4.11330        1.46950
H          4.17150        4.07010        3.26400
H          5.53650        3.03090        3.68570
H          4.03250        2.31360        3.09890
H          5.29220        0.04950       -1.74940
H          7.66650        0.16130       -2.24880
H          9.86330        0.17770       -1.78950
H          9.70160        0.46750       -3.55360
H         11.19910        0.90820       -2.69700
H          7.54050        4.42450       -1.93150
H          5.12870        4.31090       -1.44760
H          3.60600        2.86470       -3.60350
H          1.83040        4.25150       -4.61930
H         -1.75890        3.29290       -3.39180
H         -2.32340        4.31270       -4.74130
H         -0.80010        3.40410       -4.89660
H         -0.05360        4.65740       -0.81820
H          1.72900        3.28390        0.21540
H         -0.92940       -0.04180        2.39040
H         -2.74730        0.05830        3.98960
H         -3.35370        0.04150        6.33440
H         -5.00060       -0.38100        6.85500
H         -4.73270        0.19570        5.19720
H         -2.54760       -4.18340        4.49460
H         -0.74920       -4.29270        2.83280
H          1.92090       -3.05190       -0.34850
H          3.79050       -4.58730       -0.20950
H          5.57350       -6.09410       -0.23770
H          6.91660       -6.15840        0.92150
H          6.06170       -4.61310        0.65350
H          3.07530       -5.06890        3.97900
H          1.23470       -3.45600        3.85290
H         -3.76140       -2.30140        2.03950
H         -5.66060       -3.47780        3.00040
H         -7.31210       -4.63210        4.10020
H         -8.85210       -5.18570        3.40780
H         -8.00550       -3.81010        2.66380
H         -5.31530       -6.47510       -0.03480
H         -3.35570       -5.31120       -0.95900
H         -1.36120       -5.24510        0.83410
H          0.47760       -6.52340       -0.09530
H          2.72760       -7.04080       -0.34580
H          3.39870       -7.88590       -1.76140
H          1.67460       -8.06190       -1.37830
H          0.94100       -3.60040       -3.18440
H         -0.91910       -2.31040       -2.24410
H         -7.04440        4.14790       -1.40570
H         -8.88910        4.67030       -2.89780
H        -10.46020        5.38050       -4.46190
H        -11.19110        4.21880       -3.30590
H        -11.94600        4.50680       -4.89100
H         -8.25940        0.98420       -4.97740
H         -6.36450        0.47510       -3.49170
H         -4.59250        2.29510        1.00330
H         -3.10140        4.06490        1.76860
H         -1.06980        5.14880        2.17110
H         -0.89690        6.91080        2.31870
H         -2.48030        6.16370        2.61870
H         -3.13120        5.78380       -2.14880
H         -4.62670        3.97890       -2.92310
H         -7.87160        0.93360       -0.81430
H         -9.45560       -5.03390        0.37790
H        -12.72270       -1.17860        0.75620
H        -13.92600       -3.93050        2.39190
H        -15.22150       -3.67910        0.07870
H        -16.25230       -5.70810        1.39240
H        -14.57310       -7.75780        1.19860
H        -12.50860       -6.99130       -0.23480
H        -14.36970       -5.61230       -1.51660
H        -13.00340       -4.52490       -1.17970
H        -12.28200       -5.94240        2.20270
