
  xtb     02042219043D
 energy: -375.825228360373 gnorm: 0.000639211466 xtb: 6.4.1 (unknown)
225247  0     0  0            999 V2000
    7.9396   -7.4083   -3.3314 C   0  0  0  0  0  0  0  0  0  0  0  0
    8.4028   -7.4420   -4.6044 C   0  0  0  0  0  0  0  0  0  0  0  0
    9.1387   -8.6456   -5.0896 C   0  0  0  0  0  0  0  0  0  0  0  0
    9.5839   -9.5389   -4.4064 O   0  0  0  0  0  0  0  0  0  0  0  0
    9.1495   -8.5309   -6.5586 C   0  0  0  0  0  0  0  0  0  0  0  0
    9.6252   -9.4687   -7.4743 C   0  0  0  0  0  0  0  0  0  0  0  0
    9.4829   -9.0919   -8.7879 C   0  0  0  0  0  0  0  0  0  0  0  0
    8.8909   -7.8795   -9.1703 C   0  0  0  0  0  0  0  0  0  0  0  0
    8.4192   -6.9441   -8.2811 C   0  0  0  0  0  0  0  0  0  0  0  0
    8.5765   -7.2977   -6.9376 C   0  0  0  0  0  0  0  0  0  0  0  0
    8.2598   -6.5384   -5.7312 C   0  0  0  0  0  0  0  0  0  0  0  0
    8.1203   -5.1777   -5.6734 C   0  0  0  0  0  0  0  0  0  0  0  0
    8.0883   -4.3374   -6.8062 C   0  0  0  0  0  0  0  0  0  0  0  0
    8.0416   -3.6072   -7.6903 N   0  0  0  0  0  0  0  0  0  0  0  0
    8.0903   -4.4302   -4.4773 C   0  0  0  0  0  0  0  0  0  0  0  0
    8.1128   -3.7570   -3.5479 N   0  0  0  0  0  0  0  0  0  0  0  0
    9.0718   -8.1622  -10.6402 C   0  0  0  0  0  0  0  0  0  0  0  0
   10.2243   -7.4146  -11.3441 C   0  0  0  0  0  0  0  0  0  0  0  0
   10.4685   -8.2239  -12.5973 C   0  0  0  0  0  0  0  0  0  0  0  0
   11.0366   -9.3670  -12.2350 C   0  0  0  0  0  0  0  0  0  0  0  0
   11.1859   -9.3498  -10.7307 C   0  0  0  0  0  0  0  0  0  0  0  0
   11.4340   -7.8522  -10.5080 C   0  0  0  0  0  0  0  0  0  0  0  0
    9.7395   -9.5092  -10.2145 C   0  0  0  0  0  0  0  0  0  0  0  0
    6.9666   -6.5307   -2.7784 C   0  0  0  0  0  0  0  0  0  0  0  0
    5.9368   -5.8871   -3.4080 C   0  0  0  0  0  0  0  0  0  0  0  0
    5.1707   -5.0645   -2.5524 C   0  0  0  0  0  0  0  0  0  0  0  0
    4.0859   -4.2391   -2.8929 C   0  0  0  0  0  0  0  0  0  0  0  0
    3.4416   -4.2989   -4.2083 C   0  0  0  0  0  0  0  0  0  0  0  0
    3.1321   -5.5341   -4.7774 C   0  0  0  0  0  0  0  0  0  0  0  0
    2.4609   -5.5950   -5.9851 C   0  0  0  0  0  0  0  0  0  0  0  0
    2.0431   -4.4364   -6.6148 C   0  0  0  0  0  0  0  0  0  0  0  0
    2.3201   -3.2056   -6.0352 C   0  0  0  0  0  0  0  0  0  0  0  0
    1.7032   -1.7363   -6.8175 S   0  0  0  0  0  0  0  0  0  0  0  0
    0.9481   -0.8742   -5.3891 C   0  0  0  0  0  0  0  0  0  0  0  0
   -0.1311   -1.7014   -4.7206 C   0  0  0  0  0  0  0  0  0  0  0  0
    3.0500   -3.1346   -4.8603 C   0  0  0  0  0  0  0  0  0  0  0  0
    3.5938   -3.4273   -1.8832 C   0  0  0  0  0  0  0  0  0  0  0  0
    4.0411   -3.4884   -0.5398 C   0  0  0  0  0  0  0  0  0  0  0  0
    5.1143   -4.3232   -0.1991 C   0  0  0  0  0  0  0  0  0  0  0  0
    5.6552   -4.4078    1.1663 C   0  0  0  0  0  0  0  0  0  0  0  0
    4.8409   -4.7173    2.2512 C   0  0  0  0  0  0  0  0  0  0  0  0
    5.3815   -4.8391    3.5192 C   0  0  0  0  0  0  0  0  0  0  0  0
    6.7371   -4.6542    3.7223 C   0  0  0  0  0  0  0  0  0  0  0  0
    7.5507   -4.3441    2.6430 C   0  0  0  0  0  0  0  0  0  0  0  0
    9.3040   -4.1125    2.8770 S   0  0  0  0  0  0  0  0  0  0  0  0
    9.7564   -5.8443    3.2632 C   0  0  0  0  0  0  0  0  0  0  0  0
    9.5777   -6.7498    2.0608 C   0  0  0  0  0  0  0  0  0  0  0  0
    7.0177   -4.2130    1.3733 C   0  0  0  0  0  0  0  0  0  0  0  0
    5.6686   -5.0736   -1.2258 C   0  0  0  0  0  0  0  0  0  0  0  0
    7.0030   -6.1807   -1.0611 S   0  0  0  0  0  0  0  0  0  0  0  0
    3.2673   -2.6541    0.3142 C   0  0  0  0  0  0  0  0  0  0  0  0
    2.2871   -1.9761   -0.3333 C   0  0  0  0  0  0  0  0  0  0  0  0
    2.3031   -2.2746   -2.0615 S   0  0  0  0  0  0  0  0  0  0  0  0
    1.2263   -1.1644    0.2049 C   0  0  0  0  0  0  0  0  0  0  0  0
    0.2212   -1.5715    1.0602 C   0  0  0  0  0  0  0  0  0  0  0  0
    0.0929   -2.8276    1.6322 N   0  0  0  0  0  0  0  0  0  0  0  0
    0.5353   -3.9683    0.9522 C   0  0  0  0  0  0  0  0  0  0  0  0
    1.2125   -4.9787    1.6290 C   0  0  0  0  0  0  0  0  0  0  0  0
    1.7770   -6.0335    0.9371 C   0  0  0  0  0  0  0  0  0  0  0  0
    1.6869   -6.0853   -0.4471 C   0  0  0  0  0  0  0  0  0  0  0  0
    2.5100   -7.2922   -1.4388 S   0  0  0  0  0  0  0  0  0  0  0  0
    3.7173   -8.0247   -0.2976 C   0  0  0  0  0  0  0  0  0  0  0  0
    0.9189   -5.1359   -1.1162 C   0  0  0  0  0  0  0  0  0  0  0  0
    0.3384   -4.0968   -0.4237 C   0  0  0  0  0  0  0  0  0  0  0  0
   -0.4403   -2.9208    2.9262 C   0  0  0  0  0  0  0  0  0  0  0  0
   -1.3002   -3.9653    3.2655 C   0  0  0  0  0  0  0  0  0  0  0  0
   -1.8779   -4.0072    4.5147 C   0  0  0  0  0  0  0  0  0  0  0  0
   -1.6155   -3.0081    5.4502 C   0  0  0  0  0  0  0  0  0  0  0  0
   -2.4337   -3.1261    7.0105 S   0  0  0  0  0  0  0  0  0  0  0  0
   -2.3511   -1.4303    7.6539 C   0  0  0  0  0  0  0  0  0  0  0  0
   -0.7266   -1.9912    5.1323 C   0  0  0  0  0  0  0  0  0  0  0  0
   -0.1421   -1.9526    3.8820 C   0  0  0  0  0  0  0  0  0  0  0  0
   -0.7082   -0.5204    1.2704 C   0  0  0  0  0  0  0  0  0  0  0  0
   -2.1466   -0.3809    2.2102 S   0  0  0  0  0  0  0  0  0  0  0  0
   -2.3659    1.2734    1.6567 C   0  0  0  0  0  0  0  0  0  0  0  0
   -1.3349    1.7093    0.8312 C   0  0  0  0  0  0  0  0  0  0  0  0
   -1.1440    3.0044    0.3933 N   0  0  0  0  0  0  0  0  0  0  0  0
   -0.4222    3.2522   -0.7860 C   0  0  0  0  0  0  0  0  0  0  0  0
    0.4865    4.3108   -0.8323 C   0  0  0  0  0  0  0  0  0  0  0  0
    1.1942    4.5662   -1.9825 C   0  0  0  0  0  0  0  0  0  0  0  0
    1.0242    3.7670   -3.1134 C   0  0  0  0  0  0  0  0  0  0  0  0
    1.9860    4.2122   -4.5221 S   0  0  0  0  0  0  0  0  0  0  0  0
    1.7415    2.8355   -5.6779 C   0  0  0  0  0  0  0  0  0  0  0  0
    0.1200    2.7146   -3.0730 C   0  0  0  0  0  0  0  0  0  0  0  0
   -0.6019    2.4656   -1.9198 C   0  0  0  0  0  0  0  0  0  0  0  0
   -1.5779    4.0985    1.1605 C   0  0  0  0  0  0  0  0  0  0  0  0
   -1.4983    4.0816    2.5499 C   0  0  0  0  0  0  0  0  0  0  0  0
   -2.0476    5.1018    3.3011 C   0  0  0  0  0  0  0  0  0  0  0  0
   -2.6691    6.1706    2.6701 C   0  0  0  0  0  0  0  0  0  0  0  0
   -3.4871    7.4731    3.5372 S   0  0  0  0  0  0  0  0  0  0  0  0
   -3.6810    6.8080    5.2142 C   0  0  0  0  0  0  0  0  0  0  0  0
   -2.6644    6.2406    1.2789 C   0  0  0  0  0  0  0  0  0  0  0  0
   -2.1347    5.2130    0.5320 C   0  0  0  0  0  0  0  0  0  0  0  0
   -0.4210    0.6484    0.5863 C   0  0  0  0  0  0  0  0  0  0  0  0
    1.0059    0.4777   -0.3761 S   0  0  0  0  0  0  0  0  0  0  0  0
   -3.4705    2.0074    2.1798 C   0  0  0  0  0  0  0  0  0  0  0  0
   -4.1947    3.0075    1.5999 C   0  0  0  0  0  0  0  0  0  0  0  0
   -5.1046    3.6379    2.4813 C   0  0  0  0  0  0  0  0  0  0  0  0
   -5.8796    4.7837    2.2446 C   0  0  0  0  0  0  0  0  0  0  0  0
   -5.9506    5.4156    0.9220 C   0  0  0  0  0  0  0  0  0  0  0  0
   -6.1759    4.6597   -0.2249 C   0  0  0  0  0  0  0  0  0  0  0  0
   -6.2554    5.2845   -1.4581 C   0  0  0  0  0  0  0  0  0  0  0  0
   -6.1383    6.6565   -1.5608 C   0  0  0  0  0  0  0  0  0  0  0  0
   -5.9339    7.4207   -0.4143 C   0  0  0  0  0  0  0  0  0  0  0  0
   -5.8073    9.1687   -0.6009 S   0  0  0  0  0  0  0  0  0  0  0  0
   -6.1509    9.7970    1.0876 C   0  0  0  0  0  0  0  0  0  0  0  0
   -6.4858   11.2742    1.0057 C   0  0  0  0  0  0  0  0  0  0  0  0
   -5.8213    6.7965    0.8174 C   0  0  0  0  0  0  0  0  0  0  0  0
   -6.5682    5.3070    3.3312 C   0  0  0  0  0  0  0  0  0  0  0  0
   -6.5644    4.7003    4.6185 C   0  0  0  0  0  0  0  0  0  0  0  0
   -5.8005    3.5329    4.8511 C   0  0  0  0  0  0  0  0  0  0  0  0
   -5.7191    2.8887    6.1676 C   0  0  0  0  0  0  0  0  0  0  0  0
   -5.4410    3.6195    7.3185 C   0  0  0  0  0  0  0  0  0  0  0  0
   -5.3316    2.9696    8.5369 C   0  0  0  0  0  0  0  0  0  0  0  0
   -5.4822    1.6006    8.6180 C   0  0  0  0  0  0  0  0  0  0  0  0
   -5.7537    0.8591    7.4683 C   0  0  0  0  0  0  0  0  0  0  0  0
   -5.9229   -0.8843    7.6690 S   0  0  0  0  0  0  0  0  0  0  0  0
   -6.0029   -1.5267    5.9552 C   0  0  0  0  0  0  0  0  0  0  0  0
   -6.0194   -3.0425    5.9952 C   0  0  0  0  0  0  0  0  0  0  0  0
   -5.8805    1.5077    6.2509 C   0  0  0  0  0  0  0  0  0  0  0  0
   -5.0877    3.0457    3.7737 C   0  0  0  0  0  0  0  0  0  0  0  0
   -3.9641    1.7103    3.8382 S   0  0  0  0  0  0  0  0  0  0  0  0
   -7.3819    5.3976    5.5174 C   0  0  0  0  0  0  0  0  0  0  0  0
   -7.9683    6.5352    4.9820 C   0  0  0  0  0  0  0  0  0  0  0  0
   -7.5362    6.7498    3.2982 S   0  0  0  0  0  0  0  0  0  0  0  0
   -8.7767    7.3879    5.7539 C   0  0  0  0  0  0  0  0  0  0  0  0
   -9.3658    8.5866    5.4408 C   0  0  0  0  0  0  0  0  0  0  0  0
   -9.2827    9.2880    4.1518 C   0  0  0  0  0  0  0  0  0  0  0  0
   -8.7182    8.9392    3.1337 O   0  0  0  0  0  0  0  0  0  0  0  0
  -10.0411   10.5429    4.3252 C   0  0  0  0  0  0  0  0  0  0  0  0
  -10.2468   11.5512    3.4077 C   0  0  0  0  0  0  0  0  0  0  0  0
  -11.0061   12.6466    3.7974 C   0  0  0  0  0  0  0  0  0  0  0  0
  -11.3046   14.0505    2.5672 Br  0  0  0  0  0  0  0  0  0  0  0  0
  -11.5412   12.7085    5.0854 C   0  0  0  0  0  0  0  0  0  0  0  0
  -12.5776   14.2014    5.6080 Br  0  0  0  0  0  0  0  0  0  0  0  0
  -11.3291   11.6896    6.0079 C   0  0  0  0  0  0  0  0  0  0  0  0
  -10.5697   10.5957    5.6262 C   0  0  0  0  0  0  0  0  0  0  0  0
  -10.1627    9.3910    6.3491 C   0  0  0  0  0  0  0  0  0  0  0  0
  -10.4870    9.1127    7.6520 C   0  0  0  0  0  0  0  0  0  0  0  0
  -10.0892    7.9730    8.3823 C   0  0  0  0  0  0  0  0  0  0  0  0
   -9.8076    7.0842    9.0534 N   0  0  0  0  0  0  0  0  0  0  0  0
  -11.2773    9.9540    8.4644 C   0  0  0  0  0  0  0  0  0  0  0  0
  -11.9101   10.5949    9.1756 N   0  0  0  0  0  0  0  0  0  0  0  0
    8.3341   -8.1730   -2.6695 H   0  0  0  0  0  0  0  0  0  0  0  0
   10.0630  -10.3962   -7.1400 H   0  0  0  0  0  0  0  0  0  0  0  0
    7.9554   -6.0205   -8.5860 H   0  0  0  0  0  0  0  0  0  0  0  0
    8.1603   -8.1963  -11.2336 H   0  0  0  0  0  0  0  0  0  0  0  0
   10.0626   -6.3480  -11.4722 H   0  0  0  0  0  0  0  0  0  0  0  0
   10.1635   -7.9150  -13.5798 H   0  0  0  0  0  0  0  0  0  0  0  0
   11.3010  -10.2039  -12.8544 H   0  0  0  0  0  0  0  0  0  0  0  0
   11.9016  -10.0459  -10.3020 H   0  0  0  0  0  0  0  0  0  0  0  0
   12.3755   -7.5226  -10.9437 H   0  0  0  0  0  0  0  0  0  0  0  0
   11.3884   -7.5434   -9.4652 H   0  0  0  0  0  0  0  0  0  0  0  0
    9.2772  -10.4435  -10.5274 H   0  0  0  0  0  0  0  0  0  0  0  0
    5.7276   -6.0001   -4.4570 H   0  0  0  0  0  0  0  0  0  0  0  0
    3.3821   -6.4421   -4.2499 H   0  0  0  0  0  0  0  0  0  0  0  0
    2.2328   -6.5552   -6.4235 H   0  0  0  0  0  0  0  0  0  0  0  0
    1.4906   -4.4749   -7.5406 H   0  0  0  0  0  0  0  0  0  0  0  0
    1.7330   -0.6051   -4.6829 H   0  0  0  0  0  0  0  0  0  0  0  0
    0.5312    0.0302   -5.8309 H   0  0  0  0  0  0  0  0  0  0  0  0
   -0.5757   -1.1329   -3.9058 H   0  0  0  0  0  0  0  0  0  0  0  0
   -0.9086   -1.9625   -5.4349 H   0  0  0  0  0  0  0  0  0  0  0  0
    0.2892   -2.6173   -4.3101 H   0  0  0  0  0  0  0  0  0  0  0  0
    3.3295   -2.1752   -4.4536 H   0  0  0  0  0  0  0  0  0  0  0  0
    3.7859   -4.8781    2.0925 H   0  0  0  0  0  0  0  0  0  0  0  0
    4.7411   -5.0795    4.3553 H   0  0  0  0  0  0  0  0  0  0  0  0
    7.1617   -4.7420    4.7110 H   0  0  0  0  0  0  0  0  0  0  0  0
   10.8002   -5.7933    3.5696 H   0  0  0  0  0  0  0  0  0  0  0  0
    9.1487   -6.1704    4.1072 H   0  0  0  0  0  0  0  0  0  0  0  0
    8.5340   -6.7775    1.7511 H   0  0  0  0  0  0  0  0  0  0  0  0
   10.1735   -6.3902    1.2252 H   0  0  0  0  0  0  0  0  0  0  0  0
    9.8952   -7.7612    2.3070 H   0  0  0  0  0  0  0  0  0  0  0  0
    7.6637   -3.9468    0.5510 H   0  0  0  0  0  0  0  0  0  0  0  0
    3.4397   -2.5674    1.3718 H   0  0  0  0  0  0  0  0  0  0  0  0
    1.3149   -4.9221    2.7032 H   0  0  0  0  0  0  0  0  0  0  0  0
    2.3037   -6.7980    1.4861 H   0  0  0  0  0  0  0  0  0  0  0  0
    4.2822   -7.2370    0.1928 H   0  0  0  0  0  0  0  0  0  0  0  0
    4.3786   -8.6255   -0.9144 H   0  0  0  0  0  0  0  0  0  0  0  0
    3.2154   -8.6609    0.4258 H   0  0  0  0  0  0  0  0  0  0  0  0
    0.8017   -5.2132   -2.1868 H   0  0  0  0  0  0  0  0  0  0  0  0
   -0.2489   -3.3585   -0.9492 H   0  0  0  0  0  0  0  0  0  0  0  0
   -1.5243   -4.7287    2.5355 H   0  0  0  0  0  0  0  0  0  0  0  0
   -2.5558   -4.8053    4.7754 H   0  0  0  0  0  0  0  0  0  0  0  0
   -3.0804   -1.3853    8.4569 H   0  0  0  0  0  0  0  0  0  0  0  0
   -2.6233   -0.7310    6.8690 H   0  0  0  0  0  0  0  0  0  0  0  0
   -1.3587   -1.2201    8.0426 H   0  0  0  0  0  0  0  0  0  0  0  0
   -0.4770   -1.2270    5.8507 H   0  0  0  0  0  0  0  0  0  0  0  0
    0.5549   -1.1624    3.6429 H   0  0  0  0  0  0  0  0  0  0  0  0
    0.6337    4.9253    0.0429 H   0  0  0  0  0  0  0  0  0  0  0  0
    1.8980    5.3831   -2.0202 H   0  0  0  0  0  0  0  0  0  0  0  0
    2.3932    3.0403   -6.5214 H   0  0  0  0  0  0  0  0  0  0  0  0
    2.0366    1.9060   -5.2018 H   0  0  0  0  0  0  0  0  0  0  0  0
    0.7089    2.8036   -6.0134 H   0  0  0  0  0  0  0  0  0  0  0  0
   -0.0420    2.0856   -3.9334 H   0  0  0  0  0  0  0  0  0  0  0  0
   -1.3217    1.6601   -1.9038 H   0  0  0  0  0  0  0  0  0  0  0  0
   -1.0187    3.2533    3.0504 H   0  0  0  0  0  0  0  0  0  0  0  0
   -1.9845    5.0478    4.3762 H   0  0  0  0  0  0  0  0  0  0  0  0
   -2.7289    6.8159    5.7374 H   0  0  0  0  0  0  0  0  0  0  0  0
   -4.0931    5.8045    5.1586 H   0  0  0  0  0  0  0  0  0  0  0  0
   -4.3800    7.4708    5.7157 H   0  0  0  0  0  0  0  0  0  0  0  0
   -3.1054    7.0931    0.7880 H   0  0  0  0  0  0  0  0  0  0  0  0
   -2.1733    5.2564   -0.5461 H   0  0  0  0  0  0  0  0  0  0  0  0
   -4.0595    3.3115    0.5791 H   0  0  0  0  0  0  0  0  0  0  0  0
   -6.3178    3.5921   -0.1468 H   0  0  0  0  0  0  0  0  0  0  0  0
   -6.4276    4.6956   -2.3470 H   0  0  0  0  0  0  0  0  0  0  0  0
   -6.2130    7.1490   -2.5179 H   0  0  0  0  0  0  0  0  0  0  0  0
   -6.9918    9.2293    1.4848 H   0  0  0  0  0  0  0  0  0  0  0  0
   -5.2631    9.6344    1.7005 H   0  0  0  0  0  0  0  0  0  0  0  0
   -5.6516   11.8371    0.5929 H   0  0  0  0  0  0  0  0  0  0  0  0
   -7.3542   11.4320    0.3702 H   0  0  0  0  0  0  0  0  0  0  0  0
   -6.7044   11.6535    2.0020 H   0  0  0  0  0  0  0  0  0  0  0  0
   -5.5991    7.3708    1.7004 H   0  0  0  0  0  0  0  0  0  0  0  0
   -5.2845    4.6863    7.2573 H   0  0  0  0  0  0  0  0  0  0  0  0
   -5.1179    3.5378    9.4297 H   0  0  0  0  0  0  0  0  0  0  0  0
   -5.3920    1.0894    9.5639 H   0  0  0  0  0  0  0  0  0  0  0  0
   -6.9137   -1.1416    5.4952 H   0  0  0  0  0  0  0  0  0  0  0  0
   -5.1264   -1.1581    5.4210 H   0  0  0  0  0  0  0  0  0  0  0  0
   -6.8864   -3.3997    6.5460 H   0  0  0  0  0  0  0  0  0  0  0  0
   -5.1217   -3.4202    6.4782 H   0  0  0  0  0  0  0  0  0  0  0  0
   -6.0619   -3.4339    4.9810 H   0  0  0  0  0  0  0  0  0  0  0  0
   -6.1277    0.9620    5.3550 H   0  0  0  0  0  0  0  0  0  0  0  0
   -7.5524    5.0884    6.5338 H   0  0  0  0  0  0  0  0  0  0  0  0
   -8.9269    7.0232    6.7630 H   0  0  0  0  0  0  0  0  0  0  0  0
   -9.8282   11.4877    2.4152 H   0  0  0  0  0  0  0  0  0  0  0  0
  -11.7591   11.7770    6.9922 H   0  0  0  0  0  0  0  0  0  0  0  0
  1  2  2  0  0  0  0
  2  3  1  0  0  0  0
  3  4  2  0  0  0  0
  3  5  1  0  0  0  0
  5  6  2  0  0  0  0
  6  7  1  0  0  0  0
  7  8  2  0  0  0  0
  8  9  1  0  0  0  0
  9 10  2  0  0  0  0
 10 11  1  0  0  0  0
 11 12  2  0  0  0  0
 12 13  1  0  0  0  0
 13 14  3  0  0  0  0
 12 15  1  0  0  0  0
 15 16  3  0  0  0  0
  8 17  1  0  0  0  0
 17 18  1  0  0  0  0
 18 19  1  0  0  0  0
 19 20  2  0  0  0  0
 20 21  1  0  0  0  0
 21 22  1  0  0  0  0
 21 23  1  0  0  0  0
  1 24  1  0  0  0  0
 24 25  2  0  0  0  0
 25 26  1  0  0  0  0
 26 27  2  0  0  0  0
 27 28  1  0  0  0  0
 28 29  2  0  0  0  0
 29 30  1  0  0  0  0
 30 31  2  0  0  0  0
 31 32  1  0  0  0  0
 32 33  1  0  0  0  0
 33 34  1  0  0  0  0
 34 35  1  0  0  0  0
 32 36  2  0  0  0  0
 27 37  1  0  0  0  0
 37 38  2  0  0  0  0
 38 39  1  0  0  0  0
 39 40  1  0  0  0  0
 40 41  2  0  0  0  0
 41 42  1  0  0  0  0
 42 43  2  0  0  0  0
 43 44  1  0  0  0  0
 44 45  1  0  0  0  0
 45 46  1  0  0  0  0
 46 47  1  0  0  0  0
 44 48  2  0  0  0  0
 39 49  2  0  0  0  0
 49 50  1  0  0  0  0
 38 51  1  0  0  0  0
 51 52  2  0  0  0  0
 52 53  1  0  0  0  0
 52 54  1  0  0  0  0
 54 55  2  0  0  0  0
 55 56  1  0  0  0  0
 56 57  1  0  0  0  0
 57 58  2  0  0  0  0
 58 59  1  0  0  0  0
 59 60  2  0  0  0  0
 60 61  1  0  0  0  0
 61 62  1  0  0  0  0
 60 63  1  0  0  0  0
 63 64  2  0  0  0  0
 56 65  1  0  0  0  0
 65 66  2  0  0  0  0
 66 67  1  0  0  0  0
 67 68  2  0  0  0  0
 68 69  1  0  0  0  0
 69 70  1  0  0  0  0
 68 71  1  0  0  0  0
 71 72  2  0  0  0  0
 55 73  1  0  0  0  0
 73 74  1  0  0  0  0
 74 75  1  0  0  0  0
 75 76  2  0  0  0  0
 76 77  1  0  0  0  0
 77 78  1  0  0  0  0
 78 79  2  0  0  0  0
 79 80  1  0  0  0  0
 80 81  2  0  0  0  0
 81 82  1  0  0  0  0
 82 83  1  0  0  0  0
 81 84  1  0  0  0  0
 84 85  2  0  0  0  0
 77 86  1  0  0  0  0
 86 87  2  0  0  0  0
 87 88  1  0  0  0  0
 88 89  2  0  0  0  0
 89 90  1  0  0  0  0
 90 91  1  0  0  0  0
 89 92  1  0  0  0  0
 92 93  2  0  0  0  0
 76 94  1  0  0  0  0
 94 95  1  0  0  0  0
 75 96  1  0  0  0  0
 96 97  2  0  0  0  0
 97 98  1  0  0  0  0
 98 99  2  0  0  0  0
 99100  1  0  0  0  0
100101  2  0  0  0  0
101102  1  0  0  0  0
102103  2  0  0  0  0
103104  1  0  0  0  0
104105  1  0  0  0  0
105106  1  0  0  0  0
106107  1  0  0  0  0
104108  2  0  0  0  0
 99109  1  0  0  0  0
109110  2  0  0  0  0
110111  1  0  0  0  0
111112  1  0  0  0  0
112113  2  0  0  0  0
113114  1  0  0  0  0
114115  2  0  0  0  0
115116  1  0  0  0  0
116117  1  0  0  0  0
117118  1  0  0  0  0
118119  1  0  0  0  0
116120  2  0  0  0  0
111121  2  0  0  0  0
121122  1  0  0  0  0
110123  1  0  0  0  0
123124  2  0  0  0  0
124125  1  0  0  0  0
124126  1  0  0  0  0
126127  2  0  0  0  0
127128  1  0  0  0  0
128129  2  0  0  0  0
128130  1  0  0  0  0
130131  2  0  0  0  0
131132  1  0  0  0  0
132133  1  0  0  0  0
132134  2  0  0  0  0
134135  1  0  0  0  0
134136  1  0  0  0  0
136137  2  0  0  0  0
137138  1  0  0  0  0
138139  2  0  0  0  0
139140  1  0  0  0  0
140141  3  0  0  0  0
139142  1  0  0  0  0
142143  3  0  0  0  0
 11  2  1  0  0  0  0
 23 17  1  0  0  0  0
 50 24  1  0  0  0  0
 95 54  1  0  0  0  0
122 96  1  0  0  0  0
138127  1  0  0  0  0
 10  5  1  0  0  0  0
 22 18  1  0  0  0  0
 49 26  1  0  0  0  0
 64 57  1  0  0  0  0
 72 65  1  0  0  0  0
 94 73  2  0  0  0  0
121 98  1  0  0  0  0
137130  1  0  0  0  0
 23  7  1  0  0  0  0
 36 28  1  0  0  0  0
 53 37  1  0  0  0  0
 85 78  1  0  0  0  0
 93 86  1  0  0  0  0
108100  1  0  0  0  0
125109  1  0  0  0  0
 48 40  1  0  0  0  0
120112  1  0  0  0  0
  1144  1  0  0  0  0
  6145  1  0  0  0  0
  9146  1  0  0  0  0
 17147  1  0  0  0  0
 18148  1  0  0  0  0
 19149  1  0  0  0  0
 20150  1  0  0  0  0
 21151  1  0  0  0  0
 22152  1  0  0  0  0
 22153  1  0  0  0  0
 23154  1  0  0  0  0
 25155  1  0  0  0  0
 29156  1  0  0  0  0
 30157  1  0  0  0  0
 31158  1  0  0  0  0
 34159  1  0  0  0  0
 34160  1  0  0  0  0
 35161  1  0  0  0  0
 35162  1  0  0  0  0
 35163  1  0  0  0  0
 36164  1  0  0  0  0
 41165  1  0  0  0  0
 42166  1  0  0  0  0
 43167  1  0  0  0  0
 46168  1  0  0  0  0
 46169  1  0  0  0  0
 47170  1  0  0  0  0
 47171  1  0  0  0  0
 47172  1  0  0  0  0
 48173  1  0  0  0  0
 51174  1  0  0  0  0
 58175  1  0  0  0  0
 59176  1  0  0  0  0
 62177  1  0  0  0  0
 62178  1  0  0  0  0
 62179  1  0  0  0  0
 63180  1  0  0  0  0
 64181  1  0  0  0  0
 66182  1  0  0  0  0
 67183  1  0  0  0  0
 70184  1  0  0  0  0
 70185  1  0  0  0  0
 70186  1  0  0  0  0
 71187  1  0  0  0  0
 72188  1  0  0  0  0
 79189  1  0  0  0  0
 80190  1  0  0  0  0
 83191  1  0  0  0  0
 83192  1  0  0  0  0
 83193  1  0  0  0  0
 84194  1  0  0  0  0
 85195  1  0  0  0  0
 87196  1  0  0  0  0
 88197  1  0  0  0  0
 91198  1  0  0  0  0
 91199  1  0  0  0  0
 91200  1  0  0  0  0
 92201  1  0  0  0  0
 93202  1  0  0  0  0
 97203  1  0  0  0  0
101204  1  0  0  0  0
102205  1  0  0  0  0
103206  1  0  0  0  0
106207  1  0  0  0  0
106208  1  0  0  0  0
107209  1  0  0  0  0
107210  1  0  0  0  0
107211  1  0  0  0  0
108212  1  0  0  0  0
113213  1  0  0  0  0
114214  1  0  0  0  0
115215  1  0  0  0  0
118216  1  0  0  0  0
118217  1  0  0  0  0
119218  1  0  0  0  0
119219  1  0  0  0  0
119220  1  0  0  0  0
120221  1  0  0  0  0
123222  1  0  0  0  0
126223  1  0  0  0  0
131224  1  0  0  0  0
136225  1  0  0  0  0
M  END
