183

C          3.00530       -6.07090       -3.00280
C          2.84510       -6.45930       -4.28760
C          3.93560       -7.13620       -5.04090
O          4.90800       -7.68710       -4.58180
C          3.61460       -6.89370       -6.46260
C          4.41590       -7.18150       -7.56500
C          3.88400       -6.77750       -8.76600
C          2.64160       -6.13630       -8.87170
C          1.83360       -5.85590       -7.79660
C          2.35990       -6.25410       -6.56510
C          1.79690       -6.12120       -5.22970
C          0.48910       -5.87180       -4.90920
C         -0.01220       -6.03390       -3.60500
N         -0.46440       -6.20110       -2.56250
C         -0.50310       -5.48910       -5.83370
N         -1.33660       -5.12200       -6.53280
C          2.75890       -5.98180      -10.36710
C          3.13920       -4.58310      -10.91340
C          3.91980       -3.89460       -9.82130
C          5.09560       -4.50010       -9.72090
C          5.13110       -5.60930      -10.74310
C          4.28520       -4.97600      -11.85920
C          4.14250       -6.69560      -10.24960
C          2.29130       -4.97900       -2.35890
C          2.20050       -3.71790       -2.95980
S          3.01700       -3.40620       -4.50560
C          4.08740       -1.97870       -4.03920
C          4.02620       -0.87600       -5.07420
C          1.49930       -2.70140       -2.31590
S          0.95080       -1.28770       -3.24520
C         -0.07880       -2.13180       -4.52310
C          0.30640       -1.76790       -5.94100
C          1.14440       -2.81160       -0.95510
C          1.22540       -4.08160       -0.34960
C          1.70710       -5.16630       -1.10000
C          1.60630       -6.57480       -0.68000
O          2.02970       -7.47690       -1.38460
C          0.94550       -6.77930        0.60000
C          0.63750       -5.67870        1.45110
C          0.90250       -4.28480        1.08000
O          0.89610       -3.38930        1.90520
C          0.06770       -6.08290        2.62410
S         -0.12870       -7.78540        2.69220
C          0.58920       -7.97840        1.15050
C          0.75750       -1.60360       -0.26230
C         -0.25120       -1.32760        0.64860
N         -1.26690       -2.17720        1.00930
C         -1.76520       -3.14980        0.13550
C         -2.21220       -4.36530        0.64610
C         -2.75220       -5.32470       -0.18740
C         -2.86680       -5.07870       -1.54850
S         -3.60450       -6.21440       -2.67660
C         -3.26740       -7.81760       -1.89210
C         -2.43170       -3.85810       -2.06210
C         -1.88080       -2.90740       -1.23460
C         -1.96710       -1.91470        2.20590
C         -1.27530       -1.78550        3.40900
C         -1.94450       -1.40240        4.55010
C         -3.31180       -1.14040        4.50830
S         -4.05270       -0.55410        5.99930
C         -5.66470        0.07790        5.45100
C         -4.01480       -1.34510        3.32850
C         -3.34490       -1.73130        2.18420
C         -0.13940       -0.00570        1.14500
S         -1.05370        0.92280        2.28310
C          0.01730        2.30250        2.05450
C          0.94290        2.08380        1.01340
N          1.72450        3.00970        0.37340
C          2.87100        2.53450       -0.29720
C          3.80750        1.76670        0.38650
C          4.89680        1.23540       -0.27680
C          5.05480        1.46100       -1.63750
S          6.37340        0.79240       -2.59910
C          7.16730       -0.39970       -1.48460
C          4.13700        2.26260       -2.31610
C          3.05720        2.79920       -1.65330
C          1.39230        4.35840        0.26290
C          0.06610        4.79690        0.30890
C         -0.22270        6.14130        0.29710
C          0.80040        7.08700        0.21580
S          0.32330        8.77810        0.28010
C          1.88950        9.65350        0.56150
C          2.11470        6.65330        0.07850
C          2.40390        5.30560        0.09590
C          0.88300        0.73620        0.58040
S          1.77690       -0.20070       -0.56340
C         -0.13240        3.36940        2.96800
C          0.81580        4.38370        3.24470
C          0.53170        5.47820        4.15170
N          1.56330        6.31290        4.25590
S          2.78360        5.75710        3.37100
N          2.06090        4.45010        2.77210
C         -0.69500        5.62020        4.84230
C         -1.55430        4.50530        4.71820
N         -2.64810        4.26490        5.43920
S         -3.29230        2.87220        4.98370
N         -2.21120        2.47630        3.85940
C         -1.27760        3.42470        3.80250
C         -0.93390        6.73730        5.67240
C         -2.16460        7.21180        6.04180
C         -3.42750        6.95900        5.31190
O         -3.57800        6.38150        4.25370
C         -4.47180        7.69530        6.05320
C         -5.83660        7.71190        5.77940
C         -6.57300        8.48410        6.64530
C         -5.99130        9.20490        7.69580
C         -4.64390        9.20960        7.96760
C         -3.87900        8.41710        7.10730
C         -2.44090        8.15040        7.10400
C         -1.53660        8.65140        8.00800
C         -0.16310        8.33520        8.05350
N          0.95950        8.12930        8.18690
C         -1.85390        9.55810        9.03880
N         -2.03300       10.30020        9.89760
C         -7.31880        9.74430        8.16750
C         -7.95150        9.09780        9.42460
C         -7.42340        7.68650        9.49240
C         -7.97410        7.00020        8.50000
C         -8.88470        7.93530        7.74340
C         -9.36940        8.83080        8.89460
C         -7.96780        8.93770        6.99900
H          3.87170       -6.46490       -2.48240
H          5.36800       -7.67450       -7.44550
H          0.88340       -5.35420       -7.88170
H          1.98460       -6.46350      -10.96050
H          2.30970       -4.02320      -11.33680
H          3.52620       -3.10160       -9.21260
H          5.88100       -4.31300       -9.01220
H          6.11550       -5.98330      -11.01180
H          3.98700       -5.68300      -12.63210
H          4.76870       -4.11380      -12.31610
H          4.27390       -7.64310      -10.76810
H          3.75640       -1.62480       -3.06480
H          5.09530       -2.38730       -3.96020
H          4.26890       -1.26320       -6.06140
H          4.74740       -0.10420       -4.81460
H          3.03400       -0.43340       -5.09920
H          0.00640       -3.20060       -4.34120
H         -1.10070       -1.81570       -4.31230
H          1.31620       -2.09960       -6.16700
H          0.24460       -0.69220       -6.08920
H         -0.38170       -2.25680       -6.62800
H         -0.25580       -5.46420        3.43810
H          0.71300       -8.95270        0.72080
H         -2.15170       -4.54340        1.70940
H         -3.09350       -6.25590        0.23570
H         -2.22220       -7.84220       -1.59950
H         -3.46210       -8.56740       -2.65240
H         -3.92720       -7.97620       -1.04390
H         -2.54460       -3.66900       -3.11900
H         -1.56050       -1.95750       -1.63630
H         -0.21370       -1.97540        3.42280
H         -1.41390       -1.27940        5.48150
H         -6.06900        0.62530        6.29670
H         -5.52280        0.74750        4.60800
H         -6.32710       -0.74490        5.19790
H         -5.08040       -1.18960        3.28100
H         -3.88750       -1.86530        1.25970
H          3.67380        1.58710        1.44250
H          5.60850        0.64650        0.27820
H          7.90260       -0.92130       -2.08940
H          7.66530        0.11980       -0.67120
H          6.42660       -1.10130       -1.11240
H          4.27570        2.44290       -3.37080
H          2.33720        3.40470       -2.18270
H         -0.73900        4.08130        0.36730
H         -1.24550        6.47830        0.36340
H          2.51250        9.61090       -0.32710
H          2.39470        9.22590        1.42240
H          1.61500       10.68330        0.76700
H          2.92340        7.35790       -0.02830
H          3.43080        4.98060        0.03060
H         -0.04110        7.24770        6.01150
H         -6.24270        7.14610        4.95530
H         -4.21160        9.77500        8.77620
H         -7.42550       10.82740        8.16000
H         -7.85850        9.68890       10.33180
H         -6.68130        7.35790       10.19620
H         -7.78300        5.98370        8.20910
H         -9.64280        7.46760        7.12010
H         -9.99330        8.29690        9.61010
H         -9.88310        9.73030        8.55790
H         -8.50070        9.49420        6.23000
