167

C          6.17390       -1.80660       -3.42340
C          5.08280       -2.12610       -4.17430
C          3.74900       -1.49810       -4.01490
O          3.47000       -0.41270       -3.54690
C          2.78270       -2.50650       -4.47900
C          1.39570       -2.43620       -4.36230
C          0.74090       -3.54960       -4.82830
C          1.41170       -4.65230       -5.37570
C          2.77910       -4.73010       -5.50430
C          3.46740       -3.60820       -5.03010
C          4.90080       -3.34760       -4.94190
C          5.90140       -4.07860       -5.52030
C          5.68890       -5.24010       -6.29130
N          5.56740       -6.18860       -6.92570
C          7.26570       -3.72120       -5.45220
N          8.38460       -3.46700       -5.44360
C          0.12890       -5.41480       -5.60680
C         -0.40670       -5.45660       -7.05330
C         -1.86310       -5.82940       -6.89070
C         -2.49360       -4.78040       -6.37830
C         -1.47360       -3.68250       -6.18090
C         -0.55080       -3.96300       -7.37390
C         -0.61620       -4.18300       -4.99940
C          6.23520       -0.66410       -2.57810
C          5.77320        0.60460       -2.79430
C          5.70430        1.39450       -1.62380
C          5.10300        2.65790       -1.46850
C          4.62930        3.47210       -2.59760
C          5.01820        4.80720       -2.67750
C          4.55490        5.60290       -3.70970
C          3.70930        5.07860       -4.66750
C          3.31510        3.74610       -4.59090
S          2.18250        3.18110       -5.83130
C          2.56060        1.40260       -5.99250
C          3.93890        1.17060       -6.58050
C          3.76570        2.94540       -3.55240
C          4.88650        3.07940       -0.16760
C          5.28600        2.33430        0.97020
C          5.97320        1.12060        0.81310
C          6.30650        0.28620        1.97860
C          7.60880       -0.12880        2.23150
C          7.88760       -0.89440        3.35090
C          6.87970       -1.25390        4.22750
C          5.57800       -0.84750        3.97240
S          4.23610       -1.28090        5.06220
C          4.82600       -0.50320        6.61090
C          4.96660        0.99900        6.46630
C          5.28940       -0.09490        2.84810
C          6.16260        0.67970       -0.48420
S          6.77470       -0.89370       -0.91470
C          4.74110        2.85970        2.16500
C          3.86820        3.89050        1.96010
S          3.85820        4.42010        0.28430
C          2.80070        4.24090        2.83850
C          1.65750        4.91450        2.51870
C          0.55520        4.59690        3.35390
C         -0.79400        4.91780        3.14890
C         -1.21720        5.95300        2.15210
C         -0.95990        7.36050        2.69300
C         -1.71060        4.17930        3.87510
C         -1.34930        3.20190        4.83990
C          0.00310        2.99480        5.15420
C          0.45540        1.97240        6.15430
C          0.75720        0.63750        5.46750
C          0.91360        3.67320        4.36980
S          2.62790        3.33360        4.33430
C         -2.46240        2.42330        5.24070
C         -3.62710        2.74590        4.60290
S         -3.42580        4.16520        3.58160
C         -4.82560        1.95460        4.47690
C         -5.95960        2.43890        3.83160
F         -6.07890        3.76420        3.61130
C         -6.97090        1.63750        3.31710
C         -6.86890        0.26430        3.40460
C         -5.85100       -0.27550        4.23530
N         -5.87360       -1.60100        4.49300
C         -4.96010       -2.09660        5.26540
C         -3.96340       -1.26630        5.85030
O         -3.09560       -1.83810        6.67830
C         -2.14000       -0.98760        7.30680
C         -1.27020       -1.83890        8.21340
N         -3.92080        0.02380        5.61460
C         -4.85270        0.55980        4.80010
C         -7.71830       -0.61910        2.63630
C         -7.20970       -1.59350        1.84860
C         -5.77180       -1.67470        1.45190
O         -4.84150       -1.02160        1.87040
C         -5.72370       -2.63970        0.34030
C         -4.60230       -2.96950       -0.41900
C         -4.85450       -3.85900       -1.43420
C         -6.13220       -4.38020       -1.68460
C         -7.24640       -4.06290       -0.94510
C         -7.01100       -3.16120        0.09920
C         -7.93890       -2.57830        1.06210
C         -9.24400       -2.94130        1.24810
C        -10.09630       -2.38450        2.22670
N        -10.84520       -1.98280        2.99820
C         -9.90670       -3.94260        0.50660
N        -10.49980       -4.74360       -0.06280
C         -5.65480       -5.19060       -2.86520
C         -5.45480       -6.71340       -2.66810
C         -5.16470       -6.91870       -1.20180
C         -3.95710       -6.42860       -0.95580
C         -3.40850       -5.88440       -2.25190
C         -4.03950       -6.86940       -3.24860
C         -4.23170       -4.61450       -2.58130
H          6.97680       -2.52780       -3.32560
H          0.91740       -1.57480       -3.92280
H          3.28570       -5.58950       -5.91160
H          0.05160       -6.37300       -5.09650
H          0.17920       -6.06260       -7.73840
H         -2.26070       -6.80290       -7.11010
H         -3.52580       -4.69820       -6.09080
H         -1.85700       -2.67150       -6.07040
H          0.38740       -3.41170       -7.34860
H         -1.04720       -3.79240       -8.32750
H         -1.19000       -4.32070       -4.08450
H          5.50000        0.96050       -3.76910
H          5.69300        5.21250       -1.93830
H          4.85970        6.63680       -3.77080
H          3.34250        5.69010       -5.47740
H          1.78270        1.02580       -6.65680
H          2.45220        0.93100       -5.01770
H          4.13440        0.10210       -6.66340
H          4.01240        1.61740       -7.56940
H          4.70500        1.61470       -5.94730
H          3.43230        1.92600       -3.44740
H          8.40210        0.15940        1.55800
H          8.90070       -1.21480        3.54260
H          7.10140       -1.85400        5.09720
H          4.06560       -0.76080        7.34710
H          5.76870       -0.97070        6.89300
H          5.74150        1.24200        5.74100
H          4.03010        1.43910        6.13110
H          5.23900        1.44050        7.42280
H          4.26630        0.18360        2.64570
H          4.90350        2.42640        3.13540
H          1.58310        5.52230        1.63430
H         -0.66970        5.81680        1.21710
H         -2.28220        5.83480        1.94320
H          0.09750        7.50080        2.90650
H         -1.27030        8.10580        1.96510
H         -1.52060        7.51870        3.61130
H         -0.31200        1.83380        6.91700
H          1.36280        2.33390        6.64490
H          1.57710        0.74830        4.76300
H          1.04110       -0.11380        6.20040
H         -0.11320        0.28660        4.91710
H         -2.40380        1.59610        5.91960
H         -7.76360        2.10570        2.75410
H         -4.98850       -3.15530        5.47790
H         -1.53830       -0.50130        6.53300
H         -2.67180       -0.21510        7.87550
H         -0.53770       -1.21060        8.71190
H         -1.88110       -2.33560        8.96210
H         -0.75240       -2.59520        7.63000
H         -8.78440       -0.43570        2.66960
H         -3.63980       -2.53520       -0.19830
H         -8.22520       -4.45980       -1.15780
H         -6.11950       -4.95330       -3.82030
H         -6.24150       -7.33070       -3.09280
H         -5.86860       -7.33410       -0.50510
H         -3.44950       -6.35190       -0.01220
H         -2.33020       -5.75080       -2.29470
H         -3.95340       -6.55150       -4.28680
H         -3.65150       -7.88120       -3.14190
H         -3.76520       -4.00520       -3.35370
