198

C          7.23290       -4.08540       -1.54730
C          7.81400       -4.03680       -2.77260
C          8.26120       -5.29240       -3.43460
O          8.37890       -6.38070       -2.91710
C          8.43320       -4.94280       -4.85740
C          8.72620       -5.81070       -5.90810
C          8.78750       -5.20200       -7.13860
C          8.56570       -3.82920       -7.31870
C          8.28060       -2.95960       -6.29390
C          8.22120       -3.55800       -5.03140
C          7.97950       -2.95490       -3.72540
C          8.08960       -1.62300       -3.41990
C          8.12680       -1.13970       -2.09490
N          8.23410       -0.71830       -1.03270
C          8.19980       -0.59480       -4.37450
N          8.22350        0.28350       -5.11430
C          8.77590       -3.90890       -8.80960
C         10.13430       -3.40450       -9.34090
C         10.24220       -4.03500      -10.71060
C         10.45600       -5.33360      -10.54110
C         10.49630       -5.60280       -9.05390
C         11.11900       -4.28870       -8.56490
C          9.02760       -5.43800       -8.60900
C          6.36050       -3.09910       -0.96600
C          5.53470       -2.35230       -1.82970
C          4.58740       -1.47760       -1.37260
C          4.39320       -1.26840        0.00140
C          5.26180       -1.91630        0.87330
C          5.36010       -1.86850        2.31700
C          4.79920       -0.92130        3.10780
C          4.72150       -0.82540        4.53260
C          4.30540        0.38400        5.17560
C          4.18290        0.25650        6.51360
S          4.55400       -1.34390        7.04280
C          4.89770       -1.83570        5.44890
C          6.34060       -2.91060        2.67750
O          6.71830       -3.28550        3.76820
N          6.83820       -3.42130        1.48920
C          7.90600       -4.39560        1.51950
C          9.21090       -3.82470        0.97620
C          6.20000       -2.86550        0.40550
C          3.23200       -0.49560        0.40240
C          2.18890       -0.85480        1.24180
N          2.13280       -2.00230        2.01830
C          2.71560       -3.18610        1.54320
C          2.60530       -3.53280        0.19980
C          3.28960       -4.61800       -0.31110
C          4.09420       -5.38340        0.52150
S          5.12290       -6.70660       -0.03270
C          4.91920       -6.70890       -1.83530
C          4.13200       -5.09760        1.88540
C          3.45310       -4.01300        2.39290
C          1.51680       -1.97050        3.27620
C          1.51500       -0.81240        4.04830
C          0.92810       -0.79100        5.29860
C          0.33250       -1.93500        5.80830
S         -0.40800       -2.04460        7.40370
C         -0.35440       -0.34150        8.02430
C          0.31870       -3.09440        5.03350
C          0.89430       -3.11220        3.78440
C          1.13460        0.09210        1.16180
S         -0.42220        0.21070        1.89870
C         -0.77850        1.65520        0.95290
C          0.29030        2.05680        0.16200
N          0.35840        3.21630       -0.58530
C          1.21470        3.24430       -1.69890
C          1.23720        2.17440       -2.59100
C          2.15800        2.13960       -3.61980
C          3.06530        3.17920       -3.77480
S          4.33250        3.15680       -5.00880
C          4.79870        1.39820       -5.02080
C          2.99110        4.28690       -2.93470
C          2.07840        4.31990       -1.90400
C         -0.27870        4.39270       -0.16850
C         -0.45210        4.68370        1.18570
C         -1.18390        5.78310        1.57090
C         -1.73210        6.63870        0.61680
S         -2.71670        7.97140        1.21900
C         -3.49770        8.63890       -0.27770
C         -1.48190        6.40390       -0.72790
C         -0.77350        5.28440       -1.11620
C          1.36260        1.13360        0.27740
S          2.90390        0.97980       -0.48730
C         -2.08420        2.20490        1.09590
C         -2.86680        2.11190        2.21170
C         -4.14890        2.68380        2.06880
C         -5.18960        2.73670        3.02260
C         -5.07450        2.12740        4.32950
C         -5.61200        2.56460        5.51070
C         -5.30330        1.72610        6.59400
F         -5.70830        2.01230        7.84360
C         -4.56020        0.62120        6.27210
S         -3.88280       -0.65510        7.25670
C         -5.19740       -0.93040        8.49940
C         -6.48170       -1.42270        7.86480
S         -4.22240        0.62090        4.57230
C         -6.35300        3.39220        2.62790
C         -6.52260        3.97270        1.34220
C         -5.49170        3.88650        0.37550
C         -5.67740        4.38290       -0.96660
S         -4.33770        5.09900       -1.82930
C         -5.29600        5.32570       -3.25940
S         -4.70610        6.07820       -4.71650
C         -2.89980        5.84360       -4.54300
C         -2.47990        4.39580       -4.69870
C         -6.57550        4.88490       -3.03210
C         -6.80070        4.35740       -1.75080
F         -7.53410        4.93060       -3.96700
C         -4.32400        3.25450        0.78220
S         -2.92090        2.99800       -0.21880
C         -7.78380        4.57390        1.18930
C         -8.61520        4.41100        2.27120
S         -7.79400        3.57200        3.58300
C         -9.94730        4.82620        2.47790
C        -10.89790        5.11290        1.53460
C        -10.84390        4.75740        0.09650
O         -9.90700        4.31890       -0.53560
C        -12.21270        4.97050       -0.41300
C        -12.71890        4.75040       -1.68660
Cl       -11.72140        4.17230       -2.95310
C        -14.06490        5.01550       -1.92680
C        -14.86240        5.48460       -0.89600
Br       -16.69350        5.82100       -1.24690
C        -14.37500        5.71800        0.38620
C        -13.03620        5.45920        0.61810
C        -12.22820        5.60480        1.82870
C        -12.64500        6.18710        2.99650
C        -11.82380        6.42670        4.11990
N        -11.21920        6.67610        5.06320
C        -13.95210        6.66910        3.22060
N        -14.99840        7.07210        3.46520
H          7.35140       -5.02710       -1.02620
H          8.88380       -6.86290       -5.72980
H          8.10190       -1.90740       -6.44350
H          7.93490       -3.59500       -9.42510
H         10.27360       -2.32850       -9.28380
H         10.10200       -3.49860      -11.63050
H         10.52980       -6.09870      -11.29140
H         10.96700       -6.52950       -8.73720
H         12.14330       -4.16520       -8.91180
H         11.08200       -4.15370       -7.48540
H          8.35520       -6.14500       -9.09150
H          5.59780       -2.54130       -2.89150
H          3.93230       -0.98160       -2.07370
H          4.31700       -0.10020        2.58940
H          4.12930        1.30200        4.64280
H          3.90050        0.99880        7.23350
H          5.21800       -2.83970        5.26060
H          8.03020       -4.65210        2.57600
H          7.60590       -5.30080        0.98680
H          9.52390       -2.97470        1.57740
H          9.09800       -3.48940       -0.05230
H          9.98530       -4.58570        1.01180
H          1.99030       -2.93510       -0.45660
H          3.19000       -4.84990       -1.35910
H          5.10480       -5.71410       -2.23050
H          3.92570       -7.06020       -2.09890
H          5.67100       -7.39630       -2.21150
H          4.72680       -5.71880        2.53720
H          3.50820       -3.78510        3.44610
H          1.98800        0.08360        3.67870
H          0.95790        0.12460        5.86640
H         -0.86960       -0.36320        8.97920
H          0.67570       -0.02780        8.16740
H         -0.88270        0.31330        7.33810
H         -0.15650       -3.97990        5.42600
H          0.86480       -4.01330        3.19080
H          0.53460        1.36320       -2.46590
H          2.16850        1.29830       -4.29500
H          4.78380        1.02500       -4.00110
H          5.80980        1.35410       -5.41500
H          4.12720        0.82910       -5.65780
H          3.68140        5.10300       -3.07970
H          2.05050        5.16210       -1.22890
H         -0.02800        4.03300        1.93540
H         -1.34370        5.99210        2.61750
H         -2.75800        9.13260       -0.90140
H         -4.22450        9.36550        0.07170
H         -4.00010        7.83950       -0.81450
H         -1.84780        7.08020       -1.48280
H         -0.61570        5.08530       -2.16520
H         -2.49790        1.66730        3.11690
H         -6.16070        3.47920        5.63630
H         -5.34390       -0.00730        9.05630
H         -4.76600       -1.68360        9.15830
H         -6.30050       -2.32560        7.28540
H         -6.90370       -0.66550        7.20660
H         -7.21020       -1.64520        8.64150
H         -2.47890        6.46350       -5.33400
H         -2.60850        6.24640       -3.57390
H         -2.83220        3.99840       -5.64770
H         -2.88110        3.78590       -3.89210
H         -1.39400        4.32470       -4.67460
H         -7.74610        3.93630       -1.46180
H         -8.06050        5.15180        0.33060
H        -10.25080        4.85910        3.51760
H        -14.47880        4.85330       -2.90920
H        -15.03420        6.08140        1.15710
