204

C          2.01060       -7.33100        3.33660
C          0.95950       -7.92910        3.92830
C          1.00610       -9.38440        4.25040
O          1.99000      -10.05250        4.45530
C         -0.40030       -9.82470        4.17870
C         -0.87120      -11.13540        4.23070
C         -2.23280      -11.24870        4.08460
C         -3.07170      -10.14190        3.88710
C         -2.62510       -8.84420        3.83620
C         -1.24180       -8.70500        3.99510
C         -0.42790       -7.49890        4.01970
C         -0.87570       -6.22380        4.23510
C         -0.03790       -5.12600        4.51990
N          0.57110       -4.20350        4.83160
C         -2.23680       -5.85730        4.24150
N         -3.32680       -5.49910        4.20310
C         -4.31300      -10.99510        3.81220
C         -5.21220      -11.01010        5.06650
C         -6.04770      -12.25860        4.89800
C         -5.25440      -13.30430        5.09240
C         -3.86910      -12.78010        5.39520
C         -4.23280      -11.49190        6.14470
C         -3.37930      -12.22740        4.03940
C          1.95960       -6.02930        2.68980
C          2.89220       -5.05180        3.03530
S          4.24330       -5.50440        4.11190
C          5.34890       -6.28730        2.87730
C          5.90460       -5.29040        1.88190
C          2.75750       -3.75130        2.57600
S          4.03450       -2.59910        3.03390
C          3.57190       -2.29140        4.78430
C          4.80540       -2.19740        5.65430
C          1.67910       -3.37520        1.75190
C          0.68910       -4.35210        1.45270
C          0.90830       -5.69050        1.82580
C          0.08070       -6.79960        1.28900
O          0.51720       -7.92960        1.14430
C         -1.27800       -6.40510        0.95390
C         -1.62560       -5.02950        0.84690
C         -0.64350       -3.94470        0.96140
O         -0.97570       -2.78810        0.75570
C         -2.95050       -4.85960        0.56440
S         -3.78160       -6.35280        0.44330
C         -2.34400       -7.23360        0.74590
C          1.60170       -2.03750        1.22500
C          1.20700       -1.59020       -0.03420
N          0.89890       -2.35880       -1.13010
C          0.16610       -1.75170       -2.18140
C          0.72590       -1.68060       -3.45420
C          0.09340       -0.95580       -4.43970
C         -1.10930       -0.30230       -4.17280
S         -1.75980        0.71110       -5.46190
C         -3.09320        1.63830       -4.65560
C         -1.71610       -0.45830       -2.93340
C         -1.07670       -1.17750       -1.94140
C          1.21100       -3.71080       -1.24160
C          0.25570       -4.59340       -1.75420
C          0.51210       -5.94520       -1.80310
C          1.72860       -6.45310       -1.34920
S          1.92720       -8.19740       -1.40280
C          3.32490       -8.49890       -0.28810
C          2.70920       -5.56930       -0.90420
C          2.45460       -4.21570       -0.85650
C          1.15570       -0.17400       -0.07050
S          0.74590        0.98940       -1.27650
C          0.98050        2.30230       -0.13650
C          1.40050        1.85900        1.10500
N          1.71210        2.64670        2.19190
C          1.64910        2.07990        3.48050
C          2.71070        2.24940        4.36690
C          2.71390        1.57910        5.57050
C          1.65830        0.73370        5.90980
S          1.80660       -0.17020        7.42000
C          0.59960       -1.51320        7.22670
C          0.55910        0.63550        5.06690
C          0.55610        1.30630        3.85960
C          1.99400        4.00420        2.04020
C          2.81640        4.45320        1.00790
C          2.97620        5.80130        0.76770
C          2.31660        6.73260        1.56340
S          2.33950        8.47210        1.27720
C          3.19880        8.64290       -0.31280
C          1.57980        6.29010        2.65950
C          1.42140        4.94250        2.90020
C          1.48980        0.44420        1.12270
S          1.97550       -0.70260        2.30380
C          0.69620        3.63030       -0.63770
C          1.28260        3.99910       -1.86710
S          2.60140        2.99710       -2.48440
C          3.85500        4.27160       -2.94400
C          5.21190        3.82760       -2.43400
C          0.90070        5.17110       -2.52090
S          1.27240        5.46280       -4.23080
C          0.73860        3.85360       -4.95280
C          0.18560        4.07410       -6.34500
C          0.16940        6.12850       -1.81360
C         -0.30790        5.82250       -0.53570
C         -0.13550        4.54690        0.02740
C         -0.86340        4.17800        1.26040
O         -0.94400        3.04300        1.69340
C         -1.52990        5.29930        1.93810
C         -1.62550        6.60960        1.38530
C         -1.10690        6.89350        0.06120
O         -1.31140        7.93140       -0.55730
C         -2.27410        7.48190        2.21540
S         -2.76160        6.73070        3.67230
C         -2.11570        5.22350        3.16840
C         -0.05540        7.46550       -2.35150
C         -0.71010        7.85610       -3.47250
C         -0.46990        9.23240       -3.97760
O          0.22770       10.07570       -3.45910
C         -1.19600        9.32150       -5.25590
C         -1.23110       10.40760       -6.12770
C         -1.97530       10.19230       -7.26240
C         -2.62670        8.97860       -7.51910
C         -2.59650        7.89830       -6.67090
C         -1.85620        8.09990       -5.50050
C         -1.62490        7.19420       -4.37510
C         -2.22880        5.97380       -4.22270
C         -3.09820        5.37900       -5.16160
N         -3.79340        4.79360       -5.86510
C         -2.11620        5.08810       -3.13420
N         -2.13000        4.26340       -2.33330
C         -3.18370        9.46320       -8.83460
C         -4.67330        9.86690       -8.84330
C         -4.80700       10.72970      -10.07730
C         -4.19200       11.88000       -9.83380
C         -3.63250       11.81400       -8.43090
C         -4.70800       10.95110       -7.75840
C         -2.45940       10.81750       -8.54710
H          2.95040       -7.86700        3.37430
H         -0.19310      -11.96210        4.37210
H         -3.27570       -8.00050        3.67340
H         -4.87740      -10.93230        2.88380
H         -5.74760      -10.08330        5.25300
H         -7.08270      -12.25350        4.61060
H         -5.49400      -14.34720        4.99980
H         -3.18160      -13.46650        5.88190
H         -4.73070      -11.69400        7.09150
H         -3.39150      -10.82190        6.31210
H         -3.32240      -12.99000        3.26500
H          6.14150       -6.72730        3.48140
H          4.79750       -7.08410        2.37710
H          6.59670       -5.79170        1.20740
H          5.10460       -4.84290        1.29520
H          6.43050       -4.49130        2.39730
H          3.01230       -1.35530        4.78720
H          2.92720       -3.11360        5.08860
H          5.46990       -1.41730        5.28990
H          5.34040       -3.14380        5.65750
H          4.50870       -1.95490        6.67240
H         -3.47230       -3.93290        0.43140
H         -2.35040       -8.30530        0.77670
H          1.67290       -2.16180       -3.64930
H          0.53650       -0.85960       -5.41890
H         -3.41380        2.38610       -5.37560
H         -3.92160        0.97550       -4.42340
H         -2.71430        2.12640       -3.76150
H         -2.66980       -0.00500       -2.71870
H         -1.51830       -1.28130       -0.96190
H         -0.69350       -4.20530       -2.09260
H         -0.23290       -6.63050       -2.17790
H          3.12020       -8.01230        0.65950
H          3.35960       -9.57450       -0.14730
H          4.25390       -8.15250       -0.73240
H          3.67890       -5.93120       -0.60140
H          3.22190       -3.53680       -0.51390
H          3.54260        2.88030        4.09040
H          3.54710        1.67590        6.24940
H          0.73430       -1.99770        6.26440
H         -0.41110       -1.13130        7.33970
H          0.81460       -2.21560        8.02610
H         -0.29140        0.02840        5.33150
H         -0.29030        1.23390        3.19430
H          3.32050        3.73070        0.38330
H          3.61860        6.11820       -0.03840
H          3.07110        9.68100       -0.60390
H          4.25550        8.41950       -0.19410
H          2.74050        7.99580       -1.05500
H          1.11330        7.01890        3.30500
H          0.83630        4.60200        3.74120
H          3.54650        5.21150       -2.49100
H          3.86170        4.37760       -4.02790
H          5.96800        4.55500       -2.72240
H          5.20750        3.73930       -1.35000
H          5.47890        2.86190       -2.85630
H         -0.01640        3.44570       -4.28170
H          1.59670        3.18310       -4.97880
H          0.94940        4.48410       -7.00220
H         -0.15300        3.12120       -6.74630
H         -0.65820        4.76020       -6.32870
H         -2.47300        8.52050        2.03890
H         -2.18910        4.36010        3.79980
H          0.55860        8.25050       -1.91290
H         -0.70630       11.32070       -5.89410
H         -3.09670        6.97040       -6.89240
H         -2.89180        8.89230       -9.71400
H         -5.36960        9.03830       -8.74690
H         -5.27150       10.40420      -10.98960
H         -4.04010       12.70720      -10.50210
H         -3.38160       12.76030       -7.95930
H         -4.43580       10.59570       -6.76640
H         -5.67130       11.45630       -7.71240
H         -1.68460       11.15070       -9.23520
