205

C          6.96780        4.69640       -2.97710
C          6.53810        5.87180       -3.51450
C          7.35340        7.10450       -3.32460
O          8.50460        7.16240       -2.95950
C          6.43490        8.22320       -3.61370
C          6.68690        9.58370       -3.45250
C          5.62830       10.39310       -3.78810
C          4.39970        9.89010       -4.23870
C          4.13680        8.55110       -4.40530
C          5.20630        7.71240       -4.08410
C          5.31870        6.25940       -4.18670
C          4.56730        5.46170       -5.01080
C          4.90790        4.12660       -5.31120
N          5.17580        3.05320       -5.61780
C          3.43760        5.90450       -5.72560
N          2.49820        6.20500       -6.31380
C          3.80130       11.26600       -4.38900
C          3.68930       11.84630       -5.82040
C          4.77520       11.18830       -6.63550
C          5.94020       11.66370       -6.21600
C          5.66310       12.65130       -5.10950
C          4.32220       13.22810       -5.59090
C          5.17190       11.82640       -3.89380
C          6.23390        3.54320       -2.63850
S          4.50540        3.52750       -2.43940
C          4.46070        1.87710       -1.87880
C          5.74940        1.37390       -1.85020
S          6.41670       -0.16650       -1.44590
C          8.01290        0.40070       -1.88680
C          9.15190       -0.51180       -1.77620
O         10.26600       -0.27900       -2.17160
O          8.78030       -1.65330       -1.17220
C          9.77070       -2.67460       -1.03960
C          9.38980       -3.88500       -1.87860
C          8.04010        1.71010       -2.29070
C          6.74540        2.29540       -2.27930
Cl         9.46180        2.53040       -2.74720
C          3.19810        1.30800       -1.52220
C          3.09710        0.10720       -0.76350
N          4.18040       -0.61910       -0.46690
C          4.05990       -1.72000        0.23280
C          5.27650       -2.48560        0.55590
C          5.39670       -3.83240        0.24210
C          6.50630       -4.58860        0.59730
C          7.56950       -4.02630        1.30940
O          8.70830       -4.60470        1.70800
C          8.86970       -6.02080        1.72640
C          8.02430       -6.68300        2.80590
C          7.44650       -2.65710        1.61190
C          6.34410       -1.90950        1.24640
F          6.28550       -0.62990        1.61080
F          8.44570       -2.07580        2.28650
F          6.50870       -5.88620        0.22600
F          4.42310       -4.44550       -0.45140
C          2.77460       -2.17470        0.64610
C          2.58580       -3.43100        1.39170
C          3.29450       -3.73170        2.55260
F          4.14610       -2.82850        3.07020
C          3.11910       -4.92570        3.22200
F          3.82980       -5.16010        4.33570
C          2.22100       -5.91570        2.78080
O          2.19340       -7.02970        3.51080
C          1.19600       -8.03650        3.34250
C         -0.17230       -7.59380        3.84170
C          1.50490       -5.60190        1.61870
F          0.61480       -6.46560        1.09330
C          1.67560       -4.39030        0.95950
F          0.95650       -4.17050       -0.14180
N          1.70150       -1.48300        0.36310
C          1.82350       -0.32460       -0.29820
C          0.65960        0.45590       -0.53900
C          0.77240        1.53080       -1.40420
C          2.00930        1.94370       -1.87430
C         -0.55020        0.13630        0.17330
C         -0.63850       -0.20070        1.51640
N          0.41040       -0.17350        2.42650
C          1.41890        0.79040        2.27760
C          2.76560        0.49030        2.49290
C          3.74330        1.41290        2.19430
C          3.40760        2.66160        1.67630
S          4.75280        3.70500        1.21230
C          3.94920        5.24210        0.67240
C          2.06800        2.99850        1.53940
C          1.08940        2.07420        1.84610
C          0.53020       -1.23030        3.33470
C          1.15030       -1.04870        4.56860
C          1.27550       -2.09770        5.45810
C          0.75160       -3.34530        5.14530
S          0.84630       -4.75170        6.20610
C          2.13310       -4.29930        7.40110
C          0.10120       -3.52260        3.92720
C          0.01050       -2.48850        3.02400
C         -1.97500       -0.50970        1.86620
S         -2.72320       -1.11200        3.29560
C         -4.28970       -1.20150        2.47420
C         -4.20180       -0.80100        1.12600
N         -5.16350       -0.88790        0.15530
C         -5.08790        0.03290       -0.91290
C         -4.94560        1.39400       -0.64690
C         -4.82940        2.28790       -1.68640
C         -4.85390        1.84270       -3.00850
S         -4.66300        3.07710       -4.25120
C         -4.56600        2.13500       -5.79960
C         -5.02880        0.49010       -3.27290
C         -5.14450       -0.40820       -2.22970
C         -6.17100       -1.85230        0.13270
C         -7.41950       -1.53360       -0.41150
C         -8.44210       -2.45190       -0.39450
C         -8.25550       -3.71500        0.16870
S         -9.66750       -4.76360        0.22420
C         -9.05050       -6.31630        0.92910
C         -7.00040       -4.05780        0.65690
C         -5.97170       -3.13600        0.63770
C         -2.88210       -0.38000        0.82420
S         -2.10630        0.17530       -0.62240
C         -5.33500       -1.74660        3.22460
C         -6.68190       -1.64740        2.95960
C         -7.32170       -0.51990        2.26090
O         -6.77420        0.47260        1.81660
C         -8.77640       -0.77770        2.34090
C         -9.80220       -0.01060        1.79660
C        -11.06040       -0.52580        2.00540
C        -11.28860       -1.70170        2.73050
C        -10.28740       -2.46360        3.28300
C         -9.00050       -1.96990        3.05800
C         -7.70840       -2.53640        3.42770
C         -7.49250       -3.79350        3.93940
C         -6.21890       -4.38330        4.06430
N         -5.22360       -4.95360        4.13450
C         -8.50760       -4.70050        4.29270
N         -9.27810       -5.50450        4.57790
C        -12.78390       -1.62210        2.54860
C        -13.39970       -2.57720        1.50500
C        -14.74070       -1.95580        1.18970
C        -14.51840       -0.85330        0.48560
C        -13.02290       -0.71040        0.31500
C        -12.62400       -2.18990        0.24020
C        -12.52850       -0.31940        1.72450
H          8.01190        4.67920       -2.68060
H          7.64430        9.93210       -3.09800
H          3.18700        8.17170       -4.74550
H          2.91860       11.47170       -3.78670
H          2.68830       11.81680       -6.24220
H          4.59300       10.42600       -7.37010
H          6.92680       11.37830       -6.53070
H          6.45930       13.35590       -4.88410
H          3.80840       13.82110       -4.83550
H          4.41780       13.80510       -6.50930
H          5.18490       12.40170       -2.97000
H         10.73480       -2.26830       -1.36180
H          9.82470       -2.93040        0.02160
H         10.11290       -4.67970       -1.71830
H          9.38170       -3.62380       -2.93390
H          8.39920       -4.24030       -1.60480
H          9.93150       -6.14670        1.95020
H          8.66500       -6.45150        0.74260
H          6.96300       -6.59590        2.58810
H          8.27770       -7.73730        2.86310
H          8.22140       -6.21910        3.76930
H          1.57220       -8.85540        3.96010
H          1.15170       -8.37100        2.30230
H         -0.82440       -8.45920        3.91080
H         -0.07900       -7.14090        4.82610
H         -0.63100       -6.87770        3.16580
H         -0.11240        2.09340       -1.66320
H          2.05840        2.81890       -2.50570
H          3.05110       -0.47960        2.86920
H          4.78300        1.16430        2.33260
H          4.75820        5.90710        0.38580
H          3.31090        5.04970       -0.18540
H          3.38970        5.67640        1.49550
H          1.76940        3.97280        1.18820
H          0.05100        2.34540        1.72660
H          1.53550       -0.07640        4.83630
H          1.76920       -1.92320        6.40040
H          3.02480       -3.98350        6.86830
H          2.34070       -5.20340        7.96470
H          1.77160       -3.52400        8.07060
H         -0.32970       -4.48420        3.69800
H         -0.44930       -2.65440        2.06260
H         -4.94980        1.73130        0.37760
H         -4.72000        3.34360       -1.49170
H         -5.51260        1.64120       -5.99870
H         -3.74890        1.42180       -5.74590
H         -4.36470        2.86850       -6.57420
H         -5.06940        0.12010       -4.28440
H         -5.26990       -1.46080       -2.43660
H         -7.58310       -0.54860       -0.82060
H         -9.40850       -2.19550       -0.80030
H         -8.24610       -6.70830        0.31390
H         -9.89540       -6.99750        0.90960
H         -8.73160       -6.16390        1.95600
H         -6.80900       -5.03560        1.06910
H         -5.00430       -3.42160        1.02260
H         -5.02620       -2.30150        4.10310
H         -9.58900        0.89700        1.25360
H        -10.47350       -3.36350        3.84530
H        -13.37040       -1.55140        3.46270
H        -13.39740       -3.62540        1.79000
H        -15.67910       -2.33860        1.54610
H        -15.23370       -0.13110        0.13760
H        -12.68270       -0.05720       -0.48440
H        -13.01640       -2.67930       -0.64950
H        -11.55420       -2.37340        0.31220
H        -12.95640        0.61620        2.08030
