
  xtb     02042220133D
 energy: -368.627480969051 gnorm: 0.000421218444 xtb: 6.4.1 (unknown)
221243  0     0  0            999 V2000
    3.9992  -10.3172   -1.1845 C   0  0  0  0  0  0  0  0  0  0  0  0
    3.6239  -11.3083   -0.3383 C   0  0  0  0  0  0  0  0  0  0  0  0
    3.7949  -12.7369   -0.7234 C   0  0  0  0  0  0  0  0  0  0  0  0
    4.5003  -13.1711   -1.6052 O   0  0  0  0  0  0  0  0  0  0  0  0
    2.8721  -13.4825    0.1548 C   0  0  0  0  0  0  0  0  0  0  0  0
    2.5551  -14.8378    0.0882 C   0  0  0  0  0  0  0  0  0  0  0  0
    1.6317  -15.2441    1.0211 C   0  0  0  0  0  0  0  0  0  0  0  0
    1.0604  -14.3701    1.9568 C   0  0  0  0  0  0  0  0  0  0  0  0
    1.3714  -13.0342    2.0442 C   0  0  0  0  0  0  0  0  0  0  0  0
    2.3087  -12.6017    1.1036 C   0  0  0  0  0  0  0  0  0  0  0  0
    2.8996  -11.2811    0.9160 C   0  0  0  0  0  0  0  0  0  0  0  0
    2.9946  -10.2979    1.8644 C   0  0  0  0  0  0  0  0  0  0  0  0
    2.3434  -10.3380    3.1126 C   0  0  0  0  0  0  0  0  0  0  0  0
    1.8210  -10.3173    4.1347 N   0  0  0  0  0  0  0  0  0  0  0  0
    3.8536   -9.1865    1.7233 C   0  0  0  0  0  0  0  0  0  0  0  0
    4.5953   -8.3123    1.6644 N   0  0  0  0  0  0  0  0  0  0  0  0
    0.2019  -15.4518    2.5619 C   0  0  0  0  0  0  0  0  0  0  0  0
   -1.2989  -15.4796    2.1801 C   0  0  0  0  0  0  0  0  0  0  0  0
   -1.4082  -14.8402    0.8181 C   0  0  0  0  0  0  0  0  0  0  0  0
   -0.8663  -15.6698   -0.0635 C   0  0  0  0  0  0  0  0  0  0  0  0
   -0.3797  -16.8849    0.6867 C   0  0  0  0  0  0  0  0  0  0  0  0
   -1.4411  -16.9610    1.7959 C   0  0  0  0  0  0  0  0  0  0  0  0
    0.8409  -16.4266    1.5232 C   0  0  0  0  0  0  0  0  0  0  0  0
    3.5610   -8.9661   -1.2154 C   0  0  0  0  0  0  0  0  0  0  0  0
    4.1784   -7.9365   -1.8742 C   0  0  0  0  0  0  0  0  0  0  0  0
    3.4915   -6.7066   -1.7859 C   0  0  0  0  0  0  0  0  0  0  0  0
    3.8813   -5.4666   -2.3169 C   0  0  0  0  0  0  0  0  0  0  0  0
    5.1089   -5.2935   -3.1085 C   0  0  0  0  0  0  0  0  0  0  0  0
    6.3732   -5.4901   -2.5620 C   0  0  0  0  0  0  0  0  0  0  0  0
    7.4922   -5.2706   -3.3435 C   0  0  0  0  0  0  0  0  0  0  0  0
    7.3751   -4.8955   -4.6714 C   0  0  0  0  0  0  0  0  0  0  0  0
    6.1143   -4.7418   -5.2301 C   0  0  0  0  0  0  0  0  0  0  0  0
    5.7972   -4.3392   -6.9186 S   0  0  0  0  0  0  0  0  0  0  0  0
    7.4209   -4.4263   -7.7466 C   0  0  0  0  0  0  0  0  0  0  0  0
    7.9027   -5.8535   -7.9235 C   0  0  0  0  0  0  0  0  0  0  0  0
    4.9866   -4.9163   -4.4371 C   0  0  0  0  0  0  0  0  0  0  0  0
    3.0235   -4.4051   -2.1078 C   0  0  0  0  0  0  0  0  0  0  0  0
    1.7894   -4.5308   -1.4254 C   0  0  0  0  0  0  0  0  0  0  0  0
    1.4021   -5.7657   -0.8703 C   0  0  0  0  0  0  0  0  0  0  0  0
    0.1486   -5.8695   -0.1113 C   0  0  0  0  0  0  0  0  0  0  0  0
   -0.7661   -6.8917   -0.3540 C   0  0  0  0  0  0  0  0  0  0  0  0
   -1.9671   -6.9204    0.3297 C   0  0  0  0  0  0  0  0  0  0  0  0
   -2.2940   -5.9287    1.2383 C   0  0  0  0  0  0  0  0  0  0  0  0
   -1.3896   -4.9044    1.4814 C   0  0  0  0  0  0  0  0  0  0  0  0
   -1.7151   -3.5507    2.5777 S   0  0  0  0  0  0  0  0  0  0  0  0
   -3.5360   -3.3627    2.5001 C   0  0  0  0  0  0  0  0  0  0  0  0
   -4.2513   -4.0261    3.6615 C   0  0  0  0  0  0  0  0  0  0  0  0
   -0.1623   -4.8978    0.8338 C   0  0  0  0  0  0  0  0  0  0  0  0
    2.2668   -6.8269   -1.0752 C   0  0  0  0  0  0  0  0  0  0  0  0
    2.0362   -8.4548   -0.5016 S   0  0  0  0  0  0  0  0  0  0  0  0
    1.0913   -3.3063   -1.4020 C   0  0  0  0  0  0  0  0  0  0  0  0
    1.7797   -2.2554   -1.9497 C   0  0  0  0  0  0  0  0  0  0  0  0
    3.3276   -2.7569   -2.6002 S   0  0  0  0  0  0  0  0  0  0  0  0
    1.3003   -0.9144   -1.9029 C   0  0  0  0  0  0  0  0  0  0  0  0
    1.9625    0.3069   -1.8602 C   0  0  0  0  0  0  0  0  0  0  0  0
    3.3258    0.5371   -1.9643 N   0  0  0  0  0  0  0  0  0  0  0  0
    3.8291    1.5190   -1.0824 C   0  0  0  0  0  0  0  0  0  0  0  0
    3.5491    1.4155    0.2806 C   0  0  0  0  0  0  0  0  0  0  0  0
    3.8939    2.4340    1.1392 C   0  0  0  0  0  0  0  0  0  0  0  0
    4.5325    3.5765    0.6581 C   0  0  0  0  0  0  0  0  0  0  0  0
    4.8383    4.8563    1.8333 S   0  0  0  0  0  0  0  0  0  0  0  0
    5.3132    6.2827    0.8182 C   0  0  0  0  0  0  0  0  0  0  0  0
    4.8757    3.6499   -0.6860 C   0  0  0  0  0  0  0  0  0  0  0  0
    4.5234    2.6298   -1.5493 C   0  0  0  0  0  0  0  0  0  0  0  0
    4.1170    0.0849   -3.0196 C   0  0  0  0  0  0  0  0  0  0  0  0
    5.4956   -0.0394   -2.8304 C   0  0  0  0  0  0  0  0  0  0  0  0
    6.3072   -0.4232   -3.8708 C   0  0  0  0  0  0  0  0  0  0  0  0
    5.7654   -0.6979   -5.1253 C   0  0  0  0  0  0  0  0  0  0  0  0
    6.9117   -1.1081   -6.4024 S   0  0  0  0  0  0  0  0  0  0  0  0
    5.9296   -0.9503   -7.9204 C   0  0  0  0  0  0  0  0  0  0  0  0
    4.3928   -0.6218   -5.3076 C   0  0  0  0  0  0  0  0  0  0  0  0
    3.5760   -0.2264   -4.2643 C   0  0  0  0  0  0  0  0  0  0  0  0
    1.0625    1.3486   -1.5114 C   0  0  0  0  0  0  0  0  0  0  0  0
    1.2564    3.0311   -1.1513 S   0  0  0  0  0  0  0  0  0  0  0  0
   -0.4123    3.1328   -0.6232 C   0  0  0  0  0  0  0  0  0  0  0  0
   -1.0874    1.9381   -0.7696 C   0  0  0  0  0  0  0  0  0  0  0  0
   -2.4217    1.7315   -0.3757 N   0  0  0  0  0  0  0  0  0  0  0  0
   -3.3290    1.5064   -1.4238 C   0  0  0  0  0  0  0  0  0  0  0  0
   -3.2909    2.3424   -2.5362 C   0  0  0  0  0  0  0  0  0  0  0  0
   -4.1578    2.1561   -3.5956 C   0  0  0  0  0  0  0  0  0  0  0  0
   -5.0841    1.1240   -3.5595 C   0  0  0  0  0  0  0  0  0  0  0  0
   -6.2491    0.7857   -4.8438 S   0  0  0  0  0  0  0  0  0  0  0  0
   -6.0135    2.1489   -6.0194 C   0  0  0  0  0  0  0  0  0  0  0  0
   -5.1139    0.2730   -2.4565 C   0  0  0  0  0  0  0  0  0  0  0  0
   -4.2447    0.4544   -1.4048 C   0  0  0  0  0  0  0  0  0  0  0  0
   -2.6615    1.2479    0.9168 C   0  0  0  0  0  0  0  0  0  0  0  0
   -3.9420    1.3387    1.4684 C   0  0  0  0  0  0  0  0  0  0  0  0
   -4.2017    0.8155    2.7147 C   0  0  0  0  0  0  0  0  0  0  0  0
   -3.1853    0.2152    3.4583 C   0  0  0  0  0  0  0  0  0  0  0  0
   -3.6397   -0.4723    5.0239 S   0  0  0  0  0  0  0  0  0  0  0  0
   -2.1075   -1.2307    5.6304 C   0  0  0  0  0  0  0  0  0  0  0  0
   -1.8983    0.1830    2.9449 C   0  0  0  0  0  0  0  0  0  0  0  0
   -1.6426    0.6933    1.6860 C   0  0  0  0  0  0  0  0  0  0  0  0
   -0.2445    0.9397   -1.3007 C   0  0  0  0  0  0  0  0  0  0  0  0
   -0.4318   -0.7464   -1.5960 S   0  0  0  0  0  0  0  0  0  0  0  0
   -0.8986    4.3558   -0.0922 C   0  0  0  0  0  0  0  0  0  0  0  0
   -0.1841    5.5132    0.0364 C   0  0  0  0  0  0  0  0  0  0  0  0
   -0.9278    6.5707    0.6022 C   0  0  0  0  0  0  0  0  0  0  0  0
   -0.4914    7.8785    0.8612 C   0  0  0  0  0  0  0  0  0  0  0  0
    0.8680    8.3069    0.4991 C   0  0  0  0  0  0  0  0  0  0  0  0
    1.3131    8.2006   -0.8158 C   0  0  0  0  0  0  0  0  0  0  0  0
    2.5876    8.6142   -1.1587 C   0  0  0  0  0  0  0  0  0  0  0  0
    3.4361    9.1298   -0.1948 C   0  0  0  0  0  0  0  0  0  0  0  0
    2.9945    9.2339    1.1150 C   0  0  0  0  0  0  0  0  0  0  0  0
    4.0822    9.8999    2.3663 S   0  0  0  0  0  0  0  0  0  0  0  0
    3.9332   11.6710    1.9278 C   0  0  0  0  0  0  0  0  0  0  0  0
    2.5472   12.2107    2.2177 C   0  0  0  0  0  0  0  0  0  0  0  0
    1.7202    8.8277    1.4665 C   0  0  0  0  0  0  0  0  0  0  0  0
   -1.4041    8.7328    1.4536 C   0  0  0  0  0  0  0  0  0  0  0  0
   -2.7371    8.3447    1.7674 C   0  0  0  0  0  0  0  0  0  0  0  0
   -3.1722    7.0296    1.5038 C   0  0  0  0  0  0  0  0  0  0  0  0
   -4.5376    6.5878    1.8173 C   0  0  0  0  0  0  0  0  0  0  0  0
   -5.6448    7.2901    1.3518 C   0  0  0  0  0  0  0  0  0  0  0  0
   -6.9196    6.8305    1.6334 C   0  0  0  0  0  0  0  0  0  0  0  0
   -7.1026    5.6918    2.3930 C   0  0  0  0  0  0  0  0  0  0  0  0
   -5.9983    4.9951    2.8761 C   0  0  0  0  0  0  0  0  0  0  0  0
   -6.2989    3.5528    3.8503 S   0  0  0  0  0  0  0  0  0  0  0  0
   -4.8125    3.4708    4.9224 C   0  0  0  0  0  0  0  0  0  0  0  0
   -5.1393    2.6699    6.1675 C   0  0  0  0  0  0  0  0  0  0  0  0
   -4.7193    5.4329    2.5725 C   0  0  0  0  0  0  0  0  0  0  0  0
   -2.2483    6.1713    0.9359 C   0  0  0  0  0  0  0  0  0  0  0  0
   -2.5384    4.5017    0.4979 S   0  0  0  0  0  0  0  0  0  0  0  0
   -3.4746    9.3978    2.3436 C   0  0  0  0  0  0  0  0  0  0  0  0
   -2.7693   10.5711    2.4587 C   0  0  0  0  0  0  0  0  0  0  0  0
   -1.1158   10.3958    1.8654 S   0  0  0  0  0  0  0  0  0  0  0  0
   -3.1460   11.8382    2.9539 C   0  0  0  0  0  0  0  0  0  0  0  0
   -4.3472   12.3106    3.3927 C   0  0  0  0  0  0  0  0  0  0  0  0
   -5.6790   11.6926    3.4927 C   0  0  0  0  0  0  0  0  0  0  0  0
   -6.0255   10.5616    3.2231 O   0  0  0  0  0  0  0  0  0  0  0  0
   -6.5765   12.7634    4.0042 C   0  0  0  0  0  0  0  0  0  0  0  0
   -7.9317   12.7033    4.2640 C   0  0  0  0  0  0  0  0  0  0  0  0
   -8.5605   13.8483    4.7406 C   0  0  0  0  0  0  0  0  0  0  0  0
  -10.2457   13.8108    5.0725 Cl  0  0  0  0  0  0  0  0  0  0  0  0
   -7.8367   15.0277    4.9513 C   0  0  0  0  0  0  0  0  0  0  0  0
   -8.6396   16.4273    5.5417 Cl  0  0  0  0  0  0  0  0  0  0  0  0
   -6.4722   15.0824    4.6877 C   0  0  0  0  0  0  0  0  0  0  0  0
   -5.8539   13.9424    4.2133 C   0  0  0  0  0  0  0  0  0  0  0  0
   -4.4341   13.7189    3.8447 C   0  0  0  0  0  0  0  0  0  0  0  0
   -3.5296   14.5210    3.8960 O   0  0  0  0  0  0  0  0  0  0  0  0
    4.6542  -10.6142   -1.9978 H   0  0  0  0  0  0  0  0  0  0  0  0
    3.0162  -15.4798   -0.6460 H   0  0  0  0  0  0  0  0  0  0  0  0
    0.9259  -12.3656    2.7629 H   0  0  0  0  0  0  0  0  0  0  0  0
    0.3644  -15.6535    3.6187 H   0  0  0  0  0  0  0  0  0  0  0  0
   -1.9663  -15.0942    2.9462 H   0  0  0  0  0  0  0  0  0  0  0  0
   -1.8036  -13.8559    0.6484 H   0  0  0  0  0  0  0  0  0  0  0  0
   -0.7189  -15.5171   -1.1167 H   0  0  0  0  0  0  0  0  0  0  0  0
   -0.2106  -17.7797    0.0935 H   0  0  0  0  0  0  0  0  0  0  0  0
   -2.4318  -17.2042    1.4146 H   0  0  0  0  0  0  0  0  0  0  0  0
   -1.1787  -17.6453    2.6015 H   0  0  0  0  0  0  0  0  0  0  0  0
    1.4228  -17.2644    1.9022 H   0  0  0  0  0  0  0  0  0  0  0  0
    5.1182   -8.0500   -2.3851 H   0  0  0  0  0  0  0  0  0  0  0  0
    6.4712   -5.7887   -1.5292 H   0  0  0  0  0  0  0  0  0  0  0  0
    8.4768   -5.3962   -2.9174 H   0  0  0  0  0  0  0  0  0  0  0  0
    8.2688   -4.7250   -5.2494 H   0  0  0  0  0  0  0  0  0  0  0  0
    8.1195   -3.8081   -7.1841 H   0  0  0  0  0  0  0  0  0  0  0  0
    7.2458   -3.9562   -8.7145 H   0  0  0  0  0  0  0  0  0  0  0  0
    8.0161   -6.3518   -6.9631 H   0  0  0  0  0  0  0  0  0  0  0  0
    8.8641   -5.8581   -8.4337 H   0  0  0  0  0  0  0  0  0  0  0  0
    7.1895   -6.4191   -8.5189 H   0  0  0  0  0  0  0  0  0  0  0  0
    4.0084   -4.7781   -4.8737 H   0  0  0  0  0  0  0  0  0  0  0  0
   -0.5466   -7.6469   -1.0931 H   0  0  0  0  0  0  0  0  0  0  0  0
   -2.6699   -7.7194    0.1452 H   0  0  0  0  0  0  0  0  0  0  0  0
   -3.2436   -5.9663    1.7478 H   0  0  0  0  0  0  0  0  0  0  0  0
   -3.7047   -2.2855    2.5114 H   0  0  0  0  0  0  0  0  0  0  0  0
   -3.8538   -3.7583    1.5364 H   0  0  0  0  0  0  0  0  0  0  0  0
   -4.0195   -5.0875    3.7170 H   0  0  0  0  0  0  0  0  0  0  0  0
   -5.3266   -3.9077    3.5426 H   0  0  0  0  0  0  0  0  0  0  0  0
   -3.9577   -3.5635    4.6002 H   0  0  0  0  0  0  0  0  0  0  0  0
    0.5519   -4.1255    1.0751 H   0  0  0  0  0  0  0  0  0  0  0  0
    0.1107   -3.1917   -0.9776 H   0  0  0  0  0  0  0  0  0  0  0  0
    3.0342    0.5410    0.6511 H   0  0  0  0  0  0  0  0  0  0  0  0
    3.6593    2.3682    2.1904 H   0  0  0  0  0  0  0  0  0  0  0  0
    5.3384    7.1285    1.4994 H   0  0  0  0  0  0  0  0  0  0  0  0
    4.5624    6.4514    0.0516 H   0  0  0  0  0  0  0  0  0  0  0  0
    6.2972    6.1270    0.3852 H   0  0  0  0  0  0  0  0  0  0  0  0
    5.3989    4.5070   -1.0781 H   0  0  0  0  0  0  0  0  0  0  0  0
    4.7654    2.7048   -2.5991 H   0  0  0  0  0  0  0  0  0  0  0  0
    5.9197    0.1747   -1.8612 H   0  0  0  0  0  0  0  0  0  0  0  0
    7.3733   -0.5107   -3.7281 H   0  0  0  0  0  0  0  0  0  0  0  0
    6.6393   -1.0123   -8.7396 H   0  0  0  0  0  0  0  0  0  0  0  0
    5.2158   -1.7667   -7.9873 H   0  0  0  0  0  0  0  0  0  0  0  0
    5.4345    0.0159   -7.9321 H   0  0  0  0  0  0  0  0  0  0  0  0
    3.9443   -0.8612   -6.2582 H   0  0  0  0  0  0  0  0  0  0  0  0
    2.5099   -0.1489   -4.4206 H   0  0  0  0  0  0  0  0  0  0  0  0
   -2.5769    3.1523   -2.5698 H   0  0  0  0  0  0  0  0  0  0  0  0
   -4.0995    2.8262   -4.4381 H   0  0  0  0  0  0  0  0  0  0  0  0
   -6.7589    1.9982   -6.7939 H   0  0  0  0  0  0  0  0  0  0  0  0
   -6.1844    3.0991   -5.5218 H   0  0  0  0  0  0  0  0  0  0  0  0
   -5.0186    2.1017   -6.4528 H   0  0  0  0  0  0  0  0  0  0  0  0
   -5.8233   -0.5402   -2.4415 H   0  0  0  0  0  0  0  0  0  0  0  0
   -4.2662   -0.2253   -0.5669 H   0  0  0  0  0  0  0  0  0  0  0  0
   -4.7320    1.8155    0.9088 H   0  0  0  0  0  0  0  0  0  0  0  0
   -5.1985    0.8675    3.1255 H   0  0  0  0  0  0  0  0  0  0  0  0
   -2.3730   -1.7167    6.5644 H   0  0  0  0  0  0  0  0  0  0  0  0
   -1.3616   -0.4632    5.8161 H   0  0  0  0  0  0  0  0  0  0  0  0
   -1.7477   -1.9668    4.9164 H   0  0  0  0  0  0  0  0  0  0  0  0
   -1.0853   -0.2569    3.4984 H   0  0  0  0  0  0  0  0  0  0  0  0
   -0.6356    0.6392    1.3012 H   0  0  0  0  0  0  0  0  0  0  0  0
    0.8485    5.5940   -0.2536 H   0  0  0  0  0  0  0  0  0  0  0  0
    0.6485    7.8077   -1.5713 H   0  0  0  0  0  0  0  0  0  0  0  0
    2.9236    8.5318   -2.1821 H   0  0  0  0  0  0  0  0  0  0  0  0
    4.4361    9.4464   -0.4514 H   0  0  0  0  0  0  0  0  0  0  0  0
    4.6882   12.1677    2.5357 H   0  0  0  0  0  0  0  0  0  0  0  0
    4.1934   11.7724    0.8740 H   0  0  0  0  0  0  0  0  0  0  0  0
    1.7983   11.6969    1.6169 H   0  0  0  0  0  0  0  0  0  0  0  0
    2.5085   13.2730    1.9855 H   0  0  0  0  0  0  0  0  0  0  0  0
    2.2996   12.0746    3.2678 H   0  0  0  0  0  0  0  0  0  0  0  0
    1.3989    8.9037    2.4939 H   0  0  0  0  0  0  0  0  0  0  0  0
   -5.5063    8.1766    0.7523 H   0  0  0  0  0  0  0  0  0  0  0  0
   -7.7773    7.3728    1.2657 H   0  0  0  0  0  0  0  0  0  0  0  0
   -8.0933    5.3337    2.6262 H   0  0  0  0  0  0  0  0  0  0  0  0
   -4.5471    4.4975    5.1743 H   0  0  0  0  0  0  0  0  0  0  0  0
   -4.0075    3.0003    4.3566 H   0  0  0  0  0  0  0  0  0  0  0  0
   -5.4116    1.6508    5.9048 H   0  0  0  0  0  0  0  0  0  0  0  0
   -5.9672    3.1248    6.7061 H   0  0  0  0  0  0  0  0  0  0  0  0
   -4.2703    2.6364    6.8210 H   0  0  0  0  0  0  0  0  0  0  0  0
   -3.8550    4.8949    2.9295 H   0  0  0  0  0  0  0  0  0  0  0  0
   -4.4942    9.3040    2.6704 H   0  0  0  0  0  0  0  0  0  0  0  0
   -2.3469   12.5758    2.9784 H   0  0  0  0  0  0  0  0  0  0  0  0
   -8.4878   11.7934    4.1018 H   0  0  0  0  0  0  0  0  0  0  0  0
   -5.9141   15.9911    4.8491 H   0  0  0  0  0  0  0  0  0  0  0  0
  1  2  2  0  0  0  0
  2  3  1  0  0  0  0
  3  4  2  0  0  0  0
  3  5  1  0  0  0  0
  5  6  2  0  0  0  0
  6  7  1  0  0  0  0
  7  8  2  0  0  0  0
  8  9  1  0  0  0  0
  9 10  2  0  0  0  0
 10 11  1  0  0  0  0
 11 12  2  0  0  0  0
 12 13  1  0  0  0  0
 13 14  3  0  0  0  0
 12 15  1  0  0  0  0
 15 16  3  0  0  0  0
  8 17  1  0  0  0  0
 17 18  1  0  0  0  0
 18 19  1  0  0  0  0
 19 20  2  0  0  0  0
 20 21  1  0  0  0  0
 21 22  1  0  0  0  0
 21 23  1  0  0  0  0
  1 24  1  0  0  0  0
 24 25  2  0  0  0  0
 25 26  1  0  0  0  0
 26 27  2  0  0  0  0
 27 28  1  0  0  0  0
 28 29  2  0  0  0  0
 29 30  1  0  0  0  0
 30 31  2  0  0  0  0
 31 32  1  0  0  0  0
 32 33  1  0  0  0  0
 33 34  1  0  0  0  0
 34 35  1  0  0  0  0
 32 36  2  0  0  0  0
 27 37  1  0  0  0  0
 37 38  2  0  0  0  0
 38 39  1  0  0  0  0
 39 40  1  0  0  0  0
 40 41  2  0  0  0  0
 41 42  1  0  0  0  0
 42 43  2  0  0  0  0
 43 44  1  0  0  0  0
 44 45  1  0  0  0  0
 45 46  1  0  0  0  0
 46 47  1  0  0  0  0
 44 48  2  0  0  0  0
 39 49  2  0  0  0  0
 49 50  1  0  0  0  0
 38 51  1  0  0  0  0
 51 52  2  0  0  0  0
 52 53  1  0  0  0  0
 52 54  1  0  0  0  0
 54 55  2  0  0  0  0
 55 56  1  0  0  0  0
 56 57  1  0  0  0  0
 57 58  2  0  0  0  0
 58 59  1  0  0  0  0
 59 60  2  0  0  0  0
 60 61  1  0  0  0  0
 61 62  1  0  0  0  0
 60 63  1  0  0  0  0
 63 64  2  0  0  0  0
 56 65  1  0  0  0  0
 65 66  2  0  0  0  0
 66 67  1  0  0  0  0
 67 68  2  0  0  0  0
 68 69  1  0  0  0  0
 69 70  1  0  0  0  0
 68 71  1  0  0  0  0
 71 72  2  0  0  0  0
 55 73  1  0  0  0  0
 73 74  1  0  0  0  0
 74 75  1  0  0  0  0
 75 76  2  0  0  0  0
 76 77  1  0  0  0  0
 77 78  1  0  0  0  0
 78 79  2  0  0  0  0
 79 80  1  0  0  0  0
 80 81  2  0  0  0  0
 81 82  1  0  0  0  0
 82 83  1  0  0  0  0
 81 84  1  0  0  0  0
 84 85  2  0  0  0  0
 77 86  1  0  0  0  0
 86 87  2  0  0  0  0
 87 88  1  0  0  0  0
 88 89  2  0  0  0  0
 89 90  1  0  0  0  0
 90 91  1  0  0  0  0
 89 92  1  0  0  0  0
 92 93  2  0  0  0  0
 76 94  1  0  0  0  0
 94 95  1  0  0  0  0
 75 96  1  0  0  0  0
 96 97  2  0  0  0  0
 97 98  1  0  0  0  0
 98 99  2  0  0  0  0
 99100  1  0  0  0  0
100101  2  0  0  0  0
101102  1  0  0  0  0
102103  2  0  0  0  0
103104  1  0  0  0  0
104105  1  0  0  0  0
105106  1  0  0  0  0
106107  1  0  0  0  0
104108  2  0  0  0  0
 99109  1  0  0  0  0
109110  2  0  0  0  0
110111  1  0  0  0  0
111112  1  0  0  0  0
112113  2  0  0  0  0
113114  1  0  0  0  0
114115  2  0  0  0  0
115116  1  0  0  0  0
116117  1  0  0  0  0
117118  1  0  0  0  0
118119  1  0  0  0  0
116120  2  0  0  0  0
111121  2  0  0  0  0
121122  1  0  0  0  0
110123  1  0  0  0  0
123124  2  0  0  0  0
124125  1  0  0  0  0
124126  1  0  0  0  0
126127  2  0  0  0  0
127128  1  0  0  0  0
128129  2  0  0  0  0
128130  1  0  0  0  0
130131  2  0  0  0  0
131132  1  0  0  0  0
132133  1  0  0  0  0
132134  2  0  0  0  0
134135  1  0  0  0  0
134136  1  0  0  0  0
136137  2  0  0  0  0
137138  1  0  0  0  0
138139  2  0  0  0  0
 11  2  1  0  0  0  0
 23 17  1  0  0  0  0
 50 24  1  0  0  0  0
 95 54  1  0  0  0  0
122 96  1  0  0  0  0
138127  1  0  0  0  0
 10  5  1  0  0  0  0
 22 18  1  0  0  0  0
 49 26  1  0  0  0  0
 64 57  1  0  0  0  0
 72 65  1  0  0  0  0
 94 73  2  0  0  0  0
121 98  1  0  0  0  0
137130  1  0  0  0  0
 23  7  1  0  0  0  0
 36 28  1  0  0  0  0
 53 37  1  0  0  0  0
 85 78  1  0  0  0  0
 93 86  1  0  0  0  0
108100  1  0  0  0  0
125109  1  0  0  0  0
 48 40  1  0  0  0  0
120112  1  0  0  0  0
  1140  1  0  0  0  0
  6141  1  0  0  0  0
  9142  1  0  0  0  0
 17143  1  0  0  0  0
 18144  1  0  0  0  0
 19145  1  0  0  0  0
 20146  1  0  0  0  0
 21147  1  0  0  0  0
 22148  1  0  0  0  0
 22149  1  0  0  0  0
 23150  1  0  0  0  0
 25151  1  0  0  0  0
 29152  1  0  0  0  0
 30153  1  0  0  0  0
 31154  1  0  0  0  0
 34155  1  0  0  0  0
 34156  1  0  0  0  0
 35157  1  0  0  0  0
 35158  1  0  0  0  0
 35159  1  0  0  0  0
 36160  1  0  0  0  0
 41161  1  0  0  0  0
 42162  1  0  0  0  0
 43163  1  0  0  0  0
 46164  1  0  0  0  0
 46165  1  0  0  0  0
 47166  1  0  0  0  0
 47167  1  0  0  0  0
 47168  1  0  0  0  0
 48169  1  0  0  0  0
 51170  1  0  0  0  0
 58171  1  0  0  0  0
 59172  1  0  0  0  0
 62173  1  0  0  0  0
 62174  1  0  0  0  0
 62175  1  0  0  0  0
 63176  1  0  0  0  0
 64177  1  0  0  0  0
 66178  1  0  0  0  0
 67179  1  0  0  0  0
 70180  1  0  0  0  0
 70181  1  0  0  0  0
 70182  1  0  0  0  0
 71183  1  0  0  0  0
 72184  1  0  0  0  0
 79185  1  0  0  0  0
 80186  1  0  0  0  0
 83187  1  0  0  0  0
 83188  1  0  0  0  0
 83189  1  0  0  0  0
 84190  1  0  0  0  0
 85191  1  0  0  0  0
 87192  1  0  0  0  0
 88193  1  0  0  0  0
 91194  1  0  0  0  0
 91195  1  0  0  0  0
 91196  1  0  0  0  0
 92197  1  0  0  0  0
 93198  1  0  0  0  0
 97199  1  0  0  0  0
101200  1  0  0  0  0
102201  1  0  0  0  0
103202  1  0  0  0  0
106203  1  0  0  0  0
106204  1  0  0  0  0
107205  1  0  0  0  0
107206  1  0  0  0  0
107207  1  0  0  0  0
108208  1  0  0  0  0
113209  1  0  0  0  0
114210  1  0  0  0  0
115211  1  0  0  0  0
118212  1  0  0  0  0
118213  1  0  0  0  0
119214  1  0  0  0  0
119215  1  0  0  0  0
119216  1  0  0  0  0
120217  1  0  0  0  0
123218  1  0  0  0  0
126219  1  0  0  0  0
131220  1  0  0  0  0
136221  1  0  0  0  0
M  END
