195

C          2.77730       -5.38710        4.27340
C          3.65690       -6.38190        4.02870
C          3.47560       -7.70130        4.69060
O          2.75330       -7.94080        5.63250
C          4.26100       -8.64840        3.88050
C          4.29970      -10.03530        4.01390
C          5.06030      -10.66880        3.06160
C          5.73520       -9.97680        2.04580
C          5.71470       -8.61020        1.90630
C          4.94790       -7.94500        2.86670
C          4.69890       -6.51650        3.02820
C          5.40870       -5.50510        2.44190
C          6.40400       -5.69200        1.46020
N          7.21360       -5.76970        0.65020
C          5.27370       -4.14400        2.77620
N          5.24020       -3.02220        3.02070
C          6.26030      -11.24480        1.42190
C          5.55740      -11.75260        0.13830
C          4.14150      -11.23360        0.19080
C          3.50520      -11.89010        1.15180
C          4.47990      -12.86360        1.76770
C          5.32370      -13.21950        0.53340
C          5.51090      -12.01550        2.55420
C          2.49280       -4.23440        3.42860
C          2.10830       -4.39430        2.09450
S          2.14010       -5.99420        1.30810
C          0.75760       -6.83330        2.17150
C          0.86430       -8.32890        1.95270
C          1.72920       -3.27950        1.35580
S          1.23250       -3.48990       -0.34130
C          2.75330       -2.90900       -1.18130
C          3.98640       -3.66300       -0.72910
C          1.70800       -2.00260        1.92550
C          2.20210       -1.81860        3.22230
C          2.58060       -2.94380        3.96380
C          3.13240       -2.87730        5.32770
O          3.47930       -3.89430        5.91090
C          3.20130       -1.54610        5.89940
C          2.79120       -0.39340        5.16730
C          2.28430       -0.45000        3.79410
O          1.97080        0.54770        3.17600
C          2.93260        0.75110        5.89940
S          3.55030        0.44380        7.46750
C          3.63610       -1.23430        7.15870
C          1.03060       -0.94230        1.17500
C         -0.34080       -0.86970        1.09960
N         -1.18530       -1.73160        1.79840
C         -2.28720       -2.30100        1.16580
C         -3.40880       -2.67760        1.90180
C         -4.51750       -3.21290        1.27630
C         -4.53230       -3.36590       -0.10290
S         -5.89850       -4.02330       -1.01190
C         -7.23750       -4.10170        0.21250
C         -3.40960       -3.00150       -0.84240
C         -2.29780       -2.48380       -0.21880
C         -0.89650       -1.96770        3.14970
C         -0.83470       -3.25980        3.66550
C         -0.47330       -3.47680        4.98220
C         -0.18290       -2.40120        5.81170
S          0.28650       -2.53690        7.50920
C          0.63480       -4.29970        7.76020
C         -0.28590       -1.10440        5.30980
C         -0.63250       -0.88870        3.99540
C         -0.75000        0.17560        0.23420
S         -2.27010        0.80390       -0.28530
C         -1.45600        1.97890       -1.28570
C         -0.08540        1.89230       -1.21850
N          0.79340        2.66440       -1.97970
C          1.87430        2.06810       -2.62010
C          1.85080        0.71060       -2.94540
C          2.92330        0.11530       -3.57780
C          4.04570        0.86260       -3.90220
S          5.46570        0.18940       -4.71530
C          5.32900       -1.58930       -4.36910
C          4.06680        2.22180       -3.60310
C          2.99950        2.81810       -2.97010
C          0.66320        4.06920       -1.91880
C          0.45450        4.81630       -3.07230
C          0.30130        6.18880       -3.00380
C          0.36750        6.83140       -1.77450
S          0.20550        8.57420       -1.55630
C         -0.22450        9.19520       -3.20610
C          0.59100        6.08480       -0.61830
C          0.73450        4.71700       -0.68720
C          0.31050        0.85900       -0.33160
S          1.83790        0.26960        0.22140
C         -2.25460        2.89140       -2.10340
C         -2.80330        2.43030       -3.30010
S         -2.32020        0.81320       -3.89390
C         -0.86680        1.32800       -4.88160
C         -1.22860        2.08890       -6.13920
C         -3.66450        3.23270       -4.04320
S         -4.59520        2.60580       -5.41110
C         -5.48650        1.17230       -4.70370
C         -6.68160        1.61900       -3.88920
C         -3.76290        4.60260       -3.73760
C         -3.08440        5.10260       -2.61810
C         -2.46360        4.22330       -1.71460
C         -2.17310        4.62860       -0.31880
O         -1.78650        3.85010        0.53080
C         -2.49740        6.02450       -0.01250
C         -2.84890        6.96580       -1.02220
C         -2.96620        6.56930       -2.41940
O         -2.91760        7.35700       -3.34820
C         -3.03330        8.22340       -0.51860
S         -2.81440        8.27100        1.17630
C         -2.43730        6.60210        1.22360
C         -4.61430        5.45050       -4.55480
C         -5.46770        6.40160       -4.13190
C         -6.02180        7.38510       -5.12070
O         -6.12720        7.21590       -6.30870
C         -6.33120        8.57630       -4.31480
C         -6.71840        9.84880       -4.75010
O         -6.87860       10.03080       -6.06650
C         -7.25940       11.29800       -6.55040
C         -6.90640       10.83000       -3.76810
C         -6.70920       10.54380       -2.42850
C         -6.33140        9.28170       -1.99300
C         -6.14590        8.29550       -2.94800
C         -5.77430        6.89390       -2.79990
C         -5.83530        6.16460       -1.64370
C         -6.07190        6.71570       -0.36800
N         -6.20030        7.11630        0.70030
C         -5.70040        4.76290       -1.58950
N         -5.65270        3.62100       -1.48000
H          2.07450       -5.57710        5.08000
H          3.75970      -10.53110        4.80550
H          6.22760       -8.08910        1.11500
H          7.34280      -11.33970        1.36860
H          6.10470      -11.56190       -0.78080
H          3.77620      -10.42660       -0.41710
H          2.50120      -11.74180        1.50500
H          4.04660      -13.68530        2.33190
H          4.76040      -13.77310       -0.21630
H          6.24080      -13.75520        0.77450
H          6.10370      -12.61440        3.24270
H          0.82650       -6.58190        3.22940
H         -0.16590       -6.43300        1.75170
H          1.79700       -8.71080        2.36370
H          0.83490       -8.56070        0.89050
H          0.03420       -8.83120        2.44450
H          2.84900       -1.83620       -1.01260
H          2.53800       -3.09580       -2.23300
H          4.83160       -3.41090       -1.36660
H          4.24610       -3.39930        0.29490
H          3.82160       -4.73750       -0.78140
H          2.70070        1.75040        5.58750
H          3.99130       -1.91370        7.90800
H         -3.41670       -2.54040        2.97320
H         -5.36620       -3.49450        1.87890
H         -7.01510       -4.85110        0.96680
H         -7.38310       -3.12250        0.65890
H         -8.12470       -4.39210       -0.34160
H         -3.41890       -3.13340       -1.91320
H         -1.42730       -2.22930       -0.80180
H         -1.06200       -4.09740        3.02190
H         -0.42260       -4.48910        5.35180
H          1.48060       -4.60000        7.14870
H          0.89560       -4.39300        8.80980
H         -0.24860       -4.89510        7.55110
H         -0.09790       -0.27080        5.96930
H         -0.69980        0.11660        3.60840
H          0.98260        0.11240       -2.71400
H          2.86470       -0.93330       -3.82220
H          4.54860       -2.03680       -4.97820
H          6.29030       -2.01800       -4.63430
H          5.13430       -1.73470       -3.31080
H          4.93750        2.80380       -3.86330
H          3.03840        3.86940       -2.72840
H          0.41340        4.32120       -4.03190
H          0.12700        6.74210       -3.91220
H          0.59890        9.02320       -3.89320
H         -1.14040        8.72130       -3.54790
H         -0.38150       10.26220       -3.08140
H          0.65940        6.59530        0.33050
H          0.89940        4.13850        0.20880
H         -0.22190        1.91370       -4.22940
H         -0.37400        0.38640       -5.12110
H         -1.68890        3.04560       -5.89950
H         -1.92370        1.51710       -6.74890
H         -0.32580        2.27600       -6.71810
H         -4.78940        0.58280       -4.11390
H         -5.79110        0.60210       -5.58130
H         -6.36370        2.18760       -3.01750
H         -7.23210        0.74440       -3.54900
H         -7.34600        2.23860       -4.48850
H         -3.30260        9.10710       -1.06300
H         -2.18980        6.12100        2.14900
H         -4.55980        5.30400       -5.62770
H         -8.23970       11.59630       -6.16620
H         -6.51810       12.06290       -6.29930
H         -7.31400       11.19020       -7.63210
H         -7.20810       11.82700       -4.04760
H         -6.85690       11.32830       -1.70130
H         -6.18270        9.09030       -0.94340
