201

C         -3.05190       -3.31560        8.60470
C         -4.08410       -4.20760        8.61000
C         -4.74940       -4.79470        7.42250
O         -4.36450       -4.82200        6.26970
C         -6.04720       -5.29990        7.90400
C         -7.06370       -5.85530        7.12780
C         -8.17370       -6.23140        7.84430
C         -8.27250       -6.06090        9.23230
C         -7.28020       -5.51350       10.00990
C         -6.13770       -5.13100        9.30020
C         -4.89970       -4.52150        9.77140
C         -4.52950       -4.35810       11.07910
C         -3.27380       -3.87000       11.50240
N         -2.26830       -3.50900       11.92250
C         -5.33450       -4.70810       12.18320
N         -5.94290       -4.97000       13.12080
C         -9.65860       -6.65240        9.28690
C         -9.76880       -8.10200        9.80550
C        -11.11780       -8.56330        9.30310
C        -11.02500       -8.72690        7.98970
C         -9.61130       -8.37900        7.58200
C         -8.85330       -8.85190        8.82920
C         -9.54790       -6.84490        7.74020
C         -2.20620       -2.98910        7.51760
C         -1.81470       -3.75200        6.44750
C         -0.99570       -3.06660        5.52740
C         -0.51410       -3.52500        4.27780
C         -0.93910       -4.79020        3.72570
C         -2.14420       -5.41990        3.89000
C         -2.28280       -6.62310        3.16670
C         -3.52910       -7.45000        3.16270
C         -4.49460       -6.97200        2.07670
C         -1.15650       -6.89570        2.44320
Cl        -0.89400       -8.24750        1.42970
S          0.07940       -5.69580        2.63560
C          0.29620       -2.64150        3.57310
C          0.58430       -1.32500        4.01150
C          0.05470       -0.85030        5.22440
C          0.23700        0.52800        5.64030
C          0.07070        1.65540        4.88930
C          0.29470        2.86270        5.59040
C          0.18960        4.22020        4.97090
C          1.49360        4.59670        4.26660
C          0.65290        2.61860        6.88450
S          0.69510        0.92920        7.27200
Cl         1.03060        3.78520        8.07740
C         -0.70290       -1.74850        5.96510
S         -1.48330       -1.38900        7.47290
C          1.31660       -0.59140        3.04520
C          1.51120       -1.27270        1.88370
S          0.96230       -2.93170        1.99190
C          1.94470       -0.74250        0.62500
C          1.26350       -0.85350       -0.57530
N          0.04590       -1.49690       -0.75570
C         -0.15770       -2.20680       -1.94440
C          0.88310       -2.94990       -2.50130
C          0.69120       -3.63470       -3.67880
C         -0.53720       -3.58720       -4.33460
S         -0.64840       -4.48370       -5.85260
C         -2.30960       -4.09720       -6.47220
C         -1.58010       -2.86070       -3.77600
C         -1.38980       -2.17810       -2.59040
C         -0.94610       -1.44520        0.23040
C         -1.10860       -0.30080        1.01300
C         -1.99270       -0.30080        2.06850
C         -2.73870       -1.43690        2.37010
S         -3.73780       -1.35380        3.82400
C         -4.93410       -2.70190        3.60760
C         -2.63000       -2.55680        1.55630
C         -1.74720       -2.55610        0.49440
C          1.91660       -0.11480       -1.59470
S          1.58360        0.16760       -3.26750
C          2.89520        1.32370       -3.33950
C          3.62890        1.39120       -2.16320
N          4.82350        2.06540       -2.02880
C          5.60830        2.31730       -3.16930
C          6.14100        3.58660       -3.39020
C          6.76890        3.87360       -4.58140
C          6.88290        2.90370       -5.57600
S          7.57920        3.41990       -7.11010
C          7.24780        2.03080       -8.22660
C          6.43830        1.61250       -5.31800
C          5.81070        1.32380       -4.12300
C          5.22900        2.57670       -0.79030
C          6.57930        2.54290       -0.43910
C          6.98890        3.02860        0.78060
C          6.06260        3.55520        1.68010
S          6.70940        4.13700        3.21560
C          5.22790        4.43300        4.22180
C          4.72240        3.61290        1.32470
C          4.31080        3.13070        0.09640
C          3.03840        0.57570       -1.16250
S          3.34260        0.31140        0.52100
C          3.09010        2.12930       -4.52150
C          3.27010        3.50290       -4.43730
F          3.20320        4.08780       -3.22390
C          3.49890        4.32350       -5.53090
C          3.56160        3.78890       -6.80700
C          3.40820        2.37790       -6.94630
N          3.51630        1.82290       -8.17510
C          3.39020        0.53660       -8.28620
C          3.15220       -0.29040       -7.14980
O          3.08470       -1.59930       -7.34820
C          2.93610       -2.42720       -6.19640
C          3.01370       -3.87040       -6.65950
N          3.03300        0.22060       -5.94760
C          3.14810        1.55920       -5.82020
C          3.82850        4.54610       -7.99810
C          3.49140        5.82850       -8.28710
C          2.53690        6.69370       -7.53810
O          2.03790        6.50200       -6.45080
C          2.24910        7.83230       -8.42780
C          1.34450        8.86430       -8.18120
C          1.26440        9.79090       -9.19150
C          2.02420        9.69600      -10.36630
C          2.91520        8.68250      -10.62400
C          3.01640        7.72840       -9.60460
C          3.82540        6.51740       -9.52800
C          4.76500        6.13050      -10.44490
C          5.08360        6.85530      -11.61400
N          5.39280        7.38740      -12.58310
C          5.57000        4.97350      -10.37590
N          6.27760        4.07050      -10.42830
C          1.43510       10.95890      -10.94360
C          2.31830       12.22330      -10.88330
C          1.33590       13.35830      -11.06230
C          0.61680       13.44870       -9.95070
C          1.10110       12.37640       -9.00160
C          2.58800       12.34280       -9.37770
C          0.58910       11.06480       -9.63410
H         -2.88870       -2.72570        9.49930
H         -6.95180       -5.96060        6.05970
H         -7.37470       -5.37640       11.07410
H        -10.43760       -6.00040        9.67710
H         -9.57430       -8.22090       10.86770
H        -11.98670       -8.66650        9.92610
H        -11.80080       -8.99370        7.29620
H         -9.27430       -8.75220        6.61850
H         -7.81260       -8.53470        8.86380
H         -8.90920       -9.93120        8.95980
H        -10.25390       -6.32110        7.09820
H         -2.05560       -4.79340        6.36970
H         -2.94130       -5.03270        4.49650
H         -4.00950       -7.36770        4.13920
H         -3.27280       -8.49560        2.98540
H         -4.02560       -7.04020        1.09790
H         -5.39260       -7.58490        2.07440
H         -4.78240       -5.93760        2.25200
H         -0.25010        1.63150        3.86350
H         -0.62930        4.22010        4.24920
H         -0.03040        4.95710        5.74430
H          1.40120        5.57370        3.79840
H          2.30890        4.62990        4.98560
H          1.73460        3.86340        3.49940
H          1.63080        0.42680        3.18040
H          1.83610       -2.99550       -1.99600
H          1.48820       -4.22560       -4.10070
H         -2.41490       -3.02400       -6.60230
H         -3.06270       -4.49040       -5.79540
H         -2.38540       -4.59450       -7.43430
H         -2.54490       -2.81130       -4.25440
H         -2.20190       -1.60920       -2.16240
H         -0.52900        0.58290        0.79130
H         -2.11370        0.57700        2.68440
H         -5.34150       -2.66610        2.60180
H         -4.46700       -3.65830        3.81780
H         -5.71840       -2.51680        4.33510
H         -3.20100       -3.44840        1.76080
H         -1.63980       -3.44350       -0.11120
H          6.01890        4.35220       -2.63920
H          7.15270        4.86390       -4.77160
H          6.19230        1.77780       -8.18980
H          7.87370        1.18150       -7.96780
H          7.49710        2.39580       -9.21770
H          6.56790        0.82570       -6.04400
H          5.44350        0.32460       -3.93990
H          7.29860        2.12770       -1.12900
H          8.03110        2.99890        1.05870
H          4.62250        3.53200        4.25070
H          4.66750        5.27570        3.82730
H          5.59140        4.66780        5.21740
H          3.98940        4.04440        1.98710
H          3.27320        3.20920       -0.19070
H          3.63780        5.37640       -5.35700
H          3.48740        0.10100       -9.27000
H          1.97860       -2.20640       -5.71200
H          3.73630       -2.18890       -5.48590
H          2.15790       -4.11210       -7.28300
H          3.02230       -4.53700       -5.80310
H          3.92270       -4.02520       -7.23500
H          4.30140        3.95960       -8.77650
H          0.77490        8.89180       -7.26550
H          3.48040        8.61830      -11.53840
H          0.91490       10.84810      -11.89300
H          3.17790       12.20970      -11.54750
H          1.23100       13.92340      -11.96970
H         -0.20890       14.10430       -9.74440
H          0.85180       12.50340       -7.95150
H          3.13390       11.50080       -8.95620
H          3.09750       13.27080       -9.12360
H         -0.49600       11.02420       -9.70990
