200

C          2.18860        9.06430        2.89820
C          2.49800        9.43410        4.17460
C          2.25420        8.70610        5.44380
O          1.58390        7.71130        5.63220
C          2.98450        9.45270        6.48320
C          3.11500        9.09350        7.82380
C          3.88490        9.95920        8.56180
C          4.48500       11.09790        8.00600
C          4.35850       11.46680        6.68850
C          3.57230       10.60160        5.91940
C          3.22420       10.65430        4.50280
C          3.51000       11.69870        3.66250
C          4.19250       12.87100        4.05370
N          4.73720       13.85340        4.29140
C          3.15230       11.80870        2.30100
N          2.90820       12.00480        1.19520
C          5.12550       11.49630        9.31200
C          4.45760       12.65220       10.08590
C          4.98460       12.49590       11.49400
C          4.41420       11.42000       12.02110
C          3.49140       10.83130       10.97830
C          3.03290       12.11590       10.27610
C          4.45390       10.22910        9.93260
C          1.56990        7.90500        2.37680
C          1.07630        6.76300        2.95760
C          0.57940        5.82340        2.03240
C          0.02100        4.55740        2.31000
C         -0.28270        4.12960        3.67990
C         -0.91280        5.00290        4.56620
C         -1.24550        4.57970        5.83990
C         -1.00300        3.27680        6.23320
C         -0.39900        2.39320        5.34670
S         -0.13890        0.72010        5.87330
C         -0.55770       -0.22780        4.36490
C         -1.99190       -0.00390        3.93150
C         -0.00880        2.82900        4.09120
C         -0.27230        3.76590        1.21200
C         -0.15880        4.21580       -0.12940
C          0.32230        5.50600       -0.40380
C          0.38460        6.03260       -1.77270
C         -0.73170        5.97230       -2.60390
C         -0.68810        6.50520       -3.87910
C          0.46460        7.11530       -4.34160
C          1.57330        7.18310       -3.51360
S          3.05840        7.99630       -4.09300
C          2.58510        9.73020       -3.75280
C          2.48180       10.01490       -2.26940
C          1.54560        6.63850       -2.24280
C          0.72590        6.26010        0.68700
S          1.42130        7.84890        0.62000
C         -0.51380        3.21490       -1.06340
C         -0.84400        2.01960       -0.48900
S         -0.83980        2.11660        1.26160
C         -1.09860        0.75780       -1.09420
C         -0.72590        0.27940       -2.34800
N          0.04060        0.93930       -3.29300
C          1.13560        1.73010       -2.92780
C          1.83940        1.48000       -1.74920
C          2.85630        2.31920       -1.35290
C          3.21090        3.41690       -2.13130
S          4.48230        4.46970       -1.50660
C          5.18560        5.20340       -3.01190
C          2.54160        3.65130       -3.32570
C          1.51210        2.81870       -3.71500
C         -0.23470        0.68630       -4.64830
C         -1.55660        0.65090       -5.09320
C         -1.83740        0.37880       -6.41260
C         -0.80640        0.14360       -7.32070
S         -1.28970       -0.19190       -8.98290
C          0.26830       -0.59840       -9.82080
C          0.51120        0.19180       -6.88370
C          0.79220        0.45620       -5.55780
C         -1.18220       -1.05030       -2.53160
S         -1.01410       -2.20230       -3.81620
C         -1.86430       -3.39730       -2.86600
C         -2.16200       -2.95910       -1.57380
N         -2.54130       -3.78680       -0.53850
C         -2.11610       -5.12840       -0.51300
C         -2.98580       -6.14420       -0.11520
C         -2.60170       -7.46550       -0.20220
C         -1.33510       -7.80200       -0.67710
S         -0.95760       -9.51840       -0.81100
C          0.51330       -9.56440       -1.87890
C         -0.43690       -6.79040       -0.99490
C         -0.82520       -5.46880       -0.91190
C         -3.27340       -3.26780        0.53270
C         -4.26490       -2.31480        0.31120
C         -4.95040       -1.75540        1.37120
C         -4.65850       -2.14580        2.67170
S         -5.44730       -1.47700        4.09910
C         -6.20150        0.05510        3.48290
C         -3.69710       -3.13200        2.89280
C         -3.00950       -3.68630        1.83840
C         -1.81370       -1.59700       -1.42410
S         -1.90800       -0.46600       -0.12270
C         -2.14970       -4.70290       -3.36200
C         -1.19040       -5.51790       -3.98980
C         -1.35380       -6.95700       -4.10600
N         -0.20680       -7.53790       -4.45890
S          0.90990       -6.41420       -4.71190
N          0.04110       -5.12480       -4.32250
C         -2.54580       -7.61580       -3.73210
C         -3.56140       -6.75690       -3.25220
N         -4.78410       -7.13880       -2.88250
S         -5.59740       -5.86320       -2.35280
N         -4.45630       -4.75220       -2.55440
C         -3.36710       -5.34140       -3.05560
C         -2.73900       -9.01370       -3.60980
C         -2.06960      -10.03000       -4.22680
C         -1.28230       -9.93770       -5.47730
O         -1.21710       -9.00270       -6.24740
C         -0.70270      -11.28150       -5.68110
C          0.17210      -11.66900       -6.69360
C          0.54730      -12.98970       -6.63600
C          0.07240      -13.86740       -5.65260
C         -0.80140      -13.50270       -4.65680
C         -1.18680      -12.15820       -4.68970
C         -2.07980      -11.41590       -3.80120
C         -2.74970      -11.93850       -2.72460
C         -2.68570      -13.29030       -2.32740
N         -2.68130      -14.37390       -1.94630
C         -3.60800      -11.23450       -1.85210
N         -4.32730      -10.76490       -1.08920
C          0.86280      -15.03210       -6.19580
C          2.14370      -15.41330       -5.42410
C          2.93880      -16.22590       -6.42010
C          3.39170      -15.39410       -7.34940
C          2.91030      -14.00520       -6.99690
C          2.93380      -14.09880       -5.46580
C          1.39550      -14.05260       -7.29030
H          2.49040        9.75410        2.11880
H          2.64510        8.20010        8.20430
H          4.83500       12.34080        6.27790
H          6.21190       11.55950        9.30580
H          4.56830       13.63070        9.62680
H          5.73550       13.13010       11.92730
H          4.59350       10.97610       12.98280
H          2.72160       10.15170       11.33400
H          2.43780       12.75190       10.92940
H          2.49500       11.94530        9.34540
H          5.09220        9.44850       10.34230
H          1.09710        6.59990        4.01920
H         -1.16250        6.00320        4.24830
H         -1.71900        5.26710        6.52440
H         -1.28370        2.93100        7.21590
H         -0.39150       -1.26490        4.65420
H          0.14570        0.03470        3.57610
H         -2.67850       -0.30890        4.71760
H         -2.19990       -0.58670        3.03560
H         -2.16240        1.04710        3.70500
H          0.53220        2.16740        3.43360
H         -1.64520        5.52860       -2.23580
H         -1.55960        6.45250       -4.51500
H          0.50790        7.53770       -5.33420
H          1.64290        9.91650       -4.26930
H          3.37540       10.31820       -4.21820
H          1.68470        9.42750       -1.81750
H          2.26820       11.06880       -2.10700
H          3.41580        9.77250       -1.76790
H          2.43040        6.67320       -1.62620
H         -0.50670        3.38200       -2.12300
H          1.58790        0.62160       -1.14500
H          3.39000        2.13190       -0.43390
H          4.53280        5.97640       -3.40720
H          6.13070        5.64390       -2.71050
H          5.35580        4.41940       -3.74300
H          2.79820        4.49500       -3.94620
H          0.97600        3.02800       -4.62920
H         -2.35930        0.83730       -4.39490
H         -2.85880        0.34790       -6.75900
H         -0.00920       -0.87320      -10.83370
H          0.92070        0.26980       -9.84170
H          0.74330       -1.44080       -9.32680
H          1.33010        0.01600       -7.56200
H          1.81780        0.47840       -5.22080
H         -3.97530       -5.88930        0.23560
H         -3.28690       -8.25440        0.06740
H          1.37850       -9.17740       -1.34840
H          0.32150       -9.01160       -2.79540
H          0.66960      -10.61450       -2.10820
H          0.56830       -7.02120       -1.31060
H         -0.12350       -4.69040       -1.17470
H         -4.50710       -2.02820       -0.70090
H         -5.71460       -1.02250        1.16950
H         -5.45490        0.63390        2.94760
H         -6.52990        0.59630        4.36470
H         -7.05700       -0.16990        2.85280
H         -3.48630       -3.44110        3.90470
H         -2.25060       -4.43280        2.01750
H         -3.51650       -9.26990       -2.90090
H          0.50490      -10.96160       -7.43710
H         -1.16390      -14.19340       -3.91430
H          0.28110      -15.89680       -6.50920
H          1.97120      -15.86410       -4.45060
H          3.03920      -17.29460       -6.37850
H          3.94590      -15.62940       -8.23920
H          3.43800      -13.17350       -7.45640
H          3.94400      -14.21300       -5.07570
H          2.44060      -13.26870       -4.96320
H          1.17100      -14.26570       -8.33390
