
  xtb     02162204213D
 energy: -310.078342102367 gnorm: 0.000370571681 xtb: 6.4.1 (unknown)
189209  0     0  0            999 V2000
   -3.6434   -7.5996    0.7131 C   0  0  0  0  0  0  0  0  0  0  0  0
   -2.7014   -8.0667    1.5692 C   0  0  0  0  0  0  0  0  0  0  0  0
   -1.7130   -7.2167    2.2923 C   0  0  0  0  0  0  0  0  0  0  0  0
   -1.5015   -6.0318    2.1569 O   0  0  0  0  0  0  0  0  0  0  0  0
   -1.0733   -8.1053    3.2787 C   0  0  0  0  0  0  0  0  0  0  0  0
   -0.0913   -7.7438    4.1994 C   0  0  0  0  0  0  0  0  0  0  0  0
    0.3230   -8.7735    5.0076 C   0  0  0  0  0  0  0  0  0  0  0  0
   -0.2062  -10.0689    4.9144 C   0  0  0  0  0  0  0  0  0  0  0  0
   -1.1717  -10.4393    4.0097 C   0  0  0  0  0  0  0  0  0  0  0  0
   -1.6050   -9.4057    3.1701 C   0  0  0  0  0  0  0  0  0  0  0  0
   -2.5958   -9.4189    2.0994 C   0  0  0  0  0  0  0  0  0  0  0  0
   -3.2727  -10.5209    1.6488 C   0  0  0  0  0  0  0  0  0  0  0  0
   -3.1370  -11.8190    2.1853 C   0  0  0  0  0  0  0  0  0  0  0  0
   -3.0796  -12.8984    2.5719 N   0  0  0  0  0  0  0  0  0  0  0  0
   -4.1917  -10.5277    0.5781 C   0  0  0  0  0  0  0  0  0  0  0  0
   -4.9437  -10.6165   -0.2856 N   0  0  0  0  0  0  0  0  0  0  0  0
    0.6561  -10.5867    6.0391 C   0  0  0  0  0  0  0  0  0  0  0  0
   -0.0305  -10.7676    7.4097 C   0  0  0  0  0  0  0  0  0  0  0  0
    1.1215  -10.8104    8.3879 C   0  0  0  0  0  0  0  0  0  0  0  0
    1.6255   -9.5859    8.4723 C   0  0  0  0  0  0  0  0  0  0  0  0
    0.8229   -8.6946    7.5523 C   0  0  0  0  0  0  0  0  0  0  0  0
   -0.5566   -9.3527    7.6845 C   0  0  0  0  0  0  0  0  0  0  0  0
    1.2488   -9.1444    6.1384 C   0  0  0  0  0  0  0  0  0  0  0  0
   -3.6424   -6.2570    0.1736 C   0  0  0  0  0  0  0  0  0  0  0  0
   -2.4525   -5.7445   -0.3693 C   0  0  0  0  0  0  0  0  0  0  0  0
   -2.3548   -4.4506   -0.8111 C   0  0  0  0  0  0  0  0  0  0  0  0
   -3.4349   -3.5618   -0.7180 C   0  0  0  0  0  0  0  0  0  0  0  0
   -4.6538   -4.0684   -0.2846 C   0  0  0  0  0  0  0  0  0  0  0  0
   -5.9648   -3.4579   -0.1287 C   0  0  0  0  0  0  0  0  0  0  0  0
   -6.2957   -2.2142   -0.5551 C   0  0  0  0  0  0  0  0  0  0  0  0
   -7.4952   -1.4453   -0.4325 C   0  0  0  0  0  0  0  0  0  0  0  0
   -7.5099   -0.0793   -0.8627 C   0  0  0  0  0  0  0  0  0  0  0  0
   -8.7004    0.5251   -0.6688 C   0  0  0  0  0  0  0  0  0  0  0  0
   -9.8546   -0.5469    0.0407 S   0  0  0  0  0  0  0  0  0  0  0  0
   -8.7165   -1.8140    0.0829 C   0  0  0  0  0  0  0  0  0  0  0  0
   -6.8084   -4.4926    0.5031 C   0  0  0  0  0  0  0  0  0  0  0  0
   -7.9722   -4.4651    0.8525 O   0  0  0  0  0  0  0  0  0  0  0  0
   -6.0256   -5.6251    0.6340 N   0  0  0  0  0  0  0  0  0  0  0  0
   -6.5753   -6.8298    1.2026 C   0  0  0  0  0  0  0  0  0  0  0  0
   -7.1240   -7.7702    0.1326 C   0  0  0  0  0  0  0  0  0  0  0  0
   -4.7521   -5.4102    0.1560 C   0  0  0  0  0  0  0  0  0  0  0  0
   -3.1270   -2.1454   -0.9569 C   0  0  0  0  0  0  0  0  0  0  0  0
   -3.2990   -1.1905    0.0238 C   0  0  0  0  0  0  0  0  0  0  0  0
   -3.9448   -1.4977    1.1619 F   0  0  0  0  0  0  0  0  0  0  0  0
   -2.7788    0.1023   -0.1003 C   0  0  0  0  0  0  0  0  0  0  0  0
   -3.0053    0.9596    0.9129 F   0  0  0  0  0  0  0  0  0  0  0  0
   -2.0257    0.5050   -1.1910 C   0  0  0  0  0  0  0  0  0  0  0  0
   -1.8613   -0.4476   -2.2366 C   0  0  0  0  0  0  0  0  0  0  0  0
   -1.0845   -0.1569   -3.2957 N   0  0  0  0  0  0  0  0  0  0  0  0
   -0.9253   -1.0432   -4.2448 C   0  0  0  0  0  0  0  0  0  0  0  0
    0.0164   -0.6822   -5.3524 C   0  0  0  0  0  0  0  0  0  0  0  0
    1.4341   -1.1513   -5.0163 C   0  0  0  0  0  0  0  0  0  0  0  0
   -1.6044   -2.2972   -4.1892 C   0  0  0  0  0  0  0  0  0  0  0  0
   -2.3130   -2.6176   -3.1400 N   0  0  0  0  0  0  0  0  0  0  0  0
   -2.4339   -1.7411   -2.1268 C   0  0  0  0  0  0  0  0  0  0  0  0
   -1.5419   -3.2915   -5.3099 C   0  0  0  0  0  0  0  0  0  0  0  0
   -2.2855   -4.5799   -4.9847 C   0  0  0  0  0  0  0  0  0  0  0  0
   -1.3040    1.7565   -1.1786 C   0  0  0  0  0  0  0  0  0  0  0  0
   -1.0164    2.6271   -2.2184 C   0  0  0  0  0  0  0  0  0  0  0  0
   -1.5758    2.5885   -3.4787 N   0  0  0  0  0  0  0  0  0  0  0  0
   -0.7970    2.9687   -4.5789 C   0  0  0  0  0  0  0  0  0  0  0  0
    0.5653    2.6772   -4.6120 C   0  0  0  0  0  0  0  0  0  0  0  0
    1.3361    3.0726   -5.6881 C   0  0  0  0  0  0  0  0  0  0  0  0
    0.7750    3.7536   -6.7604 C   0  0  0  0  0  0  0  0  0  0  0  0
    1.6163    4.2027   -7.9155 C   0  0  0  0  0  0  0  0  0  0  0  0
   -0.5874    4.0307   -6.7247 C   0  0  0  0  0  0  0  0  0  0  0  0
   -1.3670    3.6513   -5.6510 C   0  0  0  0  0  0  0  0  0  0  0  0
   -2.8932    2.1480   -3.6572 C   0  0  0  0  0  0  0  0  0  0  0  0
   -3.2448    1.3855   -4.7689 C   0  0  0  0  0  0  0  0  0  0  0  0
   -4.5475    0.9645   -4.9418 C   0  0  0  0  0  0  0  0  0  0  0  0
   -5.5418    1.2997   -4.0296 C   0  0  0  0  0  0  0  0  0  0  0  0
   -6.9514    0.8340   -4.2334 C   0  0  0  0  0  0  0  0  0  0  0  0
   -5.1858    2.0717   -2.9302 C   0  0  0  0  0  0  0  0  0  0  0  0
   -3.8827    2.4858   -2.7374 C   0  0  0  0  0  0  0  0  0  0  0  0
   -0.1144    3.6350   -1.7915 C   0  0  0  0  0  0  0  0  0  0  0  0
    0.5930    5.0112   -2.5554 S   0  0  0  0  0  0  0  0  0  0  0  0
    1.4821    5.4098   -1.0751 C   0  0  0  0  0  0  0  0  0  0  0  0
    1.1352    4.5552   -0.0079 C   0  0  0  0  0  0  0  0  0  0  0  0
    1.4696    4.6992    1.3054 N   0  0  0  0  0  0  0  0  0  0  0  0
    1.8356    5.9236    1.8805 C   0  0  0  0  0  0  0  0  0  0  0  0
    2.8614    5.9617    2.8232 C   0  0  0  0  0  0  0  0  0  0  0  0
    3.2558    7.1655    3.3747 C   0  0  0  0  0  0  0  0  0  0  0  0
    2.6374    8.3559    3.0145 C   0  0  0  0  0  0  0  0  0  0  0  0
    3.1017    9.6646    3.5714 C   0  0  0  0  0  0  0  0  0  0  0  0
    1.5835    8.3031    2.1059 C   0  0  0  0  0  0  0  0  0  0  0  0
    1.1846    7.1089    1.5430 C   0  0  0  0  0  0  0  0  0  0  0  0
    1.4258    3.5699    2.1557 C   0  0  0  0  0  0  0  0  0  0  0  0
    0.7525    3.6452    3.3698 C   0  0  0  0  0  0  0  0  0  0  0  0
    0.6967    2.5386    4.1940 C   0  0  0  0  0  0  0  0  0  0  0  0
    1.3078    1.3435    3.8318 C   0  0  0  0  0  0  0  0  0  0  0  0
    1.2057    0.1352    4.7097 C   0  0  0  0  0  0  0  0  0  0  0  0
    1.9979    1.2896    2.6262 C   0  0  0  0  0  0  0  0  0  0  0  0
    2.0621    2.3879    1.7918 C   0  0  0  0  0  0  0  0  0  0  0  0
    0.2602    3.5376   -0.4592 C   0  0  0  0  0  0  0  0  0  0  0  0
   -0.5330    2.2221    0.3271 S   0  0  0  0  0  0  0  0  0  0  0  0
    2.3691    6.4882   -1.1337 C   0  0  0  0  0  0  0  0  0  0  0  0
    3.4577    6.6672   -0.3061 C   0  0  0  0  0  0  0  0  0  0  0  0
    4.1728    5.5594    0.3462 C   0  0  0  0  0  0  0  0  0  0  0  0
    3.9107    4.3716    0.2869 O   0  0  0  0  0  0  0  0  0  0  0  0
    5.3588    6.1663    0.9848 C   0  0  0  0  0  0  0  0  0  0  0  0
    6.3381    5.5116    1.7237 C   0  0  0  0  0  0  0  0  0  0  0  0
    7.3066    6.3453    2.2310 C   0  0  0  0  0  0  0  0  0  0  0  0
    7.3106    7.7260    2.0024 C   0  0  0  0  0  0  0  0  0  0  0  0
    6.3573    8.3818    1.2585 C   0  0  0  0  0  0  0  0  0  0  0  0
    5.3551    7.5542    0.7496 C   0  0  0  0  0  0  0  0  0  0  0  0
    4.1675    7.8851   -0.0373 C   0  0  0  0  0  0  0  0  0  0  0  0
    3.7152    9.1521   -0.3186 C   0  0  0  0  0  0  0  0  0  0  0  0
    2.4922    9.4244   -0.9618 C   0  0  0  0  0  0  0  0  0  0  0  0
    1.4967    9.7208   -1.4532 N   0  0  0  0  0  0  0  0  0  0  0  0
    4.3688   10.3346    0.0704 C   0  0  0  0  0  0  0  0  0  0  0  0
    4.8466   11.3345    0.3758 N   0  0  0  0  0  0  0  0  0  0  0  0
    8.5603    7.9387    2.8206 C   0  0  0  0  0  0  0  0  0  0  0  0
    8.3957    8.5215    4.2460 C   0  0  0  0  0  0  0  0  0  0  0  0
    7.0149    8.1338    4.7127 C   0  0  0  0  0  0  0  0  0  0  0  0
    7.0137    6.8255    4.9310 C   0  0  0  0  0  0  0  0  0  0  0  0
    8.3933    6.3052    4.6132 C   0  0  0  0  0  0  0  0  0  0  0  0
    9.2428    7.5132    5.0388 C   0  0  0  0  0  0  0  0  0  0  0  0
    8.5557    6.3984    3.0756 C   0  0  0  0  0  0  0  0  0  0  0  0
   -4.4332   -8.2644    0.3940 H   0  0  0  0  0  0  0  0  0  0  0  0
    0.2849   -6.7335    4.2357 H   0  0  0  0  0  0  0  0  0  0  0  0
   -1.5659  -11.4399    3.9499 H   0  0  0  0  0  0  0  0  0  0  0  0
    1.3227  -11.4086    5.7856 H   0  0  0  0  0  0  0  0  0  0  0  0
   -0.7434  -11.5860    7.4571 H   0  0  0  0  0  0  0  0  0  0  0  0
    1.4743  -11.7083    8.8601 H   0  0  0  0  0  0  0  0  0  0  0  0
    2.4834   -9.2564    9.0285 H   0  0  0  0  0  0  0  0  0  0  0  0
    0.8869   -7.6242    7.7283 H   0  0  0  0  0  0  0  0  0  0  0  0
   -1.2875   -9.0012    6.9587 H   0  0  0  0  0  0  0  0  0  0  0  0
   -0.9648   -9.2537    8.6889 H   0  0  0  0  0  0  0  0  0  0  0  0
    2.3112   -9.0034    5.9486 H   0  0  0  0  0  0  0  0  0  0  0  0
   -1.5960   -6.3970   -0.4357 H   0  0  0  0  0  0  0  0  0  0  0  0
   -1.4127   -4.0859   -1.1872 H   0  0  0  0  0  0  0  0  0  0  0  0
   -5.5115   -1.6775   -1.0773 H   0  0  0  0  0  0  0  0  0  0  0  0
   -6.6460    0.4044   -1.2811 H   0  0  0  0  0  0  0  0  0  0  0  0
   -8.9870    1.5341   -0.8894 H   0  0  0  0  0  0  0  0  0  0  0  0
   -8.9917   -2.7695    0.4812 H   0  0  0  0  0  0  0  0  0  0  0  0
   -5.8062   -7.3172    1.8092 H   0  0  0  0  0  0  0  0  0  0  0  0
   -7.3947   -6.5143    1.8560 H   0  0  0  0  0  0  0  0  0  0  0  0
   -7.9467   -7.2876   -0.3892 H   0  0  0  0  0  0  0  0  0  0  0  0
   -6.3631   -8.0345   -0.5985 H   0  0  0  0  0  0  0  0  0  0  0  0
   -7.4910   -8.6830    0.5934 H   0  0  0  0  0  0  0  0  0  0  0  0
    0.0261    0.4035   -5.4586 H   0  0  0  0  0  0  0  0  0  0  0  0
   -0.3098   -1.1301   -6.2915 H   0  0  0  0  0  0  0  0  0  0  0  0
    1.4714   -2.2313   -4.8905 H   0  0  0  0  0  0  0  0  0  0  0  0
    2.1171   -0.8710   -5.8140 H   0  0  0  0  0  0  0  0  0  0  0  0
    1.7685   -0.6863   -4.0925 H   0  0  0  0  0  0  0  0  0  0  0  0
   -1.9728   -2.8301   -6.2040 H   0  0  0  0  0  0  0  0  0  0  0  0
   -0.4947   -3.5122   -5.5324 H   0  0  0  0  0  0  0  0  0  0  0  0
   -3.3298   -4.3691   -4.7746 H   0  0  0  0  0  0  0  0  0  0  0  0
   -1.8575   -5.0507   -4.1043 H   0  0  0  0  0  0  0  0  0  0  0  0
   -2.2233   -5.2702   -5.8223 H   0  0  0  0  0  0  0  0  0  0  0  0
    1.0111    2.1319   -3.7938 H   0  0  0  0  0  0  0  0  0  0  0  0
    2.3915    2.8409   -5.6959 H   0  0  0  0  0  0  0  0  0  0  0  0
    2.5129    3.5938   -8.0045 H   0  0  0  0  0  0  0  0  0  0  0  0
    1.9245    5.2384   -7.7691 H   0  0  0  0  0  0  0  0  0  0  0  0
    1.0576    4.1491   -8.8473 H   0  0  0  0  0  0  0  0  0  0  0  0
   -1.0429    4.5627   -7.5473 H   0  0  0  0  0  0  0  0  0  0  0  0
   -2.4208    3.8868   -5.6335 H   0  0  0  0  0  0  0  0  0  0  0  0
   -2.4901    1.1259   -5.4957 H   0  0  0  0  0  0  0  0  0  0  0  0
   -4.8008    0.3673   -5.8061 H   0  0  0  0  0  0  0  0  0  0  0  0
   -7.2161    0.8629   -5.2882 H   0  0  0  0  0  0  0  0  0  0  0  0
   -7.6511    1.4530   -3.6775 H   0  0  0  0  0  0  0  0  0  0  0  0
   -7.0639   -0.1951   -3.8894 H   0  0  0  0  0  0  0  0  0  0  0  0
   -5.9427    2.3774   -2.2214 H   0  0  0  0  0  0  0  0  0  0  0  0
   -3.6324    3.0929   -1.8800 H   0  0  0  0  0  0  0  0  0  0  0  0
    3.3535    5.0437    3.1076 H   0  0  0  0  0  0  0  0  0  0  0  0
    4.0701    7.1813    4.0840 H   0  0  0  0  0  0  0  0  0  0  0  0
    3.8476   10.1079    2.9098 H   0  0  0  0  0  0  0  0  0  0  0  0
    3.5549    9.5306    4.5508 H   0  0  0  0  0  0  0  0  0  0  0  0
    2.2752   10.3662    3.6552 H   0  0  0  0  0  0  0  0  0  0  0  0
    1.0717    9.2133    1.8292 H   0  0  0  0  0  0  0  0  0  0  0  0
    0.3671    7.0928    0.8379 H   0  0  0  0  0  0  0  0  0  0  0  0
    0.2697    4.5681    3.6564 H   0  0  0  0  0  0  0  0  0  0  0  0
    0.1620    2.6014    5.1305 H   0  0  0  0  0  0  0  0  0  0  0  0
    2.0795   -0.5026    4.5980 H   0  0  0  0  0  0  0  0  0  0  0  0
    0.3265   -0.4468    4.4317 H   0  0  0  0  0  0  0  0  0  0  0  0
    1.1038    0.4194    5.7544 H   0  0  0  0  0  0  0  0  0  0  0  0
    2.4944    0.3745    2.3378 H   0  0  0  0  0  0  0  0  0  0  0  0
    2.6196    2.3560    0.8688 H   0  0  0  0  0  0  0  0  0  0  0  0
    2.1906    7.2056   -1.9256 H   0  0  0  0  0  0  0  0  0  0  0  0
    6.2998    4.4438    1.8742 H   0  0  0  0  0  0  0  0  0  0  0  0
    6.3815    9.4438    1.0779 H   0  0  0  0  0  0  0  0  0  0  0  0
    9.4118    8.3657    2.2945 H   0  0  0  0  0  0  0  0  0  0  0  0
    8.6536    9.5733    4.3363 H   0  0  0  0  0  0  0  0  0  0  0  0
    6.1934    8.8232    4.7778 H   0  0  0  0  0  0  0  0  0  0  0  0
    6.1916    6.1960    5.2196 H   0  0  0  0  0  0  0  0  0  0  0  0
    8.6506    5.3379    5.0373 H   0  0  0  0  0  0  0  0  0  0  0  0
    9.2151    7.6909    6.1130 H   0  0  0  0  0  0  0  0  0  0  0  0
   10.2770    7.4562    4.7021 H   0  0  0  0  0  0  0  0  0  0  0  0
    9.4035    5.8201    2.7129 H   0  0  0  0  0  0  0  0  0  0  0  0
  1  2  2  0  0  0  0
  2  3  1  0  0  0  0
  3  4  2  0  0  0  0
  3  5  1  0  0  0  0
  5  6  2  0  0  0  0
  6  7  1  0  0  0  0
  7  8  2  0  0  0  0
  8  9  1  0  0  0  0
  9 10  2  0  0  0  0
 10 11  1  0  0  0  0
 11 12  2  0  0  0  0
 12 13  1  0  0  0  0
 13 14  3  0  0  0  0
 12 15  1  0  0  0  0
 15 16  3  0  0  0  0
  8 17  1  0  0  0  0
 17 18  1  0  0  0  0
 18 19  1  0  0  0  0
 19 20  2  0  0  0  0
 20 21  1  0  0  0  0
 21 22  1  0  0  0  0
 21 23  1  0  0  0  0
  1 24  1  0  0  0  0
 24 25  2  0  0  0  0
 25 26  1  0  0  0  0
 26 27  2  0  0  0  0
 27 28  1  0  0  0  0
 28 29  1  0  0  0  0
 29 30  2  0  0  0  0
 30 31  1  0  0  0  0
 31 32  1  0  0  0  0
 32 33  2  0  0  0  0
 33 34  1  0  0  0  0
 34 35  1  0  0  0  0
 29 36  1  0  0  0  0
 36 37  2  0  0  0  0
 36 38  1  0  0  0  0
 38 39  1  0  0  0  0
 39 40  1  0  0  0  0
 38 41  1  0  0  0  0
 27 42  1  0  0  0  0
 42 43  2  0  0  0  0
 43 44  1  0  0  0  0
 43 45  1  0  0  0  0
 45 46  1  0  0  0  0
 45 47  2  0  0  0  0
 47 48  1  0  0  0  0
 48 49  2  0  0  0  0
 49 50  1  0  0  0  0
 50 51  1  0  0  0  0
 51 52  1  0  0  0  0
 50 53  2  0  0  0  0
 53 54  1  0  0  0  0
 54 55  2  0  0  0  0
 53 56  1  0  0  0  0
 56 57  1  0  0  0  0
 47 58  1  0  0  0  0
 58 59  2  0  0  0  0
 59 60  1  0  0  0  0
 60 61  1  0  0  0  0
 61 62  2  0  0  0  0
 62 63  1  0  0  0  0
 63 64  2  0  0  0  0
 64 65  1  0  0  0  0
 64 66  1  0  0  0  0
 66 67  2  0  0  0  0
 60 68  1  0  0  0  0
 68 69  2  0  0  0  0
 69 70  1  0  0  0  0
 70 71  2  0  0  0  0
 71 72  1  0  0  0  0
 71 73  1  0  0  0  0
 73 74  2  0  0  0  0
 59 75  1  0  0  0  0
 75 76  1  0  0  0  0
 76 77  1  0  0  0  0
 77 78  2  0  0  0  0
 78 79  1  0  0  0  0
 79 80  1  0  0  0  0
 80 81  2  0  0  0  0
 81 82  1  0  0  0  0
 82 83  2  0  0  0  0
 83 84  1  0  0  0  0
 83 85  1  0  0  0  0
 85 86  2  0  0  0  0
 79 87  1  0  0  0  0
 87 88  2  0  0  0  0
 88 89  1  0  0  0  0
 89 90  2  0  0  0  0
 90 91  1  0  0  0  0
 90 92  1  0  0  0  0
 92 93  2  0  0  0  0
 78 94  1  0  0  0  0
 94 95  1  0  0  0  0
 77 96  1  0  0  0  0
 96 97  2  0  0  0  0
 97 98  1  0  0  0  0
 98 99  2  0  0  0  0
 98100  1  0  0  0  0
100101  2  0  0  0  0
101102  1  0  0  0  0
102103  2  0  0  0  0
103104  1  0  0  0  0
104105  2  0  0  0  0
105106  1  0  0  0  0
106107  2  0  0  0  0
107108  1  0  0  0  0
108109  3  0  0  0  0
107110  1  0  0  0  0
110111  3  0  0  0  0
103112  1  0  0  0  0
112113  1  0  0  0  0
113114  1  0  0  0  0
114115  2  0  0  0  0
115116  1  0  0  0  0
116117  1  0  0  0  0
116118  1  0  0  0  0
 11  2  1  0  0  0  0
 23 17  1  0  0  0  0
 41 24  1  0  0  0  0
 55 42  1  0  0  0  0
 95 58  1  0  0  0  0
106 97  1  0  0  0  0
118112  1  0  0  0  0
 10  5  1  0  0  0  0
 22 18  1  0  0  0  0
 41 28  2  0  0  0  0
 55 48  1  0  0  0  0
 67 61  1  0  0  0  0
 74 68  1  0  0  0  0
 94 75  2  0  0  0  0
105100  1  0  0  0  0
117113  1  0  0  0  0
 23  7  1  0  0  0  0
 35 31  2  0  0  0  0
 86 80  1  0  0  0  0
 93 87  1  0  0  0  0
118102  1  0  0  0  0
  1119  1  0  0  0  0
  6120  1  0  0  0  0
  9121  1  0  0  0  0
 17122  1  0  0  0  0
 18123  1  0  0  0  0
 19124  1  0  0  0  0
 20125  1  0  0  0  0
 21126  1  0  0  0  0
 22127  1  0  0  0  0
 22128  1  0  0  0  0
 23129  1  0  0  0  0
 25130  1  0  0  0  0
 26131  1  0  0  0  0
 30132  1  0  0  0  0
 32133  1  0  0  0  0
 33134  1  0  0  0  0
 35135  1  0  0  0  0
 39136  1  0  0  0  0
 39137  1  0  0  0  0
 40138  1  0  0  0  0
 40139  1  0  0  0  0
 40140  1  0  0  0  0
 51141  1  0  0  0  0
 51142  1  0  0  0  0
 52143  1  0  0  0  0
 52144  1  0  0  0  0
 52145  1  0  0  0  0
 56146  1  0  0  0  0
 56147  1  0  0  0  0
 57148  1  0  0  0  0
 57149  1  0  0  0  0
 57150  1  0  0  0  0
 62151  1  0  0  0  0
 63152  1  0  0  0  0
 65153  1  0  0  0  0
 65154  1  0  0  0  0
 65155  1  0  0  0  0
 66156  1  0  0  0  0
 67157  1  0  0  0  0
 69158  1  0  0  0  0
 70159  1  0  0  0  0
 72160  1  0  0  0  0
 72161  1  0  0  0  0
 72162  1  0  0  0  0
 73163  1  0  0  0  0
 74164  1  0  0  0  0
 81165  1  0  0  0  0
 82166  1  0  0  0  0
 84167  1  0  0  0  0
 84168  1  0  0  0  0
 84169  1  0  0  0  0
 85170  1  0  0  0  0
 86171  1  0  0  0  0
 88172  1  0  0  0  0
 89173  1  0  0  0  0
 91174  1  0  0  0  0
 91175  1  0  0  0  0
 91176  1  0  0  0  0
 92177  1  0  0  0  0
 93178  1  0  0  0  0
 96179  1  0  0  0  0
101180  1  0  0  0  0
104181  1  0  0  0  0
112182  1  0  0  0  0
113183  1  0  0  0  0
114184  1  0  0  0  0
115185  1  0  0  0  0
116186  1  0  0  0  0
117187  1  0  0  0  0
117188  1  0  0  0  0
118189  1  0  0  0  0
M  END
