
  xtb     02042207293D
 energy: -328.428276392335 gnorm: 0.000743986806 xtb: 6.4.1 (unknown)
187207  0     0  0            999 V2000
    5.3732   -5.1073    4.9479 C   0  0  0  0  0  0  0  0  0  0  0  0
    5.5133   -3.9823    5.6811 C   0  0  0  0  0  0  0  0  0  0  0  0
    4.7269   -2.7382    5.4147 C   0  0  0  0  0  0  0  0  0  0  0  0
    3.8135   -2.5967    4.6330 O   0  0  0  0  0  0  0  0  0  0  0  0
    5.3500   -1.6910    6.2342 C   0  0  0  0  0  0  0  0  0  0  0  0
    4.9861   -0.3460    6.2665 C   0  0  0  0  0  0  0  0  0  0  0  0
    5.7584    0.4189    7.1050 C   0  0  0  0  0  0  0  0  0  0  0  0
    6.8263   -0.1107    7.8453 C   0  0  0  0  0  0  0  0  0  0  0  0
    7.1961   -1.4341    7.8207 C   0  0  0  0  0  0  0  0  0  0  0  0
    6.4151   -2.2368    6.9812 C   0  0  0  0  0  0  0  0  0  0  0  0
    6.5108   -3.6636    6.6961 C   0  0  0  0  0  0  0  0  0  0  0  0
    7.3402   -4.5594    7.3103 C   0  0  0  0  0  0  0  0  0  0  0  0
    7.3544   -5.9458    7.0420 C   0  0  0  0  0  0  0  0  0  0  0  0
    7.4109   -7.0806    6.8806 N   0  0  0  0  0  0  0  0  0  0  0  0
    8.2750   -4.2266    8.3145 C   0  0  0  0  0  0  0  0  0  0  0  0
    9.0536   -4.0220    9.1322 N   0  0  0  0  0  0  0  0  0  0  0  0
    7.1862    1.2308    8.4323 C   0  0  0  0  0  0  0  0  0  0  0  0
    8.4039    1.9748    7.8286 C   0  0  0  0  0  0  0  0  0  0  0  0
    8.5335    1.5041    6.4008 C   0  0  0  0  0  0  0  0  0  0  0  0
    7.5156    2.0052    5.7139 C   0  0  0  0  0  0  0  0  0  0  0  0
    6.6787    2.8244    6.6656 C   0  0  0  0  0  0  0  0  0  0  0  0
    7.7751    3.3589    7.6006 C   0  0  0  0  0  0  0  0  0  0  0  0
    5.9893    1.8173    7.6188 C   0  0  0  0  0  0  0  0  0  0  0  0
    4.2888   -5.2205    3.9946 C   0  0  0  0  0  0  0  0  0  0  0  0
    4.3777   -5.1463    2.6419 C   0  0  0  0  0  0  0  0  0  0  0  0
    3.1215   -4.9349    2.0107 C   0  0  0  0  0  0  0  0  0  0  0  0
    2.8779   -4.6407    0.6609 C   0  0  0  0  0  0  0  0  0  0  0  0
    3.9470   -4.6015   -0.3476 C   0  0  0  0  0  0  0  0  0  0  0  0
    3.8148   -5.3271   -1.5297 C   0  0  0  0  0  0  0  0  0  0  0  0
    4.8191   -5.2890   -2.4777 C   0  0  0  0  0  0  0  0  0  0  0  0
    5.9585   -4.5305   -2.2732 C   0  0  0  0  0  0  0  0  0  0  0  0
    6.0818   -3.7802   -1.1117 C   0  0  0  0  0  0  0  0  0  0  0  0
    7.4915   -2.7832   -0.7220 S   0  0  0  0  0  0  0  0  0  0  0  0
    8.2503   -2.4141   -2.3422 C   0  0  0  0  0  0  0  0  0  0  0  0
    7.3525   -1.5572   -3.2131 C   0  0  0  0  0  0  0  0  0  0  0  0
    5.0759   -3.8184   -0.1531 C   0  0  0  0  0  0  0  0  0  0  0  0
    1.5772   -4.2981    0.3305 C   0  0  0  0  0  0  0  0  0  0  0  0
    0.5176   -4.2943    1.2674 C   0  0  0  0  0  0  0  0  0  0  0  0
    0.7394   -4.6846    2.5968 C   0  0  0  0  0  0  0  0  0  0  0  0
   -0.3770   -4.7459    3.5482 C   0  0  0  0  0  0  0  0  0  0  0  0
   -0.3105   -4.1328    4.7971 C   0  0  0  0  0  0  0  0  0  0  0  0
   -1.3797   -4.2308    5.6669 C   0  0  0  0  0  0  0  0  0  0  0  0
   -2.5253   -4.9248    5.3164 C   0  0  0  0  0  0  0  0  0  0  0  0
   -2.5998   -5.5327    4.0709 C   0  0  0  0  0  0  0  0  0  0  0  0
   -4.0136   -6.4073    3.4728 S   0  0  0  0  0  0  0  0  0  0  0  0
   -4.9673   -6.8277    4.9725 C   0  0  0  0  0  0  0  0  0  0  0  0
   -4.2388   -7.8205    5.8567 C   0  0  0  0  0  0  0  0  0  0  0  0
   -1.5265   -5.4407    3.1943 C   0  0  0  0  0  0  0  0  0  0  0  0
    2.0550   -4.9443    2.9458 C   0  0  0  0  0  0  0  0  0  0  0  0
    2.6349   -5.2210    4.5625 S   0  0  0  0  0  0  0  0  0  0  0  0
   -0.6452   -3.6679    0.7540 C   0  0  0  0  0  0  0  0  0  0  0  0
   -0.4863   -3.1869   -0.5102 C   0  0  0  0  0  0  0  0  0  0  0  0
    1.0759   -3.6188   -1.1977 S   0  0  0  0  0  0  0  0  0  0  0  0
   -1.2955   -2.2020   -1.1593 C   0  0  0  0  0  0  0  0  0  0  0  0
   -1.9109   -1.1432   -0.5100 C   0  0  0  0  0  0  0  0  0  0  0  0
   -1.9343   -0.9586    0.8864 N   0  0  0  0  0  0  0  0  0  0  0  0
   -0.8899   -0.2336    1.4798 C   0  0  0  0  0  0  0  0  0  0  0  0
    0.4189   -0.3319    1.0059 C   0  0  0  0  0  0  0  0  0  0  0  0
    1.4503    0.3036    1.6625 C   0  0  0  0  0  0  0  0  0  0  0  0
    1.2026    1.0684    2.7981 C   0  0  0  0  0  0  0  0  0  0  0  0
    2.6068    1.7757    3.6061 S   0  0  0  0  0  0  0  0  0  0  0  0
    1.9479    2.3161    5.2123 C   0  0  0  0  0  0  0  0  0  0  0  0
   -0.1076    1.2464    3.2211 C   0  0  0  0  0  0  0  0  0  0  0  0
   -1.1399    0.6073    2.5633 C   0  0  0  0  0  0  0  0  0  0  0  0
   -2.9442   -1.5596    1.6328 C   0  0  0  0  0  0  0  0  0  0  0  0
   -2.7946   -1.8056    3.0017 C   0  0  0  0  0  0  0  0  0  0  0  0
   -3.8096   -2.3901    3.7228 C   0  0  0  0  0  0  0  0  0  0  0  0
   -4.9861   -2.7920    3.0990 C   0  0  0  0  0  0  0  0  0  0  0  0
   -6.2309   -3.5187    4.1235 S   0  0  0  0  0  0  0  0  0  0  0  0
   -7.2362   -4.4618    2.9425 C   0  0  0  0  0  0  0  0  0  0  0  0
   -5.1296   -2.5901    1.7349 C   0  0  0  0  0  0  0  0  0  0  0  0
   -4.1230   -1.9775    1.0141 C   0  0  0  0  0  0  0  0  0  0  0  0
   -2.4513   -0.2244   -1.4295 C   0  0  0  0  0  0  0  0  0  0  0  0
   -3.2347    1.3080   -1.2645 S   0  0  0  0  0  0  0  0  0  0  0  0
   -3.3589    1.4530   -3.0204 C   0  0  0  0  0  0  0  0  0  0  0  0
   -2.7086    0.3923   -3.6885 C   0  0  0  0  0  0  0  0  0  0  0  0
   -2.4275    0.2756   -5.0254 N   0  0  0  0  0  0  0  0  0  0  0  0
   -2.3536   -1.0350   -5.5418 C   0  0  0  0  0  0  0  0  0  0  0  0
   -3.3948   -1.9261   -5.3040 C   0  0  0  0  0  0  0  0  0  0  0  0
   -3.3326   -3.2223   -5.7758 C   0  0  0  0  0  0  0  0  0  0  0  0
   -2.2213   -3.6454   -6.4949 C   0  0  0  0  0  0  0  0  0  0  0  0
   -2.0181   -5.2695   -7.1407 S   0  0  0  0  0  0  0  0  0  0  0  0
   -3.4829   -6.1664   -6.5534 C   0  0  0  0  0  0  0  0  0  0  0  0
   -1.1815   -2.7481   -6.7439 C   0  0  0  0  0  0  0  0  0  0  0  0
   -1.2439   -1.4568   -6.2738 C   0  0  0  0  0  0  0  0  0  0  0  0
   -2.1318    1.3467   -5.8627 C   0  0  0  0  0  0  0  0  0  0  0  0
   -1.6349    2.5519   -5.3630 C   0  0  0  0  0  0  0  0  0  0  0  0
   -1.3428    3.6011   -6.2074 C   0  0  0  0  0  0  0  0  0  0  0  0
   -1.5137    3.4650   -7.5815 C   0  0  0  0  0  0  0  0  0  0  0  0
   -1.1126    4.7124   -8.7431 S   0  0  0  0  0  0  0  0  0  0  0  0
   -1.1327    6.2325   -7.7573 C   0  0  0  0  0  0  0  0  0  0  0  0
   -1.9845    2.2527   -8.0896 C   0  0  0  0  0  0  0  0  0  0  0  0
   -2.2927    1.2129   -7.2472 C   0  0  0  0  0  0  0  0  0  0  0  0
   -2.2492   -0.5689   -2.7578 C   0  0  0  0  0  0  0  0  0  0  0  0
   -1.3780   -2.0645   -2.8964 S   0  0  0  0  0  0  0  0  0  0  0  0
   -4.1016    2.5424   -3.5185 C   0  0  0  0  0  0  0  0  0  0  0  0
   -4.6453    2.6660   -4.8221 C   0  0  0  0  0  0  0  0  0  0  0  0
   -5.3011    3.8724   -5.2845 C   0  0  0  0  0  0  0  0  0  0  0  0
   -5.8148    3.7152   -6.4987 N   0  0  0  0  0  0  0  0  0  0  0  0
   -5.5014    2.2310   -7.0246 S   0  0  0  0  0  4  0  0  0  0  0  0
   -4.7060    1.6944   -5.7328 N   0  0  0  0  0  0  0  0  0  0  0  0
   -5.4560    5.0264   -4.4732 C   0  0  0  0  0  0  0  0  0  0  0  0
   -5.0731    4.8318   -3.1221 C   0  0  0  0  0  0  0  0  0  0  0  0
   -5.2113    5.7196   -2.1411 N   0  0  0  0  0  0  0  0  0  0  0  0
   -4.6177    5.1075   -0.7777 S   0  0  0  0  0  0  0  0  0  0  0  0
   -4.1276    3.6898   -1.3687 N   0  0  0  0  0  0  0  0  0  0  0  0
   -4.4236    3.6298   -2.6644 C   0  0  0  0  0  0  0  0  0  0  0  0
   -6.0400    6.2354   -4.8790 C   0  0  0  0  0  0  0  0  0  0  0  0
   -6.1040    6.7170   -6.1693 C   0  0  0  0  0  0  0  0  0  0  0  0
   -5.1808    6.3349   -7.2452 C   0  0  0  0  0  0  0  0  0  0  0  0
   -4.1881    5.6352   -7.1666 O   0  0  0  0  0  0  0  0  0  0  0  0
   -5.5923    7.1372   -8.4238 C   0  0  0  0  0  0  0  0  0  0  0  0
   -6.6169    8.0243   -8.0465 C   0  0  0  0  0  0  0  0  0  0  0  0
   -7.1412    8.9136   -8.9692 C   0  0  0  0  0  0  0  0  0  0  0  0
   -6.6407    8.9014  -10.2638 C   0  0  0  0  0  0  0  0  0  0  0  0
   -5.6430    8.0157  -10.6353 C   0  0  0  0  0  0  0  0  0  0  0  0
   -5.0134    8.0337  -12.4194 Br  0  0  0  0  0  0  0  0  0  0  0  0
   -5.0969    7.1135   -9.7158 C   0  0  0  0  0  0  0  0  0  0  0  0
   -3.8789    6.0036  -10.1854 Cl  0  0  0  0  0  0  0  0  0  0  0  0
   -6.9504    7.7790   -6.6422 C   0  0  0  0  0  0  0  0  0  0  0  0
   -7.9559    8.4057   -5.9458 C   0  0  0  0  0  0  0  0  0  0  0  0
   -8.3459    8.0927   -4.6275 C   0  0  0  0  0  0  0  0  0  0  0  0
   -8.7469    7.8914   -3.5700 N   0  0  0  0  0  0  0  0  0  0  0  0
   -8.7531    9.4430   -6.4672 C   0  0  0  0  0  0  0  0  0  0  0  0
   -9.4281   10.2977   -6.8328 N   0  0  0  0  0  0  0  0  0  0  0  0
    6.0865   -5.9190    5.0123 H   0  0  0  0  0  0  0  0  0  0  0  0
    4.1721    0.0201    5.6605 H   0  0  0  0  0  0  0  0  0  0  0  0
    8.0239   -1.8231    8.3900 H   0  0  0  0  0  0  0  0  0  0  0  0
    7.1528    1.3035    9.5174 H   0  0  0  0  0  0  0  0  0  0  0  0
    9.3053    1.9273    8.4335 H   0  0  0  0  0  0  0  0  0  0  0  0
    9.2974    0.8300    6.0602 H   0  0  0  0  0  0  0  0  0  0  0  0
    7.2557    1.8336    4.6859 H   0  0  0  0  0  0  0  0  0  0  0  0
    6.0091    3.5500    6.2113 H   0  0  0  0  0  0  0  0  0  0  0  0
    7.3866    3.8145    8.5105 H   0  0  0  0  0  0  0  0  0  0  0  0
    8.4518    4.0512    7.1025 H   0  0  0  0  0  0  0  0  0  0  0  0
    5.1676    2.2638    8.1758 H   0  0  0  0  0  0  0  0  0  0  0  0
    5.3150   -5.1482    2.1153 H   0  0  0  0  0  0  0  0  0  0  0  0
    2.9352   -5.9317   -1.6922 H   0  0  0  0  0  0  0  0  0  0  0  0
    4.7215   -5.8625   -3.3876 H   0  0  0  0  0  0  0  0  0  0  0  0
    6.7374   -4.5356   -3.0190 H   0  0  0  0  0  0  0  0  0  0  0  0
    8.5213   -3.3534   -2.8231 H   0  0  0  0  0  0  0  0  0  0  0  0
    9.1653   -1.8822   -2.0813 H   0  0  0  0  0  0  0  0  0  0  0  0
    7.8530   -1.3334   -4.1533 H   0  0  0  0  0  0  0  0  0  0  0  0
    7.1222   -0.6217   -2.7086 H   0  0  0  0  0  0  0  0  0  0  0  0
    6.4170   -2.0694   -3.4299 H   0  0  0  0  0  0  0  0  0  0  0  0
    5.1716   -3.2125    0.7354 H   0  0  0  0  0  0  0  0  0  0  0  0
    0.5647   -3.5643    5.0710 H   0  0  0  0  0  0  0  0  0  0  0  0
   -1.3290   -3.7523    6.6341 H   0  0  0  0  0  0  0  0  0  0  0  0
   -3.3504   -4.9700    6.0094 H   0  0  0  0  0  0  0  0  0  0  0  0
   -5.2150   -5.9026    5.4916 H   0  0  0  0  0  0  0  0  0  0  0  0
   -5.8872   -7.2606    4.5790 H   0  0  0  0  0  0  0  0  0  0  0  0
   -4.8507   -8.0594    6.7245 H   0  0  0  0  0  0  0  0  0  0  0  0
   -4.0386   -8.7380    5.3077 H   0  0  0  0  0  0  0  0  0  0  0  0
   -3.2901   -7.4142    6.2016 H   0  0  0  0  0  0  0  0  0  0  0  0
   -1.5884   -5.9344    2.2357 H   0  0  0  0  0  0  0  0  0  0  0  0
   -1.5426   -3.5414    1.3300 H   0  0  0  0  0  0  0  0  0  0  0  0
    0.6408   -0.9250    0.1336 H   0  0  0  0  0  0  0  0  0  0  0  0
    2.4647    0.1943    1.3109 H   0  0  0  0  0  0  0  0  0  0  0  0
    1.2956    3.1749    5.0846 H   0  0  0  0  0  0  0  0  0  0  0  0
    2.8125    2.5989    5.8054 H   0  0  0  0  0  0  0  0  0  0  0  0
    1.4239    1.4919    5.6872 H   0  0  0  0  0  0  0  0  0  0  0  0
   -0.3416    1.8823    4.0602 H   0  0  0  0  0  0  0  0  0  0  0  0
   -2.1556    0.7586    2.8961 H   0  0  0  0  0  0  0  0  0  0  0  0
   -1.8707   -1.5558    3.4993 H   0  0  0  0  0  0  0  0  0  0  0  0
   -3.6912   -2.5532    4.7822 H   0  0  0  0  0  0  0  0  0  0  0  0
   -7.8321   -3.7897    2.3319 H   0  0  0  0  0  0  0  0  0  0  0  0
   -6.5816   -5.0789    2.3337 H   0  0  0  0  0  0  0  0  0  0  0  0
   -7.8913   -5.0872    3.5410 H   0  0  0  0  0  0  0  0  0  0  0  0
   -6.0264   -2.8944    1.2192 H   0  0  0  0  0  0  0  0  0  0  0  0
   -4.2581   -1.8189   -0.0452 H   0  0  0  0  0  0  0  0  0  0  0  0
   -4.2606   -1.5906   -4.7529 H   0  0  0  0  0  0  0  0  0  0  0  0
   -4.1574   -3.8878   -5.5806 H   0  0  0  0  0  0  0  0  0  0  0  0
   -3.3608   -7.1855   -6.9070 H   0  0  0  0  0  0  0  0  0  0  0  0
   -4.3826   -5.7350   -6.9823 H   0  0  0  0  0  0  0  0  0  0  0  0
   -3.5134   -6.1540   -5.4680 H   0  0  0  0  0  0  0  0  0  0  0  0
   -0.3224   -3.0850   -7.3027 H   0  0  0  0  0  0  0  0  0  0  0  0
   -0.4323   -0.7695   -6.4584 H   0  0  0  0  0  0  0  0  0  0  0  0
   -1.4607    2.6651   -4.3037 H   0  0  0  0  0  0  0  0  0  0  0  0
   -0.9652    4.5189   -5.7868 H   0  0  0  0  0  0  0  0  0  0  0  0
   -0.2738    6.2701   -7.0936 H   0  0  0  0  0  0  0  0  0  0  0  0
   -1.0815    7.0495   -8.4707 H   0  0  0  0  0  0  0  0  0  0  0  0
   -2.0710    6.2682   -7.2103 H   0  0  0  0  0  0  0  0  0  0  0  0
   -2.1173    2.1478   -9.1553 H   0  0  0  0  0  0  0  0  0  0  0  0
   -2.6949    0.2967   -7.6505 H   0  0  0  0  0  0  0  0  0  0  0  0
   -6.4464    6.8353   -4.0742 H   0  0  0  0  0  0  0  0  0  0  0  0
   -7.9199    9.6104   -8.7085 H   0  0  0  0  0  0  0  0  0  0  0  0
   -7.0345    9.5871  -10.9981 H   0  0  0  0  0  0  0  0  0  0  0  0
  1  2  2  0  0  0  0
  2  3  1  0  0  0  0
  3  4  2  0  0  0  0
  3  5  1  0  0  0  0
  5  6  2  0  0  0  0
  6  7  1  0  0  0  0
  7  8  2  0  0  0  0
  8  9  1  0  0  0  0
  9 10  2  0  0  0  0
 10 11  1  0  0  0  0
 11 12  2  0  0  0  0
 12 13  1  0  0  0  0
 13 14  3  0  0  0  0
 12 15  1  0  0  0  0
 15 16  3  0  0  0  0
  8 17  1  0  0  0  0
 17 18  1  0  0  0  0
 18 19  1  0  0  0  0
 19 20  2  0  0  0  0
 20 21  1  0  0  0  0
 21 22  1  0  0  0  0
 21 23  1  0  0  0  0
  1 24  1  0  0  0  0
 24 25  2  0  0  0  0
 25 26  1  0  0  0  0
 26 27  2  0  0  0  0
 27 28  1  0  0  0  0
 28 29  2  0  0  0  0
 29 30  1  0  0  0  0
 30 31  2  0  0  0  0
 31 32  1  0  0  0  0
 32 33  1  0  0  0  0
 33 34  1  0  0  0  0
 34 35  1  0  0  0  0
 32 36  2  0  0  0  0
 27 37  1  0  0  0  0
 37 38  2  0  0  0  0
 38 39  1  0  0  0  0
 39 40  1  0  0  0  0
 40 41  2  0  0  0  0
 41 42  1  0  0  0  0
 42 43  2  0  0  0  0
 43 44  1  0  0  0  0
 44 45  1  0  0  0  0
 45 46  1  0  0  0  0
 46 47  1  0  0  0  0
 44 48  2  0  0  0  0
 39 49  2  0  0  0  0
 49 50  1  0  0  0  0
 38 51  1  0  0  0  0
 51 52  2  0  0  0  0
 52 53  1  0  0  0  0
 52 54  1  0  0  0  0
 54 55  2  0  0  0  0
 55 56  1  0  0  0  0
 56 57  1  0  0  0  0
 57 58  2  0  0  0  0
 58 59  1  0  0  0  0
 59 60  2  0  0  0  0
 60 61  1  0  0  0  0
 61 62  1  0  0  0  0
 60 63  1  0  0  0  0
 63 64  2  0  0  0  0
 56 65  1  0  0  0  0
 65 66  2  0  0  0  0
 66 67  1  0  0  0  0
 67 68  2  0  0  0  0
 68 69  1  0  0  0  0
 69 70  1  0  0  0  0
 68 71  1  0  0  0  0
 71 72  2  0  0  0  0
 55 73  1  0  0  0  0
 73 74  1  0  0  0  0
 74 75  1  0  0  0  0
 75 76  2  0  0  0  0
 76 77  1  0  0  0  0
 77 78  1  0  0  0  0
 78 79  2  0  0  0  0
 79 80  1  0  0  0  0
 80 81  2  0  0  0  0
 81 82  1  0  0  0  0
 82 83  1  0  0  0  0
 81 84  1  0  0  0  0
 84 85  2  0  0  0  0
 77 86  1  0  0  0  0
 86 87  2  0  0  0  0
 87 88  1  0  0  0  0
 88 89  2  0  0  0  0
 89 90  1  0  0  0  0
 90 91  1  0  0  0  0
 89 92  1  0  0  0  0
 92 93  2  0  0  0  0
 76 94  1  0  0  0  0
 94 95  1  0  0  0  0
 75 96  1  0  0  0  0
 96 97  2  0  0  0  0
 97 98  1  0  0  0  0
 98 99  1  0  0  0  0
 99100  2  0  0  0  0
100101  2  0  0  0  0
 98102  2  0  0  0  0
102103  1  0  0  0  0
103104  2  0  0  0  0
104105  1  0  0  0  0
105106  1  0  0  0  0
106107  2  0  0  0  0
102108  1  0  0  0  0
108109  2  0  0  0  0
109110  1  0  0  0  0
110111  2  0  0  0  0
110112  1  0  0  0  0
112113  2  0  0  0  0
113114  1  0  0  0  0
114115  2  0  0  0  0
115116  1  0  0  0  0
116117  1  0  0  0  0
116118  2  0  0  0  0
118119  1  0  0  0  0
113120  1  0  0  0  0
120121  2  0  0  0  0
121122  1  0  0  0  0
122123  3  0  0  0  0
121124  1  0  0  0  0
124125  3  0  0  0  0
 11  2  1  0  0  0  0
 23 17  1  0  0  0  0
 50 24  1  0  0  0  0
 95 54  1  0  0  0  0
107 96  1  0  0  0  0
120109  1  0  0  0  0
 10  5  1  0  0  0  0
 22 18  1  0  0  0  0
 49 26  1  0  0  0  0
 64 57  1  0  0  0  0
 72 65  1  0  0  0  0
 94 73  2  0  0  0  0
101 97  1  0  0  0  0
107103  1  0  0  0  0
118112  1  0  0  0  0
 23  7  1  0  0  0  0
 36 28  1  0  0  0  0
 53 37  1  0  0  0  0
 85 78  1  0  0  0  0
 93 86  1  0  0  0  0
 48 40  1  0  0  0  0
  1126  1  0  0  0  0
  6127  1  0  0  0  0
  9128  1  0  0  0  0
 17129  1  0  0  0  0
 18130  1  0  0  0  0
 19131  1  0  0  0  0
 20132  1  0  0  0  0
 21133  1  0  0  0  0
 22134  1  0  0  0  0
 22135  1  0  0  0  0
 23136  1  0  0  0  0
 25137  1  0  0  0  0
 29138  1  0  0  0  0
 30139  1  0  0  0  0
 31140  1  0  0  0  0
 34141  1  0  0  0  0
 34142  1  0  0  0  0
 35143  1  0  0  0  0
 35144  1  0  0  0  0
 35145  1  0  0  0  0
 36146  1  0  0  0  0
 41147  1  0  0  0  0
 42148  1  0  0  0  0
 43149  1  0  0  0  0
 46150  1  0  0  0  0
 46151  1  0  0  0  0
 47152  1  0  0  0  0
 47153  1  0  0  0  0
 47154  1  0  0  0  0
 48155  1  0  0  0  0
 51156  1  0  0  0  0
 58157  1  0  0  0  0
 59158  1  0  0  0  0
 62159  1  0  0  0  0
 62160  1  0  0  0  0
 62161  1  0  0  0  0
 63162  1  0  0  0  0
 64163  1  0  0  0  0
 66164  1  0  0  0  0
 67165  1  0  0  0  0
 70166  1  0  0  0  0
 70167  1  0  0  0  0
 70168  1  0  0  0  0
 71169  1  0  0  0  0
 72170  1  0  0  0  0
 79171  1  0  0  0  0
 80172  1  0  0  0  0
 83173  1  0  0  0  0
 83174  1  0  0  0  0
 83175  1  0  0  0  0
 84176  1  0  0  0  0
 85177  1  0  0  0  0
 87178  1  0  0  0  0
 88179  1  0  0  0  0
 91180  1  0  0  0  0
 91181  1  0  0  0  0
 91182  1  0  0  0  0
 92183  1  0  0  0  0
 93184  1  0  0  0  0
108185  1  0  0  0  0
114186  1  0  0  0  0
115187  1  0  0  0  0
M  END
