151

C          2.02500        4.72110       -1.71150
C          2.78660        4.10190       -2.65200
C          2.72830        2.64090       -2.93450
O          1.90420        1.83830       -2.54940
C          3.94470        2.34280       -3.71090
C          4.36250        1.08600       -4.14440
C          5.54550        1.10050       -4.84230
C          6.26680        2.27750       -5.08800
C          5.87070        3.52220       -4.65980
C          4.66480        3.53120       -3.95020
C          3.93860        4.64460       -3.35080
C          4.22620        5.97540       -3.49530
C          5.33400        6.48110       -4.20630
N          6.21920        6.95190       -4.76520
C          3.41940        7.01350       -2.98320
N          2.78770        7.89800       -2.61300
C          7.34950        1.54930       -5.84510
C          7.30700        1.65730       -7.38430
C          8.15300        0.49430       -7.85100
C          7.47190       -0.62000       -7.61640
C          6.15420       -0.22920       -6.98720
C          5.90910        1.10820       -7.69760
C          6.54600        0.23790       -5.56930
C          0.89910        4.09980       -1.06620
C          0.87670        4.09300        0.33980
C          0.10410        3.20280        1.03470
C         -0.77990        2.31130        0.38800
C         -0.99520        2.52960       -0.98460
C         -1.90170        1.96040       -1.96110
C         -3.09830        1.32890       -1.98400
C         -4.04820        1.02990       -0.95640
C         -4.16270        1.65750        0.31980
C         -5.22080        1.20520        1.02930
S         -6.10790       -0.00480        0.17990
C         -5.06180        0.12610       -1.16170
C         -1.42010        2.43240       -3.28560
O         -1.86300        2.16770       -4.38090
N         -0.41390        3.34350       -3.04710
C          0.08640        4.15750       -4.12600
C         -0.15820        5.64340       -3.89430
C         -0.11080        3.37510       -1.70530
C         -1.18460        1.11300        1.08360
C         -1.01750        0.79410        2.43410
N         -0.80000        1.67850        3.48270
C          0.11750        1.29750        4.47450
C          1.30700        0.67300        4.10470
C          2.18540        0.20830        5.06210
C          1.89170        0.37110        6.40930
S          2.92820       -0.23440        7.70200
C          3.82170       -1.59300        6.89070
C          0.73260        1.04860        6.78150
C         -0.14960        1.50370        5.82740
C         -1.61620        2.80340        3.66460
C         -1.09320        3.98100        4.20250
C         -1.89870        5.08480        4.36050
C         -3.24030        5.04690        3.97990
S         -4.16330        6.53110        4.21750
C         -5.80200        6.14410        3.53910
C         -3.76640        3.87200        3.46110
C         -2.95970        2.75970        3.31480
C         -1.05960       -0.60710        2.63770
S         -0.68620       -1.63000        3.98330
C         -0.88110       -3.05400        2.97670
C         -1.20040       -2.73840        1.65500
N         -1.25710       -3.61930        0.59410
C         -2.31970       -3.46010       -0.31250
C         -3.59910       -3.21680        0.17680
C         -4.66430       -3.07660       -0.68820
C         -4.45800       -3.16190       -2.05940
S         -5.74100       -2.96360       -3.25430
C         -7.26670       -3.03270       -2.26980
C         -3.17360       -3.39240       -2.55130
C         -2.11250       -3.54730       -1.68740
C         -0.38620       -4.70460        0.50390
C          0.91300       -4.60330        1.00350
C          1.74260       -5.70400        1.04870
C          1.29350       -6.93370        0.58070
S          2.23350       -8.42330        0.67110
C          3.63930       -7.98850        1.73690
C          0.02970       -7.02060       -0.00300
C         -0.79960       -5.92200       -0.04380
C         -1.30900       -1.33980        1.48850
S         -1.51950       -0.31830        0.11480
C         -0.62720       -4.36720        3.47250
C          0.41310       -4.70380        4.32960
F          1.16690       -3.73050        4.87490
C          0.82700       -6.02380        4.55150
F          1.94800       -6.18890        5.27730
C          0.23520       -7.14410        3.96790
C         -0.96800       -6.84740        3.27220
C         -1.37910       -5.48910        3.02410
N         -2.54180       -5.53880        2.41000
O         -2.84320       -6.82970        2.29010
N         -1.91330       -7.62880        2.79920
C          0.84870       -8.42610        4.06190
C          0.61720       -9.52480        3.29050
C         -0.28540       -9.67970        2.21540
N         -0.94350       -9.91460        1.30590
C          1.41230      -10.67650        3.50600
N          2.07800      -11.59260        3.68310
H          2.35110        5.67100       -1.30460
H          3.77770        0.20520       -3.93020
H          6.44190        4.41730       -4.84220
H          8.35540        1.64020       -5.43980
H          7.56130        2.63720       -7.77870
H          9.14900        0.59520       -8.24020
H          7.78520       -1.63590       -7.77030
H          5.35790       -0.96790       -7.01940
H          5.09570        1.69390       -7.27310
H          5.74690        0.98220       -8.76660
H          7.01480       -0.54590       -4.97710
H          1.58490        4.71070        0.87150
H          0.25660        3.12620        2.09460
H         -3.42030        1.04740       -2.98270
H         -3.50160        2.43750        0.65010
H         -5.55970        1.50380        2.00140
H         -5.22170       -0.47060       -2.03720
H         -0.46300        3.82020       -5.01090
H          1.15190        3.96730       -4.29630
H          0.12730        6.20100       -4.78210
H         -1.21180        5.82360       -3.69410
H          0.42350        6.01830       -3.05490
H          1.53700        0.54440        3.05640
H          3.09430       -0.27830        4.74760
H          4.60820       -1.20260        6.25110
H          4.26090       -2.17860        7.69220
H          3.11730       -2.19830        6.32830
H          0.52080        1.18900        7.83000
H         -1.06230        1.99780        6.12440
H         -0.05510        4.02210        4.49770
H         -1.49820        5.99740        4.77390
H         -6.37710        7.06040        3.62900
H         -5.71430        5.86540        2.49290
H         -6.27260        5.35750        4.12190
H         -4.80430        3.80410        3.17750
H         -3.37420        1.83650        2.94120
H         -3.75790       -3.17060        1.24330
H         -5.64770       -2.90940       -0.28070
H         -7.35360       -2.15590       -1.63380
H         -7.28150       -3.94750       -1.68520
H         -8.07680       -3.04280       -2.99250
H         -3.02200       -3.44880       -3.61800
H         -1.12020       -3.73420       -2.06850
H          1.27120       -3.65250        1.37010
H          2.73720       -5.59010        1.44890
H          4.15290       -8.92500        1.93230
H          4.30680       -7.30380        1.22220
H          3.28190       -7.56300        2.67050
H         -0.30860       -7.97040       -0.38580
H         -1.79080       -6.01130       -0.46120
H          1.64610       -8.50720        4.79220
