
  xtb     02052215443D
 energy: -304.878288606760 gnorm: 0.000897326546 xtb: 6.4.1 (unknown)
172192  0     0  0            999 V2000
    3.8861   -4.2933    8.7111 C   0  0  0  0  0  0  0  0  0  0  0  0
    5.0611   -4.8769    8.3391 C   0  0  0  0  0  0  0  0  0  0  0  0
    5.5086   -5.0221    6.9248 C   0  0  0  0  0  0  0  0  0  0  0  0
    4.8962   -4.7170    5.9222 O   0  0  0  0  0  0  0  0  0  0  0  0
    6.7766   -5.7668    6.9853 C   0  0  0  0  0  0  0  0  0  0  0  0
    7.5934   -6.1048    5.9089 C   0  0  0  0  0  0  0  0  0  0  0  0
    8.7177   -6.8115    6.2603 C   0  0  0  0  0  0  0  0  0  0  0  0
    9.0044   -7.1669    7.5858 C   0  0  0  0  0  0  0  0  0  0  0  0
    8.2057   -6.8427    8.6562 C   0  0  0  0  0  0  0  0  0  0  0  0
    7.0583   -6.1168    8.3218 C   0  0  0  0  0  0  0  0  0  0  0  0
    6.0019   -5.5880    9.1799 C   0  0  0  0  0  0  0  0  0  0  0  0
    5.9536   -5.6838   10.5465 C   0  0  0  0  0  0  0  0  0  0  0  0
    4.9592   -5.1031   11.3614 C   0  0  0  0  0  0  0  0  0  0  0  0
    4.1948   -4.6514   12.0898 N   0  0  0  0  0  0  0  0  0  0  0  0
    6.8976   -6.3735   11.3355 C   0  0  0  0  0  0  0  0  0  0  0  0
    7.6206   -6.9202   12.0403 N   0  0  0  0  0  0  0  0  0  0  0  0
   10.2783   -7.8773    7.2031 C   0  0  0  0  0  0  0  0  0  0  0  0
   10.2535   -9.4252    7.1516 C   0  0  0  0  0  0  0  0  0  0  0  0
    8.8273   -9.8227    6.8620 C   0  0  0  0  0  0  0  0  0  0  0  0
    8.5587   -9.4833    5.6083 C   0  0  0  0  0  0  0  0  0  0  0  0
    9.7987   -8.8496    5.0273 C   0  0  0  0  0  0  0  0  0  0  0  0
   10.8832   -9.6488    5.7673 C   0  0  0  0  0  0  0  0  0  0  0  0
    9.9611   -7.4777    5.7276 C   0  0  0  0  0  0  0  0  0  0  0  0
    3.1439   -3.4299    7.8720 C   0  0  0  0  0  0  0  0  0  0  0  0
    1.3969   -3.4430    7.9261 S   0  0  0  0  0  0  0  0  0  0  0  0
    1.2504   -2.3219    6.6055 C   0  0  0  0  0  0  0  0  0  0  0  0
    2.5125   -1.9203    6.2045 C   0  0  0  0  0  0  0  0  0  0  0  0
    3.0512   -0.8295    4.9743 S   0  0  0  0  0  0  0  0  0  0  0  0
    4.7048   -1.1012    5.4526 C   0  0  0  0  0  0  0  0  0  0  0  0
    5.7346   -0.3796    4.6978 C   0  0  0  0  0  0  0  0  0  0  0  0
    6.9189   -0.4096    4.9105 O   0  0  0  0  0  0  0  0  0  0  0  0
    5.1423    0.3288    3.7252 O   0  0  0  0  0  0  0  0  0  0  0  0
    5.9805    1.0907    2.8549 C   0  0  0  0  0  0  0  0  0  0  0  0
    6.5184    0.2345    1.7185 C   0  0  0  0  0  0  0  0  0  0  0  0
    4.8379   -1.9837    6.4922 C   0  0  0  0  0  0  0  0  0  0  0  0
    3.5842   -2.5157    6.9161 C   0  0  0  0  0  0  0  0  0  0  0  0
    6.3375   -2.3058    7.2296 Cl  0  0  0  0  0  0  0  0  0  0  0  0
    0.0154   -1.9449    6.0238 C   0  0  0  0  0  0  0  0  0  0  0  0
    0.0431   -0.7520    4.7362 S   0  0  0  0  0  0  0  0  0  0  0  0
   -1.6557   -0.9272    4.5206 C   0  0  0  0  0  0  0  0  0  0  0  0
   -2.4584   -0.3343    3.5473 C   0  0  0  0  0  0  0  0  0  0  0  0
   -3.7976   -0.7125    3.4585 C   0  0  0  0  0  0  0  0  0  0  0  0
   -4.3597   -1.5629    4.3369 O   0  0  0  0  0  0  0  0  0  0  0  0
   -3.6398   -2.1613    5.3536 C   0  0  0  0  0  0  0  0  0  0  0  0
   -4.2252   -2.9010    6.0987 O   0  0  0  0  0  0  0  0  0  0  0  0
   -2.2184   -1.8446    5.4121 C   0  0  0  0  0  0  0  0  0  0  0  0
   -1.2563   -2.4097    6.2679 C   0  0  0  0  0  0  0  0  0  0  0  0
   -4.4581   -0.1561    2.3539 C   0  0  0  0  0  0  0  0  0  0  0  0
   -3.6345    0.6595    1.6010 C   0  0  0  0  0  0  0  0  0  0  0  0
   -2.0230    0.7547    2.2851 S   0  0  0  0  0  0  0  0  0  0  0  0
   -3.8083    1.3049    0.3510 C   0  0  0  0  0  0  0  0  0  0  0  0
   -4.8931    1.3865   -0.5255 C   0  0  0  0  0  0  0  0  0  0  0  0
   -6.1969    1.0416   -0.2494 N   0  0  0  0  0  0  0  0  0  0  0  0
   -6.9807    0.5264   -1.2999 C   0  0  0  0  0  0  0  0  0  0  0  0
   -6.4588   -0.4651   -2.1308 C   0  0  0  0  0  0  0  0  0  0  0  0
   -7.2088   -0.9596   -3.1731 C   0  0  0  0  0  0  0  0  0  0  0  0
   -8.4979   -0.4815   -3.4061 C   0  0  0  0  0  0  0  0  0  0  0  0
   -9.3578   -1.1894   -4.7710 S   0  0  0  0  0  0  0  0  0  0  0  0
  -10.9482   -0.3147   -4.7938 C   0  0  0  0  0  0  0  0  0  0  0  0
   -9.0233    0.4982   -2.5728 C   0  0  0  0  0  0  0  0  0  0  0  0
   -8.2680    0.9990   -1.5310 C   0  0  0  0  0  0  0  0  0  0  0  0
   -6.7902    1.3335    0.9846 C   0  0  0  0  0  0  0  0  0  0  0  0
   -7.8260    0.5296    1.4690 C   0  0  0  0  0  0  0  0  0  0  0  0
   -8.4086    0.8045    2.6844 C   0  0  0  0  0  0  0  0  0  0  0  0
   -7.9723    1.8831    3.4542 C   0  0  0  0  0  0  0  0  0  0  0  0
   -8.7957    2.1312    4.9917 S   0  0  0  0  0  0  0  0  0  0  0  0
   -7.8994    3.5139    5.7528 C   0  0  0  0  0  0  0  0  0  0  0  0
   -6.9459    2.6861    2.9746 C   0  0  0  0  0  0  0  0  0  0  0  0
   -6.3645    2.4141    1.7517 C   0  0  0  0  0  0  0  0  0  0  0  0
   -4.4781    1.8989   -1.7824 C   0  0  0  0  0  0  0  0  0  0  0  0
   -5.2893    2.2132   -3.2738 S   0  0  0  0  0  0  0  0  0  0  0  0
   -3.7735    2.7468   -4.0191 C   0  0  0  0  0  0  0  0  0  0  0  0
   -2.7165    2.7949   -3.0873 C   0  0  0  0  0  0  0  0  0  0  0  0
   -1.4868    3.3614   -3.2621 N   0  0  0  0  0  0  0  0  0  0  0  0
   -1.2317    4.3369   -4.2354 C   0  0  0  0  0  0  0  0  0  0  0  0
   -0.0344    4.2986   -4.9535 C   0  0  0  0  0  0  0  0  0  0  0  0
    0.1971    5.2039   -5.9644 C   0  0  0  0  0  0  0  0  0  0  0  0
   -0.7516    6.1778   -6.2761 C   0  0  0  0  0  0  0  0  0  0  0  0
   -0.3888    7.2164   -7.6479 S   0  0  0  0  0  0  0  0  0  0  0  0
   -1.8244    8.3182   -7.7702 C   0  0  0  0  0  0  0  0  0  0  0  0
   -1.9117    6.2647   -5.5126 C   0  0  0  0  0  0  0  0  0  0  0  0
   -2.1480    5.3503   -4.5070 C   0  0  0  0  0  0  0  0  0  0  0  0
   -0.4280    3.0004   -2.4004 C   0  0  0  0  0  0  0  0  0  0  0  0
    0.3319    3.9936   -1.7852 C   0  0  0  0  0  0  0  0  0  0  0  0
    1.3105    3.6495   -0.8792 C   0  0  0  0  0  0  0  0  0  0  0  0
    1.5474    2.3111   -0.5704 C   0  0  0  0  0  0  0  0  0  0  0  0
    2.7734    1.9734    0.6542 S   0  0  0  0  0  0  0  0  0  0  0  0
    2.2870    0.3445    1.2943 C   0  0  0  0  0  0  0  0  0  0  0  0
    0.8387    1.3188   -1.2357 C   0  0  0  0  0  0  0  0  0  0  0  0
   -0.1414    1.6622   -2.1472 C   0  0  0  0  0  0  0  0  0  0  0  0
   -3.1404    2.2610   -1.8478 C   0  0  0  0  0  0  0  0  0  0  0  0
   -2.3455    1.9983   -0.3402 S   0  0  0  0  0  0  0  0  0  0  0  0
   -3.8078    3.0489   -5.3845 C   0  0  0  0  0  0  0  0  0  0  0  0
   -2.7271    3.0044   -6.2366 C   0  0  0  0  0  0  0  0  0  0  0  0
   -1.5411    2.1578   -6.0202 C   0  0  0  0  0  0  0  0  0  0  0  0
   -1.3137    1.4333   -5.0681 O   0  0  0  0  0  0  0  0  0  0  0  0
   -0.7415    2.2651   -7.2572 C   0  0  0  0  0  0  0  0  0  0  0  0
    0.4732    1.6423   -7.5277 C   0  0  0  0  0  0  0  0  0  0  0  0
    0.9962    1.9482   -8.7622 C   0  0  0  0  0  0  0  0  0  0  0  0
    0.3554    2.8043   -9.6661 C   0  0  0  0  0  0  0  0  0  0  0  0
   -0.8461    3.4235   -9.4127 C   0  0  0  0  0  0  0  0  0  0  0  0
   -1.3915    3.1274   -8.1616 C   0  0  0  0  0  0  0  0  0  0  0  0
   -2.6150    3.6156   -7.5323 C   0  0  0  0  0  0  0  0  0  0  0  0
   -3.4273    4.6136   -8.0122 C   0  0  0  0  0  0  0  0  0  0  0  0
   -4.4812    5.1874   -7.2750 C   0  0  0  0  0  0  0  0  0  0  0  0
   -5.3226    5.7436   -6.7237 N   0  0  0  0  0  0  0  0  0  0  0  0
   -3.2627    5.2578   -9.2526 C   0  0  0  0  0  0  0  0  0  0  0  0
   -3.1885    5.8410  -10.2399 N   0  0  0  0  0  0  0  0  0  0  0  0
    1.4391    2.6505  -10.7046 C   0  0  0  0  0  0  0  0  0  0  0  0
    1.1297    1.7166  -11.8936 C   0  0  0  0  0  0  0  0  0  0  0  0
    2.4923    1.3876  -12.4598 C   0  0  0  0  0  0  0  0  0  0  0  0
    3.1012    0.5788  -11.6021 C   0  0  0  0  0  0  0  0  0  0  0  0
    2.1604    0.3475  -10.4418 C   0  0  0  0  0  0  0  0  0  0  0  0
    0.8157    0.3959  -11.1786 C   0  0  0  0  0  0  0  0  0  0  0  0
    2.1558    1.6980   -9.6945 C   0  0  0  0  0  0  0  0  0  0  0  0
    3.4519   -4.5137    9.6775 H   0  0  0  0  0  0  0  0  0  0  0  0
    7.3340   -5.8102    4.9041 H   0  0  0  0  0  0  0  0  0  0  0  0
    8.4401   -7.1245    9.6691 H   0  0  0  0  0  0  0  0  0  0  0  0
   11.1918   -7.4921    7.6515 H   0  0  0  0  0  0  0  0  0  0  0  0
   10.7243   -9.9122    8.0011 H   0  0  0  0  0  0  0  0  0  0  0  0
    8.1631  -10.2446    7.5935 H   0  0  0  0  0  0  0  0  0  0  0  0
    7.6250   -9.5644    5.0830 H   0  0  0  0  0  0  0  0  0  0  0  0
    9.8562   -8.8127    3.9426 H   0  0  0  0  0  0  0  0  0  0  0  0
   10.9033  -10.6985    5.4784 H   0  0  0  0  0  0  0  0  0  0  0  0
   11.8801   -9.2210    5.6697 H   0  0  0  0  0  0  0  0  0  0  0  0
   10.6668   -6.8288    5.2124 H   0  0  0  0  0  0  0  0  0  0  0  0
    5.3395    1.8889    2.4746 H   0  0  0  0  0  0  0  0  0  0  0  0
    6.8049    1.5113    3.4393 H   0  0  0  0  0  0  0  0  0  0  0  0
    7.1494   -0.5578    2.1138 H   0  0  0  0  0  0  0  0  0  0  0  0
    5.6966   -0.2086    1.1617 H   0  0  0  0  0  0  0  0  0  0  0  0
    7.1071    0.8530    1.0478 H   0  0  0  0  0  0  0  0  0  0  0  0
   -1.4881   -3.1445    7.0171 H   0  0  0  0  0  0  0  0  0  0  0  0
   -5.4807   -0.3762    2.1205 H   0  0  0  0  0  0  0  0  0  0  0  0
   -5.4632   -0.8429   -1.9504 H   0  0  0  0  0  0  0  0  0  0  0  0
   -6.8084   -1.7253   -3.8192 H   0  0  0  0  0  0  0  0  0  0  0  0
  -11.4950   -0.5105   -3.8761 H   0  0  0  0  0  0  0  0  0  0  0  0
  -11.4922   -0.7235   -5.6397 H   0  0  0  0  0  0  0  0  0  0  0  0
  -10.7846    0.7488   -4.9405 H   0  0  0  0  0  0  0  0  0  0  0  0
  -10.0155    0.8889   -2.7279 H   0  0  0  0  0  0  0  0  0  0  0  0
   -8.6766    1.7692   -0.8941 H   0  0  0  0  0  0  0  0  0  0  0  0
   -8.1614   -0.3164    0.8879 H   0  0  0  0  0  0  0  0  0  0  0  0
   -9.2041    0.1803    3.0606 H   0  0  0  0  0  0  0  0  0  0  0  0
   -6.8515    3.2549    5.8716 H   0  0  0  0  0  0  0  0  0  0  0  0
   -8.3565    3.6549    6.7273 H   0  0  0  0  0  0  0  0  0  0  0  0
   -8.0215    4.4136    5.1566 H   0  0  0  0  0  0  0  0  0  0  0  0
   -6.5921    3.5343    3.5376 H   0  0  0  0  0  0  0  0  0  0  0  0
   -5.5778    3.0562    1.3856 H   0  0  0  0  0  0  0  0  0  0  0  0
    0.6977    3.5394   -4.7243 H   0  0  0  0  0  0  0  0  0  0  0  0
    1.1073    5.1561   -6.5419 H   0  0  0  0  0  0  0  0  0  0  0  0
   -1.9027    8.9285   -6.8754 H   0  0  0  0  0  0  0  0  0  0  0  0
   -2.7290    7.7417   -7.9397 H   0  0  0  0  0  0  0  0  0  0  0  0
   -1.6299    8.9482   -8.6325 H   0  0  0  0  0  0  0  0  0  0  0  0
   -2.6464    7.0310   -5.6983 H   0  0  0  0  0  0  0  0  0  0  0  0
   -3.0596    5.4218   -3.9331 H   0  0  0  0  0  0  0  0  0  0  0  0
    0.1320    5.0323   -2.0035 H   0  0  0  0  0  0  0  0  0  0  0  0
    1.8872    4.4136   -0.3817 H   0  0  0  0  0  0  0  0  0  0  0  0
    2.5422   -0.4357    0.5831 H   0  0  0  0  0  0  0  0  0  0  0  0
    1.2228    0.3491    1.5104 H   0  0  0  0  0  0  0  0  0  0  0  0
    2.8517    0.2068    2.2117 H   0  0  0  0  0  0  0  0  0  0  0  0
    1.0417    0.2764   -1.0498 H   0  0  0  0  0  0  0  0  0  0  0  0
   -0.6847    0.9002   -2.6841 H   0  0  0  0  0  0  0  0  0  0  0  0
   -4.7828    3.2914   -5.7902 H   0  0  0  0  0  0  0  0  0  0  0  0
    0.9382    0.9921   -6.8029 H   0  0  0  0  0  0  0  0  0  0  0  0
   -1.3302    4.0805  -10.1160 H   0  0  0  0  0  0  0  0  0  0  0  0
    1.9425    3.5680  -11.0030 H   0  0  0  0  0  0  0  0  0  0  0  0
    0.3890    2.0977  -12.5911 H   0  0  0  0  0  0  0  0  0  0  0  0
    2.8817    1.8073  -13.3686 H   0  0  0  0  0  0  0  0  0  0  0  0
    4.1008    0.1882  -11.6512 H   0  0  0  0  0  0  0  0  0  0  0  0
    2.3583   -0.5190   -9.8164 H   0  0  0  0  0  0  0  0  0  0  0  0
   -0.0495    0.4427  -10.5199 H   0  0  0  0  0  0  0  0  0  0  0  0
    0.6985   -0.4320  -11.8760 H   0  0  0  0  0  0  0  0  0  0  0  0
    3.1380    1.9807   -9.3199 H   0  0  0  0  0  0  0  0  0  0  0  0
  1  2  2  0  0  0  0
  2  3  1  0  0  0  0
  3  4  2  0  0  0  0
  3  5  1  0  0  0  0
  5  6  2  0  0  0  0
  6  7  1  0  0  0  0
  7  8  2  0  0  0  0
  8  9  1  0  0  0  0
  9 10  2  0  0  0  0
 10 11  1  0  0  0  0
 11 12  2  0  0  0  0
 12 13  1  0  0  0  0
 13 14  3  0  0  0  0
 12 15  1  0  0  0  0
 15 16  3  0  0  0  0
  8 17  1  0  0  0  0
 17 18  1  0  0  0  0
 18 19  1  0  0  0  0
 19 20  2  0  0  0  0
 20 21  1  0  0  0  0
 21 22  1  0  0  0  0
 21 23  1  0  0  0  0
  1 24  1  0  0  0  0
 24 25  1  0  0  0  0
 25 26  1  0  0  0  0
 26 27  2  0  0  0  0
 27 28  1  0  0  0  0
 28 29  1  0  0  0  0
 29 30  1  0  0  0  0
 30 31  2  0  0  0  0
 30 32  1  0  0  0  0
 32 33  1  0  0  0  0
 33 34  1  0  0  0  0
 29 35  2  0  0  0  0
 35 36  1  0  0  0  0
 35 37  1  0  0  0  0
 26 38  1  0  0  0  0
 38 39  1  0  0  0  0
 39 40  1  0  0  0  0
 40 41  1  0  0  0  0
 41 42  2  0  0  0  0
 42 43  1  0  0  0  0
 43 44  1  0  0  0  0
 44 45  2  0  0  0  0
 44 46  1  0  0  0  0
 46 47  1  0  0  0  0
 42 48  1  0  0  0  0
 48 49  2  0  0  0  0
 49 50  1  0  0  0  0
 49 51  1  0  0  0  0
 51 52  2  0  0  0  0
 52 53  1  0  0  0  0
 53 54  1  0  0  0  0
 54 55  2  0  0  0  0
 55 56  1  0  0  0  0
 56 57  2  0  0  0  0
 57 58  1  0  0  0  0
 58 59  1  0  0  0  0
 57 60  1  0  0  0  0
 60 61  2  0  0  0  0
 53 62  1  0  0  0  0
 62 63  2  0  0  0  0
 63 64  1  0  0  0  0
 64 65  2  0  0  0  0
 65 66  1  0  0  0  0
 66 67  1  0  0  0  0
 65 68  1  0  0  0  0
 68 69  2  0  0  0  0
 52 70  1  0  0  0  0
 70 71  1  0  0  0  0
 71 72  1  0  0  0  0
 72 73  2  0  0  0  0
 73 74  1  0  0  0  0
 74 75  1  0  0  0  0
 75 76  2  0  0  0  0
 76 77  1  0  0  0  0
 77 78  2  0  0  0  0
 78 79  1  0  0  0  0
 79 80  1  0  0  0  0
 78 81  1  0  0  0  0
 81 82  2  0  0  0  0
 74 83  1  0  0  0  0
 83 84  2  0  0  0  0
 84 85  1  0  0  0  0
 85 86  2  0  0  0  0
 86 87  1  0  0  0  0
 87 88  1  0  0  0  0
 86 89  1  0  0  0  0
 89 90  2  0  0  0  0
 73 91  1  0  0  0  0
 91 92  1  0  0  0  0
 72 93  1  0  0  0  0
 93 94  2  0  0  0  0
 94 95  1  0  0  0  0
 95 96  2  0  0  0  0
 95 97  1  0  0  0  0
 97 98  2  0  0  0  0
 98 99  1  0  0  0  0
 99100  2  0  0  0  0
100101  1  0  0  0  0
101102  2  0  0  0  0
102103  1  0  0  0  0
103104  2  0  0  0  0
104105  1  0  0  0  0
105106  3  0  0  0  0
104107  1  0  0  0  0
107108  3  0  0  0  0
100109  1  0  0  0  0
109110  1  0  0  0  0
110111  1  0  0  0  0
111112  2  0  0  0  0
112113  1  0  0  0  0
113114  1  0  0  0  0
113115  1  0  0  0  0
 11  2  1  0  0  0  0
 23 17  1  0  0  0  0
 36 24  2  0  0  0  0
 47 38  2  0  0  0  0
 92 51  1  0  0  0  0
103 94  1  0  0  0  0
115109  1  0  0  0  0
 10  5  1  0  0  0  0
 22 18  1  0  0  0  0
 36 27  1  0  0  0  0
 46 40  2  0  0  0  0
 61 54  1  0  0  0  0
 69 62  1  0  0  0  0
 91 70  2  0  0  0  0
102 97  1  0  0  0  0
114110  1  0  0  0  0
 23  7  1  0  0  0  0
 50 41  1  0  0  0  0
 82 75  1  0  0  0  0
 90 83  1  0  0  0  0
115 99  1  0  0  0  0
  1116  1  0  0  0  0
  6117  1  0  0  0  0
  9118  1  0  0  0  0
 17119  1  0  0  0  0
 18120  1  0  0  0  0
 19121  1  0  0  0  0
 20122  1  0  0  0  0
 21123  1  0  0  0  0
 22124  1  0  0  0  0
 22125  1  0  0  0  0
 23126  1  0  0  0  0
 33127  1  0  0  0  0
 33128  1  0  0  0  0
 34129  1  0  0  0  0
 34130  1  0  0  0  0
 34131  1  0  0  0  0
 47132  1  0  0  0  0
 48133  1  0  0  0  0
 55134  1  0  0  0  0
 56135  1  0  0  0  0
 59136  1  0  0  0  0
 59137  1  0  0  0  0
 59138  1  0  0  0  0
 60139  1  0  0  0  0
 61140  1  0  0  0  0
 63141  1  0  0  0  0
 64142  1  0  0  0  0
 67143  1  0  0  0  0
 67144  1  0  0  0  0
 67145  1  0  0  0  0
 68146  1  0  0  0  0
 69147  1  0  0  0  0
 76148  1  0  0  0  0
 77149  1  0  0  0  0
 80150  1  0  0  0  0
 80151  1  0  0  0  0
 80152  1  0  0  0  0
 81153  1  0  0  0  0
 82154  1  0  0  0  0
 84155  1  0  0  0  0
 85156  1  0  0  0  0
 88157  1  0  0  0  0
 88158  1  0  0  0  0
 88159  1  0  0  0  0
 89160  1  0  0  0  0
 90161  1  0  0  0  0
 93162  1  0  0  0  0
 98163  1  0  0  0  0
101164  1  0  0  0  0
109165  1  0  0  0  0
110166  1  0  0  0  0
111167  1  0  0  0  0
112168  1  0  0  0  0
113169  1  0  0  0  0
114170  1  0  0  0  0
114171  1  0  0  0  0
115172  1  0  0  0  0
M  END
