
  xtb     02042220033D
 energy: -351.961816388075 gnorm: 0.000604137390 xtb: 6.4.1 (unknown)
209232  0     0  0            999 V2000
    0.8765   -4.9715   -8.9826 C   0  0  0  0  0  0  0  0  0  0  0  0
   -0.0445   -4.7200   -9.9593 C   0  0  0  0  0  0  0  0  0  0  0  0
   -1.3027   -3.9456   -9.7779 C   0  0  0  0  0  0  0  0  0  0  0  0
   -1.7056   -3.3924   -8.7777 O   0  0  0  0  0  0  0  0  0  0  0  0
   -2.0446   -4.0837  -11.0415 C   0  0  0  0  0  0  0  0  0  0  0  0
   -3.2791   -3.5082  -11.3376 C   0  0  0  0  0  0  0  0  0  0  0  0
   -3.7372   -3.7974  -12.6002 C   0  0  0  0  0  0  0  0  0  0  0  0
   -3.0273   -4.6124  -13.4934 C   0  0  0  0  0  0  0  0  0  0  0  0
   -1.8148   -5.1936  -13.2080 C   0  0  0  0  0  0  0  0  0  0  0  0
   -1.3214   -4.9010  -11.9318 C   0  0  0  0  0  0  0  0  0  0  0  0
   -0.0778   -5.3108  -11.2836 C   0  0  0  0  0  0  0  0  0  0  0  0
    0.9131   -6.0605  -11.8643 C   0  0  0  0  0  0  0  0  0  0  0  0
    2.1434   -6.3948  -11.2607 C   0  0  0  0  0  0  0  0  0  0  0  0
    3.1725   -6.7005  -10.8520 N   0  0  0  0  0  0  0  0  0  0  0  0
    0.8508   -6.5957  -13.1675 C   0  0  0  0  0  0  0  0  0  0  0  0
    0.8716   -7.0603  -14.2175 N   0  0  0  0  0  0  0  0  0  0  0  0
   -4.0731   -4.4777  -14.5722 C   0  0  0  0  0  0  0  0  0  0  0  0
   -3.7473   -3.5116  -15.7312 C   0  0  0  0  0  0  0  0  0  0  0  0
   -5.0957   -3.2245  -16.3509 C   0  0  0  0  0  0  0  0  0  0  0  0
   -5.7715   -2.4553  -15.5070 C   0  0  0  0  0  0  0  0  0  0  0  0
   -4.8910   -2.2083  -14.3033 C   0  0  0  0  0  0  0  0  0  0  0  0
   -3.5152   -2.1930  -14.9819 C   0  0  0  0  0  0  0  0  0  0  0  0
   -4.8647   -3.5698  -13.5769 C   0  0  0  0  0  0  0  0  0  0  0  0
    0.9963   -4.2524   -7.7686 C   0  0  0  0  0  0  0  0  0  0  0  0
    0.6359   -2.9556   -7.5082 C   0  0  0  0  0  0  0  0  0  0  0  0
    0.8594   -2.5528   -6.1774 C   0  0  0  0  0  0  0  0  0  0  0  0
    0.5411   -1.3082   -5.5963 C   0  0  0  0  0  0  0  0  0  0  0  0
   -0.1518   -0.2741   -6.3740 C   0  0  0  0  0  0  0  0  0  0  0  0
    0.2921    1.0481   -6.3549 C   0  0  0  0  0  0  0  0  0  0  0  0
   -0.3460    2.0027   -7.1232 C   0  0  0  0  0  0  0  0  0  0  0  0
   -1.4157    1.6647   -7.9344 C   0  0  0  0  0  0  0  0  0  0  0  0
   -1.8545    0.3474   -7.9675 C   0  0  0  0  0  0  0  0  0  0  0  0
   -3.1850   -0.2109   -8.9863 S   0  0  0  0  0  0  0  0  0  0  0  0
   -3.2191    1.0284  -10.3416 C   0  0  0  0  0  0  0  0  0  0  0  0
   -3.9033    0.4184  -11.5509 C   0  0  0  0  0  0  0  0  0  0  0  0
   -1.2411   -0.6109   -7.1699 C   0  0  0  0  0  0  0  0  0  0  0  0
    0.9056   -1.1407   -4.2721 C   0  0  0  0  0  0  0  0  0  0  0  0
    1.5765   -2.1408   -3.5205 C   0  0  0  0  0  0  0  0  0  0  0  0
    1.8722   -3.3887   -4.0945 C   0  0  0  0  0  0  0  0  0  0  0  0
    2.5704   -4.4352   -3.3371 C   0  0  0  0  0  0  0  0  0  0  0  0
    3.7631   -4.1531   -2.6751 C   0  0  0  0  0  0  0  0  0  0  0  0
    4.4337   -5.1439   -1.9819 C   0  0  0  0  0  0  0  0  0  0  0  0
    3.9361   -6.4343   -1.9547 C   0  0  0  0  0  0  0  0  0  0  0  0
    2.7611   -6.7211   -2.6307 C   0  0  0  0  0  0  0  0  0  0  0  0
    2.1493   -8.4009   -2.6541 S   0  0  0  0  0  0  0  0  0  0  0  0
    3.3481   -9.1062   -3.8399 C   0  0  0  0  0  0  0  0  0  0  0  0
    3.1564   -8.5456   -5.2341 C   0  0  0  0  0  0  0  0  0  0  0  0
    2.0685   -5.7324   -3.3053 C   0  0  0  0  0  0  0  0  0  0  0  0
    1.4831   -3.5728   -5.4111 C   0  0  0  0  0  0  0  0  0  0  0  0
    1.7353   -5.0100   -6.3640 S   0  0  0  0  0  0  0  0  0  0  0  0
    1.8076   -1.7355   -2.1860 C   0  0  0  0  0  0  0  0  0  0  0  0
    1.3082   -0.4988   -1.8916 C   0  0  0  0  0  0  0  0  0  0  0  0
    0.5678    0.2600   -3.2885 S   0  0  0  0  0  0  0  0  0  0  0  0
    1.3071    0.1753   -0.6359 C   0  0  0  0  0  0  0  0  0  0  0  0
    1.3971   -0.3651    0.6415 C   0  0  0  0  0  0  0  0  0  0  0  0
    1.5125   -1.7012    0.9939 N   0  0  0  0  0  0  0  0  0  0  0  0
    0.7878   -2.7173    0.3731 C   0  0  0  0  0  0  0  0  0  0  0  0
    1.2832   -4.0216    0.3471 C   0  0  0  0  0  0  0  0  0  0  0  0
    0.6061   -5.0216   -0.3205 C   0  0  0  0  0  0  0  0  0  0  0  0
   -0.5783   -4.7348   -0.9864 C   0  0  0  0  0  0  0  0  0  0  0  0
   -1.4812   -5.9315   -1.9185 S   0  0  0  0  0  0  0  0  0  0  0  0
   -1.0382   -7.4962   -1.1102 C   0  0  0  0  0  0  0  0  0  0  0  0
   -1.0840   -3.4384   -0.9546 C   0  0  0  0  0  0  0  0  0  0  0  0
   -0.4163   -2.4433   -0.2774 C   0  0  0  0  0  0  0  0  0  0  0  0
    2.3800   -1.9633    2.0713 C   0  0  0  0  0  0  0  0  0  0  0  0
    3.6141   -1.3201    2.1096 C   0  0  0  0  0  0  0  0  0  0  0  0
    4.4531   -1.4629    3.1942 C   0  0  0  0  0  0  0  0  0  0  0  0
    4.0673   -2.2606    4.2625 C   0  0  0  0  0  0  0  0  0  0  0  0
    5.0385   -2.4600    5.7206 S   0  0  0  0  0  0  0  0  0  0  0  0
    6.3072   -1.1725    5.5408 C   0  0  0  0  0  0  0  0  0  0  0  0
    2.8552   -2.9466    4.2066 C   0  0  0  0  0  0  0  0  0  0  0  0
    2.0157   -2.8002    3.1241 C   0  0  0  0  0  0  0  0  0  0  0  0
    1.3755    0.6616    1.6207 C   0  0  0  0  0  0  0  0  0  0  0  0
    1.4241    0.6751    3.3491 S   0  0  0  0  0  0  0  0  0  0  0  0
    1.2771    2.4091    3.3555 C   0  0  0  0  0  0  0  0  0  0  0  0
    1.1933    2.9493    2.0915 C   0  0  0  0  0  0  0  0  0  0  0  0
    1.2024    4.3286    1.8185 N   0  0  0  0  0  0  0  0  0  0  0  0
    2.4050    4.8938    1.3919 C   0  0  0  0  0  0  0  0  0  0  0  0
    2.4104    6.0203    0.5653 C   0  0  0  0  0  0  0  0  0  0  0  0
    3.5989    6.5638    0.1359 C   0  0  0  0  0  0  0  0  0  0  0  0
    4.8162    5.9935    0.5044 C   0  0  0  0  0  0  0  0  0  0  0  0
    6.2720    6.7824   -0.1147 S   0  0  0  0  0  0  0  0  0  0  0  0
    7.6319    5.8064    0.5877 C   0  0  0  0  0  0  0  0  0  0  0  0
    4.8176    4.8638    1.3083 C   0  0  0  0  0  0  0  0  0  0  0  0
    3.6246    4.3214    1.7483 C   0  0  0  0  0  0  0  0  0  0  0  0
    0.0272    5.0673    1.9516 C   0  0  0  0  0  0  0  0  0  0  0  0
    0.0496    6.3500    2.4962 C   0  0  0  0  0  0  0  0  0  0  0  0
   -1.1214    7.0574    2.6825 C   0  0  0  0  0  0  0  0  0  0  0  0
   -2.3405    6.4924    2.3257 C   0  0  0  0  0  0  0  0  0  0  0  0
   -3.8995    7.2939    2.5496 S   0  0  0  0  0  0  0  0  0  0  0  0
   -3.5067    8.6969    3.6338 C   0  0  0  0  0  0  0  0  0  0  0  0
   -2.3655    5.2202    1.7569 C   0  0  0  0  0  0  0  0  0  0  0  0
   -1.1986    4.5143    1.5741 C   0  0  0  0  0  0  0  0  0  0  0  0
    1.2566    1.9410    1.1036 C   0  0  0  0  0  0  0  0  0  0  0  0
    1.1514    1.9282   -0.6184 S   0  0  0  0  0  0  0  0  0  0  0  0
    1.2747    3.1606    4.5989 C   0  0  0  0  0  0  0  0  0  0  0  0
    2.3290    3.2193    5.4823 C   0  0  0  0  0  0  0  0  0  0  0  0
    3.6435    2.5371    5.4524 C   0  0  0  0  0  0  0  0  0  0  0  0
    4.1079    1.7859    4.6280 O   0  0  0  0  0  0  0  0  0  0  0  0
    4.3069    2.9485    6.5975 N   0  0  0  0  0  0  0  0  0  0  0  0
    5.6153    2.4714    6.9904 C   0  0  0  0  0  0  0  0  0  0  0  0
    5.5055    1.3838    8.0533 C   0  0  0  0  0  0  0  0  0  0  0  0
    3.5701    3.8333    7.3696 C   0  0  0  0  0  0  0  0  0  0  0  0
    3.9369    4.3217    8.4096 O   0  0  0  0  0  0  0  0  0  0  0  0
    2.3022    4.0310    6.6423 C   0  0  0  0  0  0  0  0  0  0  0  0
    1.2431    4.8286    7.0056 C   0  0  0  0  0  0  0  0  0  0  0  0
    0.1315    4.7858    6.1235 C   0  0  0  0  0  0  0  0  0  0  0  0
    0.1420    3.9373    4.9621 C   0  0  0  0  0  0  0  0  0  0  0  0
   -1.0204    3.9756    4.3125 N   0  0  0  0  0  0  0  0  0  0  0  0
   -1.9962    5.0059    5.0524 S   0  0  0  0  0  0  0  0  0  0  0  0
   -1.0135    5.4557    6.2404 N   0  0  0  0  0  0  0  0  0  0  0  0
    1.2502    5.6519    8.1990 C   0  0  0  0  0  0  0  0  0  0  0  0
    0.2984    5.5692    9.1474 C   0  0  0  0  0  0  0  0  0  0  0  0
   -0.7163    4.4745    9.2043 C   0  0  0  0  0  0  0  0  0  0  0  0
   -0.8625    3.5708    8.4116 O   0  0  0  0  0  0  0  0  0  0  0  0
   -1.4319    4.6658   10.4746 C   0  0  0  0  0  0  0  0  0  0  0  0
   -2.4627    3.8725   10.9762 C   0  0  0  0  0  0  0  0  0  0  0  0
   -2.9232    4.2639   12.2093 C   0  0  0  0  0  0  0  0  0  0  0  0
   -2.3949    5.3643   12.9011 C   0  0  0  0  0  0  0  0  0  0  0  0
   -1.3823    6.1573   12.4190 C   0  0  0  0  0  0  0  0  0  0  0  0
   -0.8990    5.7785   11.1614 C   0  0  0  0  0  0  0  0  0  0  0  0
    0.1494    6.3808   10.3490 C   0  0  0  0  0  0  0  0  0  0  0  0
    0.8254    7.5369   10.6217 C   0  0  0  0  0  0  0  0  0  0  0  0
    1.7650    8.1409    9.7569 C   0  0  0  0  0  0  0  0  0  0  0  0
    2.5104    8.7100    9.0954 N   0  0  0  0  0  0  0  0  0  0  0  0
    0.6508    8.3116   11.7891 C   0  0  0  0  0  0  0  0  0  0  0  0
    0.5626    8.9832   12.7154 N   0  0  0  0  0  0  0  0  0  0  0  0
   -3.3113    5.1626   14.0811 C   0  0  0  0  0  0  0  0  0  0  0  0
   -2.7138    4.5092   15.3522 C   0  0  0  0  0  0  0  0  0  0  0  0
   -1.5606    3.6514   14.8935 C   0  0  0  0  0  0  0  0  0  0  0  0
   -2.0632    2.6132   14.2388 C   0  0  0  0  0  0  0  0  0  0  0  0
   -3.5659    2.7502   14.2427 C   0  0  0  0  0  0  0  0  0  0  0  0
   -3.7727    3.4248   15.6082 C   0  0  0  0  0  0  0  0  0  0  0  0
   -3.9018    3.9403   13.3097 C   0  0  0  0  0  0  0  0  0  0  0  0
    1.5678   -5.7951   -9.1103 H   0  0  0  0  0  0  0  0  0  0  0  0
   -3.7872   -2.8932  -10.6108 H   0  0  0  0  0  0  0  0  0  0  0  0
   -1.2905   -5.8268  -13.9038 H   0  0  0  0  0  0  0  0  0  0  0  0
   -4.5307   -5.4060  -14.9086 H   0  0  0  0  0  0  0  0  0  0  0  0
   -2.9627   -3.8527  -16.4010 H   0  0  0  0  0  0  0  0  0  0  0  0
   -5.4293   -3.6431  -17.2822 H   0  0  0  0  0  0  0  0  0  0  0  0
   -6.7827   -2.1028  -15.5926 H   0  0  0  0  0  0  0  0  0  0  0  0
   -5.1503   -1.3608  -13.6749 H   0  0  0  0  0  0  0  0  0  0  0  0
   -2.6769   -2.2200  -14.2879 H   0  0  0  0  0  0  0  0  0  0  0  0
   -3.3994   -1.3492  -15.6601 H   0  0  0  0  0  0  0  0  0  0  0  0
   -5.8494   -3.8947  -13.2464 H   0  0  0  0  0  0  0  0  0  0  0  0
    0.2696   -2.2915   -8.2667 H   0  0  0  0  0  0  0  0  0  0  0  0
    1.1494    1.3211   -5.7590 H   0  0  0  0  0  0  0  0  0  0  0  0
   -0.0032    3.0265   -7.0991 H   0  0  0  0  0  0  0  0  0  0  0  0
   -1.8997    2.4273   -8.5241 H   0  0  0  0  0  0  0  0  0  0  0  0
   -2.1860    1.2895  -10.5694 H   0  0  0  0  0  0  0  0  0  0  0  0
   -3.7588    1.9094   -9.9925 H   0  0  0  0  0  0  0  0  0  0  0  0
   -3.9369    1.1415  -12.3636 H   0  0  0  0  0  0  0  0  0  0  0  0
   -4.9203    0.1248  -11.3004 H   0  0  0  0  0  0  0  0  0  0  0  0
   -3.3606   -0.4625  -11.8868 H   0  0  0  0  0  0  0  0  0  0  0  0
   -1.6248   -1.6191   -7.1829 H   0  0  0  0  0  0  0  0  0  0  0  0
    4.1777   -3.1573   -2.7276 H   0  0  0  0  0  0  0  0  0  0  0  0
    5.3540   -4.9125   -1.4660 H   0  0  0  0  0  0  0  0  0  0  0  0
    4.4541   -7.2153   -1.4183 H   0  0  0  0  0  0  0  0  0  0  0  0
    4.3481   -8.9031   -3.4560 H   0  0  0  0  0  0  0  0  0  0  0  0
    3.1610  -10.1791   -3.8118 H   0  0  0  0  0  0  0  0  0  0  0  0
    3.8576   -9.0152   -5.9211 H   0  0  0  0  0  0  0  0  0  0  0  0
    3.3269   -7.4702   -5.2458 H   0  0  0  0  0  0  0  0  0  0  0  0
    2.1444   -8.7362   -5.5840 H   0  0  0  0  0  0  0  0  0  0  0  0
    1.1368   -5.9709   -3.7946 H   0  0  0  0  0  0  0  0  0  0  0  0
    2.3312   -2.3458   -1.4767 H   0  0  0  0  0  0  0  0  0  0  0  0
    2.2192   -4.2488    0.8360 H   0  0  0  0  0  0  0  0  0  0  0  0
    1.0218   -6.0164   -0.3374 H   0  0  0  0  0  0  0  0  0  0  0  0
   -1.1052   -7.3725   -0.0338 H   0  0  0  0  0  0  0  0  0  0  0  0
   -1.7708   -8.2216   -1.4495 H   0  0  0  0  0  0  0  0  0  0  0  0
   -0.0444   -7.8146   -1.4110 H   0  0  0  0  0  0  0  0  0  0  0  0
   -2.0092   -3.2222   -1.4661 H   0  0  0  0  0  0  0  0  0  0  0  0
   -0.8302   -1.4471   -0.2441 H   0  0  0  0  0  0  0  0  0  0  0  0
    3.9108   -0.6894    1.2842 H   0  0  0  0  0  0  0  0  0  0  0  0
    5.3953   -0.9421    3.1920 H   0  0  0  0  0  0  0  0  0  0  0  0
    5.8241   -0.2293    5.3038 H   0  0  0  0  0  0  0  0  0  0  0  0
    7.0217   -1.4557    4.7728 H   0  0  0  0  0  0  0  0  0  0  0  0
    6.8081   -1.1124    6.5018 H   0  0  0  0  0  0  0  0  0  0  0  0
    2.5704   -3.5769    5.0351 H   0  0  0  0  0  0  0  0  0  0  0  0
    1.0651   -3.3109    3.0975 H   0  0  0  0  0  0  0  0  0  0  0  0
    1.4747    6.4589    0.2537 H   0  0  0  0  0  0  0  0  0  0  0  0
    3.5996    7.4338   -0.5027 H   0  0  0  0  0  0  0  0  0  0  0  0
    7.5914    5.8404    1.6726 H   0  0  0  0  0  0  0  0  0  0  0  0
    7.5852    4.7848    0.2215 H   0  0  0  0  0  0  0  0  0  0  0  0
    8.5429    6.2818    0.2379 H   0  0  0  0  0  0  0  0  0  0  0  0
    5.7391    4.3908    1.6078 H   0  0  0  0  0  0  0  0  0  0  0  0
    3.6500    3.4447    2.3784 H   0  0  0  0  0  0  0  0  0  0  0  0
    0.9918    6.7869    2.7937 H   0  0  0  0  0  0  0  0  0  0  0  0
   -1.0689    8.0438    3.1144 H   0  0  0  0  0  0  0  0  0  0  0  0
   -4.4634    9.1284    3.9110 H   0  0  0  0  0  0  0  0  0  0  0  0
   -2.9157    9.4341    3.0981 H   0  0  0  0  0  0  0  0  0  0  0  0
   -2.9888    8.3422    4.5204 H   0  0  0  0  0  0  0  0  0  0  0  0
   -3.3132    4.7939    1.4672 H   0  0  0  0  0  0  0  0  0  0  0  0
   -1.2266    3.5239    1.1479 H   0  0  0  0  0  0  0  0  0  0  0  0
    6.1050    2.0942    6.0896 H   0  0  0  0  0  0  0  0  0  0  0  0
    6.1761    3.3235    7.3835 H   0  0  0  0  0  0  0  0  0  0  0  0
    6.4968    1.0278    8.3195 H   0  0  0  0  0  0  0  0  0  0  0  0
    5.0291    1.7853    8.9442 H   0  0  0  0  0  0  0  0  0  0  0  0
    4.9149    0.5474    7.6865 H   0  0  0  0  0  0  0  0  0  0  0  0
    2.0938    6.3206    8.3084 H   0  0  0  0  0  0  0  0  0  0  0  0
   -2.8369    3.0321   10.4127 H   0  0  0  0  0  0  0  0  0  0  0  0
   -0.9846    6.9975   12.9634 H   0  0  0  0  0  0  0  0  0  0  0  0
   -3.9775    5.9905   14.3145 H   0  0  0  0  0  0  0  0  0  0  0  0
   -2.5031    5.2049   16.1598 H   0  0  0  0  0  0  0  0  0  0  0  0
   -0.5278    3.9088   15.0391 H   0  0  0  0  0  0  0  0  0  0  0  0
   -1.5344    1.8302   13.7276 H   0  0  0  0  0  0  0  0  0  0  0  0
   -4.1315    1.8445   14.0406 H   0  0  0  0  0  0  0  0  0  0  0  0
   -3.5150    2.7738   16.4421 H   0  0  0  0  0  0  0  0  0  0  0  0
   -4.7767    3.8227   15.7485 H   0  0  0  0  0  0  0  0  0  0  0  0
   -4.9546    3.9699   13.0362 H   0  0  0  0  0  0  0  0  0  0  0  0
  1  2  2  0  0  0  0
  2  3  1  0  0  0  0
  3  4  2  0  0  0  0
  3  5  1  0  0  0  0
  5  6  2  0  0  0  0
  6  7  1  0  0  0  0
  7  8  2  0  0  0  0
  8  9  1  0  0  0  0
  9 10  2  0  0  0  0
 10 11  1  0  0  0  0
 11 12  2  0  0  0  0
 12 13  1  0  0  0  0
 13 14  3  0  0  0  0
 12 15  1  0  0  0  0
 15 16  3  0  0  0  0
  8 17  1  0  0  0  0
 17 18  1  0  0  0  0
 18 19  1  0  0  0  0
 19 20  2  0  0  0  0
 20 21  1  0  0  0  0
 21 22  1  0  0  0  0
 21 23  1  0  0  0  0
  1 24  1  0  0  0  0
 24 25  2  0  0  0  0
 25 26  1  0  0  0  0
 26 27  2  0  0  0  0
 27 28  1  0  0  0  0
 28 29  2  0  0  0  0
 29 30  1  0  0  0  0
 30 31  2  0  0  0  0
 31 32  1  0  0  0  0
 32 33  1  0  0  0  0
 33 34  1  0  0  0  0
 34 35  1  0  0  0  0
 32 36  2  0  0  0  0
 27 37  1  0  0  0  0
 37 38  2  0  0  0  0
 38 39  1  0  0  0  0
 39 40  1  0  0  0  0
 40 41  2  0  0  0  0
 41 42  1  0  0  0  0
 42 43  2  0  0  0  0
 43 44  1  0  0  0  0
 44 45  1  0  0  0  0
 45 46  1  0  0  0  0
 46 47  1  0  0  0  0
 44 48  2  0  0  0  0
 39 49  2  0  0  0  0
 49 50  1  0  0  0  0
 38 51  1  0  0  0  0
 51 52  2  0  0  0  0
 52 53  1  0  0  0  0
 52 54  1  0  0  0  0
 54 55  2  0  0  0  0
 55 56  1  0  0  0  0
 56 57  1  0  0  0  0
 57 58  2  0  0  0  0
 58 59  1  0  0  0  0
 59 60  2  0  0  0  0
 60 61  1  0  0  0  0
 61 62  1  0  0  0  0
 60 63  1  0  0  0  0
 63 64  2  0  0  0  0
 56 65  1  0  0  0  0
 65 66  2  0  0  0  0
 66 67  1  0  0  0  0
 67 68  2  0  0  0  0
 68 69  1  0  0  0  0
 69 70  1  0  0  0  0
 68 71  1  0  0  0  0
 71 72  2  0  0  0  0
 55 73  1  0  0  0  0
 73 74  1  0  0  0  0
 74 75  1  0  0  0  0
 75 76  2  0  0  0  0
 76 77  1  0  0  0  0
 77 78  1  0  0  0  0
 78 79  2  0  0  0  0
 79 80  1  0  0  0  0
 80 81  2  0  0  0  0
 81 82  1  0  0  0  0
 82 83  1  0  0  0  0
 81 84  1  0  0  0  0
 84 85  2  0  0  0  0
 77 86  1  0  0  0  0
 86 87  2  0  0  0  0
 87 88  1  0  0  0  0
 88 89  2  0  0  0  0
 89 90  1  0  0  0  0
 90 91  1  0  0  0  0
 89 92  1  0  0  0  0
 92 93  2  0  0  0  0
 76 94  1  0  0  0  0
 94 95  1  0  0  0  0
 75 96  1  0  0  0  0
 96 97  2  0  0  0  0
 97 98  1  0  0  0  0
 98 99  2  0  0  0  0
 98100  1  0  0  0  0
100101  1  0  0  0  0
101102  1  0  0  0  0
100103  1  0  0  0  0
103104  2  0  0  0  0
103105  1  0  0  0  0
105106  2  0  0  0  0
106107  1  0  0  0  0
107108  1  0  0  0  0
108109  2  0  0  0  0
109110  1  0  0  0  0
110111  1  0  0  0  0
106112  1  0  0  0  0
112113  2  0  0  0  0
113114  1  0  0  0  0
114115  2  0  0  0  0
114116  1  0  0  0  0
116117  2  0  0  0  0
117118  1  0  0  0  0
118119  2  0  0  0  0
119120  1  0  0  0  0
120121  2  0  0  0  0
121122  1  0  0  0  0
122123  2  0  0  0  0
123124  1  0  0  0  0
124125  3  0  0  0  0
123126  1  0  0  0  0
126127  3  0  0  0  0
119128  1  0  0  0  0
128129  1  0  0  0  0
129130  1  0  0  0  0
130131  2  0  0  0  0
131132  1  0  0  0  0
132133  1  0  0  0  0
132134  1  0  0  0  0
 11  2  1  0  0  0  0
 23 17  1  0  0  0  0
 50 24  1  0  0  0  0
 95 54  1  0  0  0  0
108 96  1  0  0  0  0
122113  1  0  0  0  0
134128  1  0  0  0  0
 10  5  1  0  0  0  0
 22 18  1  0  0  0  0
 49 26  1  0  0  0  0
 64 57  1  0  0  0  0
 72 65  1  0  0  0  0
 94 73  2  0  0  0  0
105 97  1  0  0  0  0
111107  2  0  0  0  0
121116  1  0  0  0  0
133129  1  0  0  0  0
 23  7  1  0  0  0  0
 36 28  1  0  0  0  0
 53 37  1  0  0  0  0
 85 78  1  0  0  0  0
 93 86  1  0  0  0  0
134118  1  0  0  0  0
 48 40  1  0  0  0  0
  1135  1  0  0  0  0
  6136  1  0  0  0  0
  9137  1  0  0  0  0
 17138  1  0  0  0  0
 18139  1  0  0  0  0
 19140  1  0  0  0  0
 20141  1  0  0  0  0
 21142  1  0  0  0  0
 22143  1  0  0  0  0
 22144  1  0  0  0  0
 23145  1  0  0  0  0
 25146  1  0  0  0  0
 29147  1  0  0  0  0
 30148  1  0  0  0  0
 31149  1  0  0  0  0
 34150  1  0  0  0  0
 34151  1  0  0  0  0
 35152  1  0  0  0  0
 35153  1  0  0  0  0
 35154  1  0  0  0  0
 36155  1  0  0  0  0
 41156  1  0  0  0  0
 42157  1  0  0  0  0
 43158  1  0  0  0  0
 46159  1  0  0  0  0
 46160  1  0  0  0  0
 47161  1  0  0  0  0
 47162  1  0  0  0  0
 47163  1  0  0  0  0
 48164  1  0  0  0  0
 51165  1  0  0  0  0
 58166  1  0  0  0  0
 59167  1  0  0  0  0
 62168  1  0  0  0  0
 62169  1  0  0  0  0
 62170  1  0  0  0  0
 63171  1  0  0  0  0
 64172  1  0  0  0  0
 66173  1  0  0  0  0
 67174  1  0  0  0  0
 70175  1  0  0  0  0
 70176  1  0  0  0  0
 70177  1  0  0  0  0
 71178  1  0  0  0  0
 72179  1  0  0  0  0
 79180  1  0  0  0  0
 80181  1  0  0  0  0
 83182  1  0  0  0  0
 83183  1  0  0  0  0
 83184  1  0  0  0  0
 84185  1  0  0  0  0
 85186  1  0  0  0  0
 87187  1  0  0  0  0
 88188  1  0  0  0  0
 91189  1  0  0  0  0
 91190  1  0  0  0  0
 91191  1  0  0  0  0
 92192  1  0  0  0  0
 93193  1  0  0  0  0
101194  1  0  0  0  0
101195  1  0  0  0  0
102196  1  0  0  0  0
102197  1  0  0  0  0
102198  1  0  0  0  0
112199  1  0  0  0  0
117200  1  0  0  0  0
120201  1  0  0  0  0
128202  1  0  0  0  0
129203  1  0  0  0  0
130204  1  0  0  0  0
131205  1  0  0  0  0
132206  1  0  0  0  0
133207  1  0  0  0  0
133208  1  0  0  0  0
134209  1  0  0  0  0
M  END
