177

C          6.85570        0.52920       -0.68120
C          6.22520        1.20290        0.30840
C          4.78070        1.01360        0.63780
O          3.98620        0.26910        0.10810
C          4.52160        1.87320        1.80400
C          3.30390        2.01170        2.46770
C          3.34180        2.88150        3.52890
C          4.50640        3.56930        3.90110
C          5.71680        3.42910        3.26500
C          5.70420        2.53980        2.18200
C          6.78510        2.12090        1.29440
C          8.09160        2.51900        1.37800
C          9.12680        2.07070        0.53010
N         10.01730        1.73880       -0.11440
C          8.59460        3.42450        2.33690
N          9.07060        4.15430        3.08400
C          3.81410        4.27980        5.03890
C          3.41340        5.75100        4.79790
C          2.36770        6.01820        5.85710
C          1.26850        5.35780        5.51600
C          1.55190        4.63260        4.22030
C          2.51120        5.63320        3.56250
C          2.52100        3.50310        4.63050
C          6.07530       -0.24250       -1.64300
C          5.12240        0.44270       -2.41240
C          4.14160       -0.22260       -3.10020
C          4.01810       -1.62010       -3.03090
C          5.06230       -2.32570       -2.44380
C          5.30260       -3.73930       -2.22660
C          4.70440       -4.87230       -2.63940
C          3.64480       -5.01610       -3.60850
C          3.57130       -4.33310       -4.85790
C          2.48730       -4.68890       -5.58450
S          1.49790       -5.83070       -4.75820
C          2.59300       -5.87400       -3.44240
C          6.48700       -3.82240       -1.33360
O          7.02860       -4.81100       -0.89050
N          6.91290       -2.53040       -1.11530
C          8.08340       -2.22890       -0.33350
C          9.28940       -1.90940       -1.21230
C          6.08880       -1.62730       -1.75560
C          2.67230       -2.12730       -3.31960
C          1.97130       -2.82070       -2.33280
F          2.61960       -3.32460       -1.26450
C          0.59580       -2.89950       -2.31970
C         -0.15040       -2.29800       -3.32930
C          0.54370       -1.75100       -4.41500
C          1.91710       -1.65940       -4.39890
C         -1.53760       -1.92500       -3.09000
C         -2.61350       -2.50870       -2.44390
N         -2.91360       -3.85010       -2.29400
C         -1.95730       -4.84730       -1.99530
C         -1.34140       -4.88830       -0.74570
C         -0.45240       -5.89930       -0.44850
C         -0.17800       -6.89290       -1.38710
S          0.98160       -8.13220       -0.90090
C          0.95340       -9.32200       -2.27320
C         -0.80570       -6.86330       -2.62510
C         -1.68970       -5.84410       -2.92300
C         -4.23130       -4.27700       -2.50580
C         -5.06870       -3.62560       -3.40810
C         -6.36570       -4.05560       -3.61100
C         -6.84890       -5.15880       -2.92270
S         -8.47990       -5.81130       -3.10680
C         -9.31090       -4.61240       -4.18790
C         -6.01000       -5.82600       -2.03260
C         -4.72110       -5.39210       -1.82340
C         -3.53830       -1.51670       -1.99760
S         -4.79020       -1.55710       -0.80500
C         -4.89110        0.18940       -0.83680
C         -3.97490        0.76440       -1.72270
N         -3.72810        2.12940       -1.77390
C         -3.37640        2.70730       -2.99610
C         -2.45710        3.75480       -3.06800
C         -2.12890        4.30490       -4.28570
C         -2.69950        3.82180       -5.46230
S         -2.19050        4.60610       -6.95930
C         -3.19910        3.80580       -8.23930
C         -3.60990        2.77650       -5.39630
C         -3.94730        2.23040       -4.17380
C         -3.56380        2.82640       -0.56090
C         -2.91670        2.21520        0.51440
C         -2.79020        2.87310        1.71590
C         -3.29600        4.16190        1.87640
S         -3.05380        4.90110        3.45940
C         -3.89840        6.50220        3.34990
C         -3.93020        4.77920        0.80560
C         -4.06110        4.11650       -0.40080
C         -3.20480       -0.22080       -2.36110
S         -1.74800       -0.17300       -3.28250
C         -5.64480        1.02220        0.02770
C         -5.80990        0.90180        1.37250
C         -5.21130       -0.16800        2.19820
O         -4.96110       -1.30710        1.86530
C         -4.92890        0.46760        3.49960
C         -4.17150       -0.06160        4.54210
C         -3.97480        0.80780        5.58880
C         -4.51530        2.10050        5.61350
C         -5.29040        2.62500        4.60720
C         -5.47360        1.76960        3.51640
C         -6.12270        2.02380        2.23670
C         -6.80660        3.15400        1.87560
C         -6.93050        4.30340        2.67620
N         -7.01960        5.29640        3.24820
C         -7.44600        3.33120        0.63040
N         -8.00210        3.54170       -0.35220
C         -3.87170        2.43140        6.93630
C         -2.61300        3.32420        6.87330
C         -1.93730        3.09040        8.20470
C         -1.42990        1.86420        8.18930
C         -1.75300        1.24970        6.84640
C         -1.69190        2.50230        5.96370
C         -3.27330        0.98830        6.91250
H          7.92840        0.59030       -0.80010
H          2.43460        1.46200        2.14270
H          6.60550        3.95330        3.57480
H          4.23440        4.11120        6.02840
H          4.24650        6.44660        4.74640
H          2.54770        6.59690        6.74390
H          0.34440        5.27720        6.05790
H          0.68840        4.30960        3.64470
H          3.01610        5.24820        2.67820
H          2.02080        6.57450        3.32060
H          2.08690        2.80600        5.34530
H          5.13380        1.52260       -2.40470
H          3.37670        0.34410       -3.60840
H          5.06340       -5.78740       -2.18110
H          4.32390       -3.64360       -5.19500
H          2.19240       -4.34660       -6.55610
H          2.39130       -6.48670       -2.58690
H          7.85650       -1.39160        0.33590
H          8.28890       -3.11940        0.26750
H         10.13150       -1.61240       -0.59360
H          9.06600       -1.10100       -1.90490
H          9.57010       -2.78760       -1.78880
H          0.12140       -3.33530       -1.45790
H         -0.01270       -1.32220       -5.23530
H          2.42630       -1.17030       -5.21590
H         -1.58000       -4.13440       -0.00860
H          0.03320       -5.93760        0.51450
H          1.61960      -10.12480       -1.97250
H          1.32260       -8.85930       -3.18430
H         -0.05310       -9.70760       -2.40550
H         -0.61530       -7.62060       -3.36730
H         -2.18250       -5.82240       -3.88330
H         -4.70270       -2.77810       -3.96880
H         -6.98180       -3.52540       -4.31930
H         -8.85380       -4.61620       -5.17330
H         -9.27620       -3.62450       -3.73830
H        -10.34030       -4.94940       -4.26010
H         -6.38800       -6.68520       -1.50010
H         -4.08620       -5.91160       -1.12230
H         -1.99550        4.12670       -2.16600
H         -1.41660        5.11370       -4.34270
H         -4.25350        3.95890       -8.02890
H         -2.93380        4.29860       -9.16940
H         -2.95580        2.74910       -8.30040
H         -4.07180        2.38070       -6.28610
H         -4.66960        1.42870       -4.12950
H         -2.51420        1.21940        0.40220
H         -2.28840        2.39630        2.54450
H         -3.74070        6.97790        4.31310
H         -4.96230        6.35050        3.18500
H         -3.45070        7.10540        2.56570
H         -4.33950        5.77210        0.90040
H         -4.56460        4.59940       -1.22510
H         -5.92880        1.96710       -0.42320
H         -3.77410       -1.06310        4.48570
H         -5.70400        3.61850        4.64140
H         -4.54720        2.70380        7.74450
H         -2.80190        4.35440        6.58590
H         -1.94620        3.79500        9.01570
H         -0.93090        1.34110        8.98400
H         -1.15670        0.39250        6.54470
H         -2.08200        2.36410        4.95800
H         -0.68850        2.92030        5.90800
H         -3.55360        0.29390        7.70210
