221

C          8.29780       -5.18220        5.38300
C          9.65110       -5.25700        5.26800
C         10.31940       -6.57010        5.49880
O          9.83180       -7.54540        6.02260
C         11.66270       -6.43530        4.90400
C         12.61510       -7.43760        4.72930
C         13.76250       -7.01590        4.10140
C         13.95090       -5.69640        3.66730
C         13.02370       -4.69580        3.83650
C         11.85420       -5.10270        4.48400
C         10.67320       -4.32440        4.85010
C         10.64660       -2.96360        5.01010
C         11.73590       -2.11000        4.73910
N         12.58850       -1.36560        4.54810
C          9.55950       -2.26880        5.57110
N          8.71670       -1.64360        6.03830
C         15.32070       -5.99080        3.10910
C         16.52410       -5.51720        3.95140
C         17.67780       -6.34190        3.42780
C         17.50190       -7.59030        3.84160
C         16.22630       -7.63050        4.65200
C         16.27110       -6.23350        5.28430
C         15.11290       -7.46070        3.59670
C          7.39210       -4.22970        4.85720
C          7.56770       -3.31370        3.84900
C          6.38920       -2.63090        3.49040
C          6.23320       -1.67240        2.47320
C          7.37180       -1.13850        1.71020
C          7.40780       -1.25710        0.32500
C          8.48130       -0.74780       -0.38420
C          9.50160       -0.09120        0.27530
C          9.45180        0.06540        1.65890
S         10.78620        0.94890        2.41590
C          9.97410        1.93110        3.73430
C         10.19730        1.37500        5.12600
C          8.39810       -0.47720        2.37830
C          4.94680       -1.23440        2.23350
C          3.83480       -1.61410        3.02660
C          3.99640       -2.53040        4.08050
C          2.85220       -2.90290        4.92530
C          2.07820       -1.91030        5.52620
C          0.99190       -2.25880        6.30360
C          0.65120       -3.58680        6.49510
C          1.41520       -4.57860        5.89700
S          1.08240       -6.30740        6.05130
C         -0.57010       -6.37220        6.84300
C         -1.08120       -7.79980        6.80160
C          2.51570       -4.23430        5.11850
C          5.26760       -3.05210        4.25670
S          5.72460       -4.26870        5.41180
C          2.64660       -1.00280        2.57540
C          2.81070       -0.18250        1.48780
S          4.48240       -0.13590        0.96270
C          1.73890        0.45270        0.80110
C          1.67420        1.21450       -0.36240
N          2.73190        1.71220       -1.10140
C          2.58560        1.77520       -2.49680
C          2.02860        0.70420       -3.18990
C          1.83050        0.77220       -4.55510
C          2.19370        1.91660       -5.25120
S          1.97220        2.12760       -6.98940
C          0.89420        0.74310       -7.45700
C          2.78030        2.97940       -4.56530
C          2.97280        2.91310       -3.20450
C          3.87400        2.24820       -0.49860
C          3.80650        2.87830        0.74470
C          4.95410        3.33600        1.35220
C          6.19310        3.18450        0.73280
S          7.59850        3.75940        1.62830
C          8.97390        3.56700        0.46170
C          6.26100        2.59130       -0.52090
C          5.11170        2.13260       -1.12990
C          0.32320        1.41620       -0.75340
S         -0.43400        2.21470       -2.08720
C         -2.03130        1.73970       -1.50470
C         -1.96620        1.04720       -0.29960
N         -3.02190        0.59220        0.47160
C         -4.27950        1.20670        0.46770
C         -4.40240        2.59060        0.34350
C         -5.63950        3.16170        0.15260
C         -6.78750        2.37180        0.10020
S         -8.29510        3.19440       -0.30860
C         -9.56740        1.92040       -0.09830
C         -6.68000        1.00730        0.33450
C         -5.43760        0.43240        0.51710
C         -2.81170       -0.55760        1.25450
C         -2.15800       -1.66300        0.71800
C         -1.85300       -2.75450        1.50710
C         -2.20530       -2.75770        2.84940
S         -1.80210       -4.06920        3.95840
C         -0.58640       -5.04890        3.03410
C         -2.91780       -1.68050        3.37410
C         -3.21990       -0.59160        2.58720
C         -0.61660        0.86880        0.09890
S          0.13430        0.10290        1.44920
C         -3.20040        2.01200       -2.28050
C         -3.57960        3.17700       -2.93970
C         -2.69870        4.39150       -2.98360
C         -2.56240        5.07110       -1.62110
C         -4.88090        3.07270       -3.45450
C         -5.46070        1.83360       -3.17760
S         -4.40080        0.74120       -2.40120
C         -6.82260        1.84990       -3.51690
C         -7.14320        3.10420       -4.05150
C         -5.90560        3.97680       -4.12670
C         -6.06960        5.27780       -3.31980
C         -7.11330        6.25070       -3.85210
C         -5.63310        4.17870       -5.63510
C         -4.38570        4.96780       -6.00580
C         -8.47400        3.20790       -4.40330
C         -9.20190        2.05910       -4.09670
S         -8.16720        0.81200       -3.38670
C        -10.56860        1.76580       -4.17890
C        -11.59190        2.42540       -4.81300
C        -11.51040        3.47820       -5.84560
O        -10.56070        4.16940       -6.15910
C        -12.84500        3.51450       -6.48000
C        -13.22470        4.27790       -7.58160
C        -14.52780        4.08460       -7.97390
C        -15.39150        3.19420       -7.32270
C        -15.03230        2.43870       -6.23160
C        -13.71130        2.62500       -5.81500
C        -12.97670        2.01520       -4.71200
C        -13.52480        1.28460       -3.68670
C        -12.81910        0.88660       -2.53300
N        -12.31450        0.57700       -1.54790
C        -14.88150        0.91280       -3.61280
N        -15.97200        0.57040       -3.49970
C        -16.53800        3.49820       -8.25480
C        -17.64410        4.42550       -7.70890
C        -18.34680        4.92040       -8.95240
C        -17.53030        5.76640       -9.56750
C        -16.26200        5.85750       -8.74990
C        -16.84280        5.68100       -7.34110
C        -15.57620        4.49390       -8.97900
H          7.84020       -6.03530        5.87570
H         12.42880       -8.44480        5.06750
H         13.16980       -3.68690        3.48600
H         15.44830       -5.80820        2.04370
H         16.66350       -4.44010        3.97950
H         18.44770       -5.95680        2.78530
H         18.09540       -8.45630        3.61370
H         16.09670       -8.47900        5.31850
H         17.10440       -6.12170        5.97590
H         15.34680       -5.93910        5.77770
H         15.10290       -8.25890        2.85660
H          8.49560       -3.17830        3.32120
H          6.60710       -1.76760       -0.18830
H          8.51770       -0.85590       -1.45820
H         10.34510        0.30950       -0.26690
H          8.91790        2.00440        3.48130
H         10.42890        2.91810        3.64390
H          9.64460        0.45240        5.28160
H          9.86100        2.10050        5.86420
H         11.25390        1.17430        5.28930
H          8.35360       -0.38130        3.45290
H          2.34680       -0.87260        5.39800
H          0.39650       -1.48910        6.77180
H         -0.20210       -3.82990        7.10600
H         -1.22940       -5.70480        6.28710
H         -0.46300       -6.02790        7.87200
H         -0.40030       -8.46500        7.32760
H         -2.05930       -7.85370        7.27470
H         -1.17160       -8.14230        5.77340
H          3.09180       -5.01750        4.64910
H          1.68650       -1.17970        3.02740
H          1.74690       -0.18930       -2.65160
H          1.39690       -0.07510       -5.06120
H          0.61650        0.92470       -8.49060
H          1.43300       -0.19710       -7.38250
H          0.00790        0.74280       -6.82940
H          3.06690        3.86280       -5.11470
H          3.40960        3.74670       -2.67550
H          2.85220        2.99510        1.23650
H          4.90530        3.81310        2.31910
H          9.12000        2.51620        0.22970
H          8.78040        4.15110       -0.43330
H          9.84960        3.95290        0.97400
H          7.20400        2.46020       -1.02550
H          5.17420        1.64980       -2.09340
H         -3.52000        3.20920        0.37790
H         -5.73290        4.23040        0.03280
H        -10.51400        2.40370       -0.31840
H         -9.56480        1.56520        0.92770
H         -9.40940        1.10670       -0.79920
H         -7.55170        0.37390        0.34230
H         -5.35760       -0.63580        0.65220
H         -1.87600       -1.65960       -0.32510
H         -1.33750       -3.59030        1.06280
H         -0.20180       -5.78820        3.72990
H          0.22230       -4.40270        2.70500
H         -1.06530       -5.54920        2.19740
H         -3.20990       -1.70100        4.41270
H         -3.75200        0.25130        3.00210
H         -3.11110        5.10680       -3.69030
H         -1.70650        4.10480       -3.34090
H         -1.99410        5.99240       -1.72440
H         -3.54230        5.30960       -1.21460
H         -2.03890        4.42850       -0.91830
H         -6.34320        4.99140       -2.30100
H         -5.10630        5.78480       -3.27410
H         -6.88620        6.56390       -4.86740
H         -8.10480        5.81040       -3.83300
H         -7.12820        7.13680       -3.22090
H         -5.56550        3.18630       -6.08940
H         -6.51010        4.66880       -6.06010
H         -4.36210        5.10910       -7.08450
H         -3.48530        4.43110       -5.71940
H         -4.38350        5.95040       -5.54100
H         -8.94430        4.05450       -4.86630
H        -10.84310        0.84520       -3.67510
H        -12.52620        4.94650       -8.06020
H        -15.70200        1.74950       -5.74460
H        -16.93020        2.65200       -8.81600
H        -18.26760        3.98420       -6.93620
H        -19.31050        4.57270       -9.27560
H        -17.67580        6.26650      -10.50710
H        -15.62760        6.72220       -8.92600
H        -16.09300        5.51810       -6.56910
H        -17.48670        6.51080       -7.05420
H        -15.32880        4.31240      -10.02350
