
  xtb     02052208173D
 energy: -301.808309795477 gnorm: 0.000955168258 xtb: 6.4.1 (unknown)
174194  0     0  0            999 V2000
   -4.6645    2.3314   -7.3194 C   0  0  0  0  0  0  0  0  0  0  0  0
   -5.8372    1.6706   -7.2093 C   0  0  0  0  0  0  0  0  0  0  0  0
   -6.1652    0.8365   -6.0284 C   0  0  0  0  0  0  0  0  0  0  0  0
   -5.4714    0.6616   -5.0462 O   0  0  0  0  0  0  0  0  0  0  0  0
   -7.4946    0.2678   -6.2991 C   0  0  0  0  0  0  0  0  0  0  0  0
   -8.2040   -0.6219   -5.4943 C   0  0  0  0  0  0  0  0  0  0  0  0
   -9.4240   -0.9904   -6.0059 C   0  0  0  0  0  0  0  0  0  0  0  0
   -9.9052   -0.5126   -7.2332 C   0  0  0  0  0  0  0  0  0  0  0  0
   -9.2160    0.3611   -8.0388 C   0  0  0  0  0  0  0  0  0  0  0  0
   -7.9718    0.7549   -7.5351 C   0  0  0  0  0  0  0  0  0  0  0  0
   -6.9743    1.6502   -8.1131 C   0  0  0  0  0  0  0  0  0  0  0  0
   -7.0873    2.3395   -9.2879 C   0  0  0  0  0  0  0  0  0  0  0  0
   -8.2222    2.3139  -10.1258 C   0  0  0  0  0  0  0  0  0  0  0  0
   -9.1126    2.3396  -10.8499 N   0  0  0  0  0  0  0  0  0  0  0  0
   -6.0842    3.1733   -9.8283 C   0  0  0  0  0  0  0  0  0  0  0  0
   -5.3115    3.8482  -10.3426 N   0  0  0  0  0  0  0  0  0  0  0  0
  -11.1927   -1.2895   -7.1208 C   0  0  0  0  0  0  0  0  0  0  0  0
  -12.4687   -0.5134   -6.7108 C   0  0  0  0  0  0  0  0  0  0  0  0
  -12.0073    0.6746   -5.9035 C   0  0  0  0  0  0  0  0  0  0  0  0
  -11.5526    0.2231   -4.7422 C   0  0  0  0  0  0  0  0  0  0  0  0
  -11.6978   -1.2787   -4.7434 C   0  0  0  0  0  0  0  0  0  0  0  0
  -12.9765   -1.4264   -5.5833 C   0  0  0  0  0  0  0  0  0  0  0  0
  -10.6571   -1.8212   -5.7541 C   0  0  0  0  0  0  0  0  0  0  0  0
   -3.5848    2.1393   -6.3468 C   0  0  0  0  0  0  0  0  0  0  0  0
   -2.8145    0.9758   -6.3594 C   0  0  0  0  0  0  0  0  0  0  0  0
   -3.2333   -0.2695   -7.5585 S   0  0  0  0  0  0  0  0  0  0  0  0
   -3.7771   -1.6406   -6.4555 C   0  0  0  0  0  0  0  0  0  0  0  0
   -3.0185   -2.9268   -6.7084 C   0  0  0  0  0  0  0  0  0  0  0  0
   -1.7878    0.8111   -5.4280 C   0  0  0  0  0  0  0  0  0  0  0  0
   -0.6905   -0.5707   -5.4343 S   0  0  0  0  0  0  0  0  0  0  0  0
   -0.0440   -0.5714   -7.1531 C   0  0  0  0  0  0  0  0  0  0  0  0
    0.2957    0.8168   -7.6499 C   0  0  0  0  0  0  0  0  0  0  0  0
   -1.6036    1.7688   -4.4177 C   0  0  0  0  0  0  0  0  0  0  0  0
   -2.3577    2.9417   -4.4079 C   0  0  0  0  0  0  0  0  0  0  0  0
   -3.3449    3.1272   -5.3887 C   0  0  0  0  0  0  0  0  0  0  0  0
   -4.2324    4.2939   -5.4454 C   0  0  0  0  0  0  0  0  0  0  0  0
   -5.0961    4.3881   -6.3061 O   0  0  0  0  0  0  0  0  0  0  0  0
   -4.0016    5.2895   -4.4070 C   0  0  0  0  0  0  0  0  0  0  0  0
   -2.9672    5.1383   -3.4346 C   0  0  0  0  0  0  0  0  0  0  0  0
   -2.0584    3.9886   -3.4024 C   0  0  0  0  0  0  0  0  0  0  0  0
   -1.1242    3.9118   -2.6285 O   0  0  0  0  0  0  0  0  0  0  0  0
   -2.9272    6.1900   -2.5635 C   0  0  0  0  0  0  0  0  0  0  0  0
   -4.1314    7.3593   -2.9051 S   0  0  0  0  0  0  0  0  0  0  0  0
   -4.7059    6.4491   -4.2358 C   0  0  0  0  0  0  0  0  0  0  0  0
   -0.6253    1.5030   -3.3659 C   0  0  0  0  0  0  0  0  0  0  0  0
    0.6426    1.4650   -3.5129 N   0  0  0  0  0  0  0  0  0  0  0  0
    1.2967    1.1226   -2.3744 C   0  0  0  0  0  0  0  0  0  0  0  0
    2.6980    1.0222   -2.2963 C   0  0  0  0  0  0  0  0  0  0  0  0
    3.5115    1.2882   -3.4495 C   0  0  0  0  0  0  0  0  0  0  0  0
    4.8784    1.3643   -3.5546 C   0  0  0  0  0  0  0  0  0  0  0  0
    5.3252    1.6243   -4.8604 C   0  0  0  0  0  0  0  0  0  0  0  0
    4.3101    1.7488   -5.7620 C   0  0  0  0  0  0  0  0  0  0  0  0
    4.4071    1.9681   -7.2326 C   0  0  0  0  0  0  0  0  0  0  0  0
    4.3355    0.6384   -7.9877 C   0  0  0  0  0  0  0  0  0  0  0  0
    2.7682    1.5576   -4.9981 S   0  0  0  0  0  0  0  0  0  0  0  0
    3.1843    0.6287   -1.0480 C   0  0  0  0  0  0  0  0  0  0  0  0
    2.3345    0.3927    0.0625 C   0  0  0  0  0  0  0  0  0  0  0  0
    0.9338    0.5354   -0.0108 C   0  0  0  0  0  0  0  0  0  0  0  0
    0.1230    0.3420    1.1610 C   0  0  0  0  0  0  0  0  0  0  0  0
    0.4969    0.4917    2.4717 C   0  0  0  0  0  0  0  0  0  0  0  0
   -0.5433    0.2313    3.3806 C   0  0  0  0  0  0  0  0  0  0  0  0
   -1.7140   -0.1231    2.7796 C   0  0  0  0  0  0  0  0  0  0  0  0
   -3.0035   -0.5048    3.4199 C   0  0  0  0  0  0  0  0  0  0  0  0
   -3.3091   -1.9912    3.2251 C   0  0  0  0  0  0  0  0  0  0  0  0
   -1.5505   -0.1296    1.0527 S   0  0  0  0  0  0  0  0  0  0  0  0
    0.4480    0.8684   -1.2702 C   0  0  0  0  0  0  0  0  0  0  0  0
   -1.2075    1.0703   -1.7556 S   0  0  0  0  0  0  0  0  0  0  0  0
    2.9712   -0.0383    1.1702 N   0  0  0  0  0  0  0  0  0  0  0  0
    4.2454   -0.1468    1.0124 C   0  0  0  0  0  0  0  0  0  0  0  0
    4.8270    0.3233   -0.5690 S   0  0  0  0  0  0  0  0  0  0  0  0
    5.0301   -0.6445    2.1169 C   0  0  0  0  0  0  0  0  0  0  0  0
    6.3126   -0.2082    2.4629 C   0  0  0  0  0  0  0  0  0  0  0  0
    7.1784    0.8790    1.3514 S   0  0  0  0  0  0  0  0  0  0  0  0
    8.5000   -0.2089    0.6943 C   0  0  0  0  0  0  0  0  0  0  0  0
    7.9594   -1.5045    0.1254 C   0  0  0  0  0  0  0  0  0  0  0  0
    6.8143   -0.5090    3.7268 C   0  0  0  0  0  0  0  0  0  0  0  0
    8.4740   -0.0223    4.1665 S   0  0  0  0  0  0  0  0  0  0  0  0
    9.3108   -1.6483    3.9232 C   0  0  0  0  0  0  0  0  0  0  0  0
    9.1063   -2.6518    5.0401 C   0  0  0  0  0  0  0  0  0  0  0  0
    5.9959   -1.1121    4.6924 C   0  0  0  0  0  0  0  0  0  0  0  0
    4.8050   -1.7382    4.2697 C   0  0  0  0  0  0  0  0  0  0  0  0
    4.3597   -1.5437    2.9649 C   0  0  0  0  0  0  0  0  0  0  0  0
    3.1672   -2.2812    2.4495 C   0  0  0  0  0  0  0  0  0  0  0  0
    3.1014   -2.7616    1.3414 O   0  0  0  0  0  0  0  0  0  0  0  0
    2.1638   -2.4902    3.5026 C   0  0  0  0  0  0  0  0  0  0  0  0
    2.5981   -2.6602    4.8517 C   0  0  0  0  0  0  0  0  0  0  0  0
    4.0213   -2.5936    5.2039 C   0  0  0  0  0  0  0  0  0  0  0  0
    4.5057   -3.1798    6.1518 O   0  0  0  0  0  0  0  0  0  0  0  0
    1.5620   -2.9505    5.6931 C   0  0  0  0  0  0  0  0  0  0  0  0
    0.0597   -2.9668    4.8726 S   0  0  0  0  0  0  0  0  0  0  0  0
    0.8204   -2.6573    3.3650 C   0  0  0  0  0  0  0  0  0  0  0  0
    6.3540   -0.9981    6.0922 C   0  0  0  0  0  0  0  0  0  0  0  0
    5.5317   -0.7365    7.1253 C   0  0  0  0  0  0  0  0  0  0  0  0
    6.0234   -0.9681    8.5169 C   0  0  0  0  0  0  0  0  0  0  0  0
    7.1736   -1.0025    8.8803 O   0  0  0  0  0  0  0  0  0  0  0  0
    4.8055   -1.2180    9.3082 C   0  0  0  0  0  0  0  0  0  0  0  0
    4.7401   -1.6533   10.6309 C   0  0  0  0  0  0  0  0  0  0  0  0
    3.4616   -1.8427   11.0963 C   0  0  0  0  0  0  0  0  0  0  0  0
    2.3240   -1.6249   10.3047 C   0  0  0  0  0  0  0  0  0  0  0  0
    2.3709   -1.1943    9.0016 C   0  0  0  0  0  0  0  0  0  0  0  0
    3.6642   -0.9882    8.5085 C   0  0  0  0  0  0  0  0  0  0  0  0
    4.0946   -0.5187    7.1996 C   0  0  0  0  0  0  0  0  0  0  0  0
    3.3234    0.1439    6.2854 C   0  0  0  0  0  0  0  0  0  0  0  0
    1.9279    0.2979    6.3964 C   0  0  0  0  0  0  0  0  0  0  0  0
    0.7854    0.4134    6.4175 N   0  0  0  0  0  0  0  0  0  0  0  0
    3.8411    0.8034    5.1490 C   0  0  0  0  0  0  0  0  0  0  0  0
    4.2014    1.4153    4.2478 N   0  0  0  0  0  0  0  0  0  0  0  0
    1.3795   -2.0157   11.4135 C   0  0  0  0  0  0  0  0  0  0  0  0
    0.6636   -0.8607   12.1457 C   0  0  0  0  0  0  0  0  0  0  0  0
    0.2073   -1.4846   13.4449 C   0  0  0  0  0  0  0  0  0  0  0  0
    1.2830   -1.6867   14.1950 C   0  0  0  0  0  0  0  0  0  0  0  0
    2.4846   -1.2030   13.4156 C   0  0  0  0  0  0  0  0  0  0  0  0
    1.8505   -0.0320   12.6537 C   0  0  0  0  0  0  0  0  0  0  0  0
    2.6464   -2.2541   12.2966 C   0  0  0  0  0  0  0  0  0  0  0  0
   -4.4314    2.9349   -8.1861 H   0  0  0  0  0  0  0  0  0  0  0  0
   -7.7941   -0.9675   -4.5578 H   0  0  0  0  0  0  0  0  0  0  0  0
   -9.5978    0.7150   -8.9818 H   0  0  0  0  0  0  0  0  0  0  0  0
  -11.3833   -2.0131   -7.9108 H   0  0  0  0  0  0  0  0  0  0  0  0
  -13.1503   -0.3015   -7.5300 H   0  0  0  0  0  0  0  0  0  0  0  0
  -12.0059    1.6840   -6.2712 H   0  0  0  0  0  0  0  0  0  0  0  0
  -11.0947    0.7799   -3.9457 H   0  0  0  0  0  0  0  0  0  0  0  0
  -11.6784   -1.7640   -3.7710 H   0  0  0  0  0  0  0  0  0  0  0  0
  -13.1682   -2.4489   -5.9059 H   0  0  0  0  0  0  0  0  0  0  0  0
  -13.8573   -1.0273   -5.0828 H   0  0  0  0  0  0  0  0  0  0  0  0
  -10.4979   -2.8929   -5.6509 H   0  0  0  0  0  0  0  0  0  0  0  0
   -4.8396   -1.7675   -6.6680 H   0  0  0  0  0  0  0  0  0  0  0  0
   -3.6597   -1.2867   -5.4337 H   0  0  0  0  0  0  0  0  0  0  0  0
   -1.9751   -2.8255   -6.4228 H   0  0  0  0  0  0  0  0  0  0  0  0
   -3.4611   -3.7255   -6.1165 H   0  0  0  0  0  0  0  0  0  0  0  0
   -3.0734   -3.2027   -7.7593 H   0  0  0  0  0  0  0  0  0  0  0  0
   -0.7608   -1.0655   -7.8073 H   0  0  0  0  0  0  0  0  0  0  0  0
    0.8498   -1.1881   -7.0600 H   0  0  0  0  0  0  0  0  0  0  0  0
   -0.6080    1.3921   -7.8421 H   0  0  0  0  0  0  0  0  0  0  0  0
    0.8509    0.7380   -8.5824 H   0  0  0  0  0  0  0  0  0  0  0  0
    0.9027    1.3478   -6.9200 H   0  0  0  0  0  0  0  0  0  0  0  0
   -2.2508    6.3233   -1.7424 H   0  0  0  0  0  0  0  0  0  0  0  0
   -5.5260    6.8015   -4.8297 H   0  0  0  0  0  0  0  0  0  0  0  0
    5.5488    1.2555   -2.7220 H   0  0  0  0  0  0  0  0  0  0  0  0
    6.3651    1.7197   -5.1201 H   0  0  0  0  0  0  0  0  0  0  0  0
    3.5886    2.6117   -7.5617 H   0  0  0  0  0  0  0  0  0  0  0  0
    5.3517    2.4665   -7.4612 H   0  0  0  0  0  0  0  0  0  0  0  0
    4.3871    0.8087   -9.0603 H   0  0  0  0  0  0  0  0  0  0  0  0
    3.4035    0.1277   -7.7582 H   0  0  0  0  0  0  0  0  0  0  0  0
    5.1621   -0.0055   -7.6966 H   0  0  0  0  0  0  0  0  0  0  0  0
    1.4848    0.7971    2.7632 H   0  0  0  0  0  0  0  0  0  0  0  0
   -0.4289    0.3141    4.4474 H   0  0  0  0  0  0  0  0  0  0  0  0
   -3.8160    0.0844    2.9872 H   0  0  0  0  0  0  0  0  0  0  0  0
   -2.9424   -0.2769    4.4857 H   0  0  0  0  0  0  0  0  0  0  0  0
   -4.2617   -2.2432    3.6842 H   0  0  0  0  0  0  0  0  0  0  0  0
   -3.3602   -2.2274    2.1647 H   0  0  0  0  0  0  0  0  0  0  0  0
   -2.5324   -2.6009    3.6822 H   0  0  0  0  0  0  0  0  0  0  0  0
    9.2319   -0.3722    1.4827 H   0  0  0  0  0  0  0  0  0  0  0  0
    8.9531    0.4020   -0.0854 H   0  0  0  0  0  0  0  0  0  0  0  0
    7.2297   -1.3020   -0.6549 H   0  0  0  0  0  0  0  0  0  0  0  0
    7.4749   -2.1025    0.8964 H   0  0  0  0  0  0  0  0  0  0  0  0
    8.7745   -2.0862   -0.3014 H   0  0  0  0  0  0  0  0  0  0  0  0
    8.9685   -2.0539    2.9717 H   0  0  0  0  0  0  0  0  0  0  0  0
   10.3623   -1.3741    3.8407 H   0  0  0  0  0  0  0  0  0  0  0  0
    8.0691   -2.9759    5.0973 H   0  0  0  0  0  0  0  0  0  0  0  0
    9.7223   -3.5281    4.8449 H   0  0  0  0  0  0  0  0  0  0  0  0
    9.4048   -2.2336    5.9987 H   0  0  0  0  0  0  0  0  0  0  0  0
    1.6121   -3.1370    6.7479 H   0  0  0  0  0  0  0  0  0  0  0  0
    0.2416   -2.5908    2.4660 H   0  0  0  0  0  0  0  0  0  0  0  0
    7.4002   -1.0945    6.3526 H   0  0  0  0  0  0  0  0  0  0  0  0
    5.6385   -1.8177   11.2045 H   0  0  0  0  0  0  0  0  0  0  0  0
    1.4906   -1.0360    8.4001 H   0  0  0  0  0  0  0  0  0  0  0  0
    0.7237   -2.8586   11.2041 H   0  0  0  0  0  0  0  0  0  0  0  0
   -0.0913   -0.3472   11.5566 H   0  0  0  0  0  0  0  0  0  0  0  0
   -0.8105   -1.7558   13.6553 H   0  0  0  0  0  0  0  0  0  0  0  0
    1.3432   -2.1606   15.1571 H   0  0  0  0  0  0  0  0  0  0  0  0
    3.3880   -1.0011   13.9844 H   0  0  0  0  0  0  0  0  0  0  0  0
    2.4780    0.3765   11.8637 H   0  0  0  0  0  0  0  0  0  0  0  0
    1.5366    0.7698   13.3199 H   0  0  0  0  0  0  0  0  0  0  0  0
    2.8363   -3.2556   12.6777 H   0  0  0  0  0  0  0  0  0  0  0  0
  1  2  2  0  0  0  0
  2  3  1  0  0  0  0
  3  4  2  0  0  0  0
  3  5  1  0  0  0  0
  5  6  2  0  0  0  0
  6  7  1  0  0  0  0
  7  8  2  0  0  0  0
  8  9  1  0  0  0  0
  9 10  2  0  0  0  0
 10 11  1  0  0  0  0
 11 12  2  0  0  0  0
 12 13  1  0  0  0  0
 13 14  3  0  0  0  0
 12 15  1  0  0  0  0
 15 16  3  0  0  0  0
  8 17  1  0  0  0  0
 17 18  1  0  0  0  0
 18 19  1  0  0  0  0
 19 20  2  0  0  0  0
 20 21  1  0  0  0  0
 21 22  1  0  0  0  0
 21 23  1  0  0  0  0
  1 24  1  0  0  0  0
 24 25  2  0  0  0  0
 25 26  1  0  0  0  0
 26 27  1  0  0  0  0
 27 28  1  0  0  0  0
 25 29  1  0  0  0  0
 29 30  1  0  0  0  0
 30 31  1  0  0  0  0
 31 32  1  0  0  0  0
 29 33  2  0  0  0  0
 33 34  1  0  0  0  0
 34 35  2  0  0  0  0
 35 36  1  0  0  0  0
 36 37  2  0  0  0  0
 36 38  1  0  0  0  0
 38 39  1  0  0  0  0
 39 40  1  0  0  0  0
 40 41  2  0  0  0  0
 39 42  2  0  0  0  0
 42 43  1  0  0  0  0
 43 44  1  0  0  0  0
 33 45  1  0  0  0  0
 45 46  2  0  0  0  0
 46 47  1  0  0  0  0
 47 48  2  0  0  0  0
 48 49  1  0  0  0  0
 49 50  2  0  0  0  0
 50 51  1  0  0  0  0
 51 52  2  0  0  0  0
 52 53  1  0  0  0  0
 53 54  1  0  0  0  0
 52 55  1  0  0  0  0
 48 56  1  0  0  0  0
 56 57  2  0  0  0  0
 57 58  1  0  0  0  0
 58 59  1  0  0  0  0
 59 60  2  0  0  0  0
 60 61  1  0  0  0  0
 61 62  2  0  0  0  0
 62 63  1  0  0  0  0
 63 64  1  0  0  0  0
 62 65  1  0  0  0  0
 58 66  2  0  0  0  0
 66 67  1  0  0  0  0
 57 68  1  0  0  0  0
 68 69  2  0  0  0  0
 69 70  1  0  0  0  0
 69 71  1  0  0  0  0
 71 72  2  0  0  0  0
 72 73  1  0  0  0  0
 73 74  1  0  0  0  0
 74 75  1  0  0  0  0
 72 76  1  0  0  0  0
 76 77  1  0  0  0  0
 77 78  1  0  0  0  0
 78 79  1  0  0  0  0
 76 80  2  0  0  0  0
 80 81  1  0  0  0  0
 81 82  2  0  0  0  0
 82 83  1  0  0  0  0
 83 84  2  0  0  0  0
 83 85  1  0  0  0  0
 85 86  1  0  0  0  0
 86 87  1  0  0  0  0
 87 88  2  0  0  0  0
 86 89  2  0  0  0  0
 89 90  1  0  0  0  0
 90 91  1  0  0  0  0
 80 92  1  0  0  0  0
 92 93  2  0  0  0  0
 93 94  1  0  0  0  0
 94 95  2  0  0  0  0
 94 96  1  0  0  0  0
 96 97  2  0  0  0  0
 97 98  1  0  0  0  0
 98 99  2  0  0  0  0
 99100  1  0  0  0  0
100101  2  0  0  0  0
101102  1  0  0  0  0
102103  2  0  0  0  0
103104  1  0  0  0  0
104105  3  0  0  0  0
103106  1  0  0  0  0
106107  3  0  0  0  0
 99108  1  0  0  0  0
108109  1  0  0  0  0
109110  1  0  0  0  0
110111  2  0  0  0  0
111112  1  0  0  0  0
112113  1  0  0  0  0
112114  1  0  0  0  0
 11  2  1  0  0  0  0
 23 17  1  0  0  0  0
 35 24  1  0  0  0  0
 44 38  2  0  0  0  0
 67 45  1  0  0  0  0
 82 71  1  0  0  0  0
 91 85  2  0  0  0  0
102 93  1  0  0  0  0
114108  1  0  0  0  0
 10  5  1  0  0  0  0
 22 18  1  0  0  0  0
 40 34  1  0  0  0  0
 66 47  1  0  0  0  0
 87 81  1  0  0  0  0
101 96  1  0  0  0  0
113109  1  0  0  0  0
 23  7  1  0  0  0  0
 55 49  1  0  0  0  0
 70 56  1  0  0  0  0
114 98  1  0  0  0  0
 65 59  1  0  0  0  0
  1115  1  0  0  0  0
  6116  1  0  0  0  0
  9117  1  0  0  0  0
 17118  1  0  0  0  0
 18119  1  0  0  0  0
 19120  1  0  0  0  0
 20121  1  0  0  0  0
 21122  1  0  0  0  0
 22123  1  0  0  0  0
 22124  1  0  0  0  0
 23125  1  0  0  0  0
 27126  1  0  0  0  0
 27127  1  0  0  0  0
 28128  1  0  0  0  0
 28129  1  0  0  0  0
 28130  1  0  0  0  0
 31131  1  0  0  0  0
 31132  1  0  0  0  0
 32133  1  0  0  0  0
 32134  1  0  0  0  0
 32135  1  0  0  0  0
 42136  1  0  0  0  0
 44137  1  0  0  0  0
 50138  1  0  0  0  0
 51139  1  0  0  0  0
 53140  1  0  0  0  0
 53141  1  0  0  0  0
 54142  1  0  0  0  0
 54143  1  0  0  0  0
 54144  1  0  0  0  0
 60145  1  0  0  0  0
 61146  1  0  0  0  0
 63147  1  0  0  0  0
 63148  1  0  0  0  0
 64149  1  0  0  0  0
 64150  1  0  0  0  0
 64151  1  0  0  0  0
 74152  1  0  0  0  0
 74153  1  0  0  0  0
 75154  1  0  0  0  0
 75155  1  0  0  0  0
 75156  1  0  0  0  0
 78157  1  0  0  0  0
 78158  1  0  0  0  0
 79159  1  0  0  0  0
 79160  1  0  0  0  0
 79161  1  0  0  0  0
 89162  1  0  0  0  0
 91163  1  0  0  0  0
 92164  1  0  0  0  0
 97165  1  0  0  0  0
100166  1  0  0  0  0
108167  1  0  0  0  0
109168  1  0  0  0  0
110169  1  0  0  0  0
111170  1  0  0  0  0
112171  1  0  0  0  0
113172  1  0  0  0  0
113173  1  0  0  0  0
114174  1  0  0  0  0
M  END
