181

C         -2.69610        6.49130        0.67690
C         -3.93550        7.06020        0.75250
C         -5.15290        6.76420       -0.04020
O         -5.29080        5.97380       -0.95260
C         -6.19910        7.67350        0.46180
C         -7.52160        7.73300        0.02570
C         -8.28410        8.66890        0.68060
C         -7.76710        9.48760        1.69410
C         -6.46480        9.44080        2.12960
C         -5.66900        8.49370        1.47520
C         -4.25870        8.15800        1.65510
C         -3.42400        8.76510        2.55800
C         -2.05230        8.50210        2.74830
N         -0.92690        8.38920        2.95620
C         -3.81680        9.78640        3.44930
N         -4.05890       10.60980        4.21230
C         -9.08200       10.19660        1.90250
C         -9.20560       11.61040        1.29640
C        -10.69730       11.84670        1.23150
C        -11.18720       11.07160        0.27230
C        -10.03480       10.29860       -0.32750
C         -8.91680       11.33960       -0.18580
C         -9.65840        9.28380        0.77280
C         -2.22430        5.27830        0.08380
C         -3.08910        4.21400       -0.24240
C         -2.63250        2.95270       -0.52270
C         -1.27000        2.63710       -0.43330
C         -0.38410        3.67790       -0.16480
C          1.06440        3.69570       -0.05780
C          1.84220        2.61460        0.20320
C          3.25420        2.40730        0.13780
C          4.28360        3.30890       -0.26960
C          5.49560        2.71900       -0.33450
S          5.44190        1.04300        0.09160
C          3.76580        1.14680        0.36880
C          1.43290        5.12390       -0.06190
O          2.52210        5.65550       -0.09470
N          0.24670        5.84260        0.05850
C          0.30790        7.28890        0.03310
C         -0.44960        7.89070       -1.14420
C         -0.84330        5.00380       -0.00390
C         -0.82710        1.26000       -0.59180
C         -1.20160        0.17050        0.16840
N         -2.13120        0.17210        1.19630
C         -2.87870       -0.98700        1.44740
C         -3.29050       -1.82190        0.40800
C         -4.00410       -2.96770        0.67950
C         -4.33580       -3.30190        1.99060
S         -5.24530       -4.79870        2.21190
C         -5.55590       -4.86490        3.99910
C         -3.94580       -2.46330        3.02650
C         -3.22160       -1.31970        2.75500
C         -2.42690        1.34820        1.90340
C         -3.75090        1.71360        2.12790
C         -4.05980        2.91880        2.72660
C         -3.04380        3.78250        3.11080
S         -3.31320        5.38940        3.79190
C         -5.11940        5.57580        3.76940
C         -1.71610        3.39110        2.95200
C         -1.40980        2.18420        2.36470
C         -0.43270       -0.97360       -0.18110
S         -0.29730       -2.57240        0.46090
C          1.08060       -2.91350       -0.59760
C          1.42560       -1.80740       -1.37450
N          2.54860       -1.64840       -2.16070
C          2.46460       -0.75920       -3.24730
C          1.39370       -0.83890       -4.13170
C          1.28640        0.04380       -5.18910
C          2.25390        1.02150       -5.37620
S          2.22870        2.20590       -6.68100
C          0.67830        1.86110       -7.56060
C          3.33330        1.09740       -4.49510
C          3.44010        0.21890       -3.44260
C          3.80040       -2.16540       -1.80660
C          4.70660       -2.51460       -2.81190
C          5.91280       -3.08900       -2.49100
C          6.25190       -3.33870       -1.16030
S          7.79380       -4.13800       -0.88580
C          7.86090       -4.37150        0.91090
C          5.37110       -2.95960       -0.15550
C          4.16340       -2.37270       -0.47790
C          0.51080       -0.74250       -1.16420
S          0.40620        0.87020       -1.78490
C          1.66020       -4.20160       -0.49290
S          2.78090       -4.84710       -1.66460
C          3.02300       -6.24460       -0.68630
C          3.97900       -7.26750       -0.78970
C          3.96260       -8.23220        0.23000
Si         2.58580       -7.81180        1.45620
C          1.13400       -9.04850        1.43670
C          1.49460      -10.38290        2.08170
C          3.29850       -7.45880        3.18790
C          2.26890       -6.86270        4.14280
C          2.20550       -6.25710        0.44620
C          1.43680       -5.10850        0.53720
C          5.03240       -9.09380        0.13950
C          5.88540       -8.82790       -0.93580
S          5.28030       -7.47610       -1.88410
C          7.05640       -9.47680       -1.33290
C          7.84520      -10.35340       -0.62270
C          8.73770      -11.26540       -1.37030
O          8.99310      -11.22800       -2.55240
C          9.21000      -12.25400       -0.36890
C          8.72420      -11.89320        0.90140
C          9.00260      -12.68320        2.00330
C          9.76990      -13.82560        1.82340
C         10.25740      -14.17110        0.57350
Br        11.30460      -15.73470        0.39630
C          9.98410      -13.38670       -0.55350
Cl        10.58390      -13.81280       -2.09960
C          7.97760      -10.63800        0.77720
C          7.69900       -9.79950        1.83370
C          7.24520       -8.47520        1.70640
N          6.91610       -7.37410        1.68960
C          7.91220      -10.12970        3.18520
N          8.03080      -10.34550        4.30760
H         -1.93770        6.98830        1.26220
H         -7.87500        7.08000       -0.75710
H         -6.08830       10.08050        2.90950
H         -9.50830       10.12290        2.90120
H         -8.61010       12.37160        1.79280
H        -11.23250       12.49050        1.90440
H        -12.21350       10.93860       -0.01610
H        -10.19520        9.86560       -1.31130
H         -7.91940       10.94950       -0.38000
H         -9.09120       12.21730       -0.80580
H        -10.47000        8.60100        1.01780
H         -4.14890        4.39420       -0.25850
H         -3.33310        2.17420       -0.78270
H          1.31050        1.70810        0.46510
H          4.10030        4.34420       -0.48550
H          6.43550        3.15430       -0.60930
H          3.22250        0.27470        0.67610
H          1.37370        7.52100       -0.06280
H         -0.02930        7.70780        0.98600
H         -1.51740        7.69190       -1.08210
H         -0.29940        8.96680       -1.15290
H         -0.07730        7.47930       -2.08000
H         -3.05750       -1.56320       -0.61410
H         -4.32110       -3.61550       -0.12320
H         -6.12940       -3.99620        4.30890
H         -4.61610       -4.93270        4.53930
H         -6.13820       -5.76680        4.16010
H         -4.18940       -2.69130        4.05150
H         -2.91300       -0.67470        3.56440
H         -4.54610        1.05770        1.80560
H         -5.09640        3.17850        2.86510
H         -5.57860        4.83270        4.41450
H         -5.31910        6.56940        4.15970
H         -5.48990        5.49730        2.75050
H         -0.93010        4.04970        3.28860
H         -0.37820        1.88990        2.24710
H          0.64230       -1.60210       -3.98990
H          0.44650       -0.04670       -5.85840
H         -0.16420        1.97620       -6.88500
H          0.70790        0.86560       -7.99380
H          0.62120        2.60340       -8.35070
H          4.07920        1.86250       -4.64480
H          4.27240        0.28670       -2.75830
H          4.44140       -2.35340       -3.84550
H          6.60350       -3.37550       -3.26850
H          8.81890       -4.84390        1.10480
H          7.06250       -5.03460        1.22880
H          7.81810       -3.40930        1.41260
H          5.60750       -3.12320        0.88300
H          3.48400       -2.10010        0.31610
H          0.28410       -8.61450        1.96400
H          0.80590       -9.22340        0.41100
H          1.78520      -10.24350        3.11980
H          0.64630      -11.06410        2.05530
H          2.32320      -10.85120        1.55630
H          3.68370       -8.38690        3.61160
H          4.15170       -6.78400        3.10580
H          1.89340       -5.91700        3.76010
H          1.42570       -7.53710        4.27030
H          2.71180       -6.68410        5.12060
H          0.75660       -4.89450        1.34290
H          5.18900       -9.92490        0.80440
H          7.36460       -9.33080       -2.36360
H          8.63320      -12.43960        2.98560
H          9.99560      -14.45890        2.66740
