225

C          1.52570       -8.67210       -5.22770
C          1.44420       -8.25100       -6.51410
C          1.48610       -9.22790       -7.63850
O          1.35580      -10.42750       -7.55810
C          1.77190       -8.42340       -8.84220
C          1.99990       -8.89130      -10.13480
C          2.24770       -7.90100      -11.05480
C          2.28980       -6.54130      -10.71470
C          2.06600       -6.06340       -9.44630
C          1.78750       -7.05370       -8.50050
C          1.42200       -6.92150       -7.09440
C          0.89840       -5.79420       -6.51950
C          0.26210       -5.77050       -5.26000
N         -0.32630       -5.68240       -4.27780
C          0.86100       -4.52950       -7.14050
N          0.83790       -3.46530       -7.57130
C          2.58700       -6.11410      -12.12950
C          1.42390       -5.50550      -12.95120
C          0.15010       -6.07300      -12.37470
C          0.09800       -7.35850      -12.69710
C          1.33530       -7.68350      -13.49720
C          1.54100       -6.34850      -14.23090
C          2.52890       -7.62700      -12.51080
C          1.83250       -7.87100       -4.09210
C          2.62350       -6.75390       -4.03320
C          2.67990       -6.16460       -2.75260
C          3.34770       -4.98560       -2.37300
C          3.92150       -4.03800       -3.33740
C          3.15980       -3.64710       -4.43700
C          3.59390       -2.62600       -5.26160
C          4.78520       -1.97770       -4.99710
C          5.55110       -2.36030       -3.90160
S          7.02250       -1.42700       -3.57500
C          8.15650       -2.65230       -2.83160
C          8.48340       -3.77880       -3.79100
C          5.12470       -3.38980       -3.07790
C          3.23230       -4.61690       -1.04430
C          2.37100       -5.26860       -0.12490
C          1.67150       -6.42330       -0.51490
C          0.66460       -7.00810        0.38060
C         -0.64150       -7.19370       -0.06710
C         -1.61850       -7.64490        0.80120
C         -1.31360       -7.90550        2.12490
C         -0.01640       -7.71350        2.57410
S          0.39390       -7.98410        4.28950
C         -0.62480       -6.65410        5.02830
C         -0.13830       -5.27860        4.61720
C          0.97380       -7.28410        1.70870
C          1.88470       -6.86950       -1.81030
S          1.15900       -8.27950       -2.52730
C          2.17600       -4.49260        1.04400
C          2.85420       -3.30580        1.03570
S          3.89210       -3.15280       -0.37060
C          2.55220       -2.14800        1.80210
C          3.01860       -0.86270        1.55900
N          4.17580       -0.58430        0.82960
C          4.06190        0.04670       -0.41580
C          5.08610        0.84710       -0.91300
C          5.02440        1.35260       -2.19600
C          3.92940        1.07400       -3.00210
S          3.79580        1.60540       -4.67960
C          5.51990        1.95650       -5.13260
C          2.86400        0.34650       -2.48020
C          2.92550       -0.15620       -1.20060
C          5.39420       -1.05940        1.32480
C          6.44670       -1.41390        0.47710
C          7.62970       -1.88420        0.99850
C          7.79640       -2.02980        2.37460
S          9.36210       -2.64510        2.91370
C          9.20270       -2.73110        4.71920
C          6.75170       -1.69140        3.22150
C          5.56730       -1.20880        2.69910
C          2.13680        0.10610        2.08580
S          2.05090        1.82970        1.99350
C          0.47490        1.79990        2.76440
C          0.08060        0.52890        3.13730
N         -1.10310        0.26350        3.79950
C         -1.61940        1.21530        4.69380
C         -2.97870        1.52080        4.68340
C         -3.48280        2.46150        5.55620
C         -2.64000        3.10290        6.45690
S         -3.34140        4.29480        7.56610
C         -2.42820        3.92630        9.09740
C         -1.28220        2.81150        6.46390
C         -0.77850        1.87060        5.59040
C         -1.74960       -0.96600        3.62320
C         -1.78090       -1.58350        2.37230
C         -2.34880       -2.83010        2.22650
C         -2.91660       -3.47920        3.31960
S         -3.55010       -5.10270        3.03500
C         -4.53020       -5.44930        4.52630
C         -2.93070       -2.84760        4.55650
C         -2.34970       -1.60390        4.70530
C          1.04460       -0.43260        2.75290
S          1.12270       -2.16010        2.82080
C         -0.38030        2.96080        2.73100
C         -0.26440        4.18070        3.31140
C         -1.30270        5.08110        2.94610
C         -1.48250        6.40590        3.36500
C         -0.61020        7.01740        4.38130
C          0.19140        8.11030        4.06900
C          1.00900        8.67200        5.03310
C          1.01380        8.16860        6.32230
C          0.19090        7.09920        6.63820
S          0.12160        6.50500        8.32130
C         -1.45050        7.30970        8.81330
C         -1.34860        8.82060        8.80580
C         -0.60540        6.50810        5.67440
C         -2.52110        7.11300        2.78400
C         -3.39230        6.55020        1.81120
C         -3.23590        5.20750        1.41560
C         -4.09460        4.59810        0.39280
C         -5.48160        4.66410        0.46960
C         -6.25060        4.07640       -0.52120
C         -5.65380        3.42120       -1.57910
C         -4.26340        3.34860       -1.66130
S         -3.59180        2.48890       -3.04680
C         -1.78000        2.52830       -2.76820
C         -1.08850        1.75380       -3.87410
C         -3.49020        3.94360       -0.67820
C         -2.19560        4.51050        2.00430
S         -1.79050        2.84750        1.68470
C         -4.32340        7.48480        1.32210
C         -4.22560        8.72390        1.90980
S         -2.92400        8.77250        3.10450
C         -4.92150        9.93010        1.68020
C         -6.03980       10.19330        0.93840
C         -6.97500        9.24480        0.29640
O         -6.84500        8.05710        0.10420
C         -8.17670       10.04590       -0.04040
C         -9.38860        9.60280       -0.54160
Cl        -9.62380        7.97730       -1.00110
C        -10.43500       10.52890       -0.65800
Cl       -11.94000       10.03770       -1.30280
C        -10.26430       11.83790       -0.20890
Cl       -11.58590       12.92130       -0.26810
C         -9.03370       12.27940        0.30340
Cl        -8.95100       13.84610        0.99560
C         -7.96530       11.39150        0.31930
C         -6.57330       11.53400        0.73160
C         -5.82300       12.67800        0.68830
C         -6.22900       13.91040        0.12990
N         -6.42350       14.91570       -0.38780
C         -4.45240       12.74760        1.02880
N         -3.34320       12.89540        1.28460
H          1.37410       -9.73270       -5.05870
H          1.96760       -9.94670      -10.35550
H          2.10640       -5.01670       -9.19320
H          3.52580       -5.58530      -12.28180
H          1.46280       -4.42470      -13.05650
H         -0.53160       -5.51190      -11.76280
H         -0.63680       -8.08700      -12.40830
H          1.29270       -8.58570      -14.10170
H          0.74990       -6.13650      -14.94830
H          2.51170       -6.26570      -14.71800
H          3.42650       -8.08640      -12.92010
H          3.18470       -6.38710       -4.87540
H          2.19900       -4.10860       -4.60680
H          2.98950       -2.32430       -6.10380
H          5.12260       -1.17010       -5.62700
H          9.04520       -2.06910       -2.59100
H          7.71590       -3.01950       -1.90550
H          9.19630       -4.46000       -3.33040
H          7.58580       -4.33810       -4.04940
H          8.91900       -3.38310       -4.70570
H          5.71330       -3.69860       -2.22750
H         -0.89500       -6.95390       -1.08850
H         -2.62940       -7.78170        0.44890
H         -2.07720       -8.25150        2.80450
H         -0.53290       -6.80440        6.10340
H         -1.65760       -6.81780        4.72340
H          0.92070       -5.16670        4.83930
H         -0.68810       -4.50590        5.15180
H         -0.29170       -5.12350        3.55050
H          1.98390       -7.16400        2.07090
H          1.48190       -4.75380        1.82230
H          5.94410        1.06560       -0.29560
H          5.84100        1.95600       -2.55720
H          5.53310        2.02990       -6.21570
H          5.83960        2.89990       -4.69940
H          6.15220        1.13720       -4.80150
H          2.00300        0.15070       -3.10100
H          2.10580       -0.74640       -0.81830
H          6.32420       -1.32210       -0.59050
H          8.44650       -2.15260        0.34560
H          9.03900       -1.73740        5.12620
H          8.39710       -3.40780        4.98880
H         10.14930       -3.12400        5.07710
H          6.84430       -1.78850        4.29110
H          4.76620       -0.93880        3.37170
H         -3.63060        1.01730        3.98510
H         -4.53340        2.70740        5.54770
H         -2.99430        4.38500        9.90170
H         -2.39110        2.85010        9.23290
H         -1.42890        4.35040        9.05940
H         -0.61510        3.31250        7.14830
H          0.27660        1.64030        5.59910
H         -1.36350       -1.07740        1.51480
H         -2.35900       -3.31540        1.26260
H         -5.05350       -6.37870        4.32400
H         -3.88120       -5.57380        5.38890
H         -5.24740       -4.64990        4.68590
H         -3.37360       -3.32040        5.41850
H         -2.34600       -1.12660        5.67430
H          0.53320        4.44290        3.98330
H          0.18190        8.50790        3.06510
H          1.63900        9.51190        4.78210
H          1.64130        8.60330        7.08530
H         -1.64480        6.93480        9.81750
H         -2.22750        6.95490        8.13590
H         -2.28440        9.25160        9.15630
H         -1.15440        9.18980        7.80010
H         -0.54540        9.15200        9.46080
H         -1.23960        5.67090        5.92520
H         -5.95390        5.15440        1.30660
H         -7.32700        4.13150       -0.46470
H         -6.24930        2.96030       -2.35210
H         -1.58330        2.08000       -1.79370
H         -1.46450        3.57210       -2.77380
H         -0.01000        1.79760       -3.73500
H         -1.40280        0.71280       -3.86700
H         -1.33020        2.17900       -4.84520
H         -2.41440        3.93680       -0.73970
H         -5.03340        7.25970        0.54910
H         -4.49600       10.77410        2.21140
