156

C         -4.28990        4.10230        4.79880
C         -3.40360        4.62140        5.68210
C         -3.86900        5.41220        6.85630
O         -4.99640        5.46520        7.29160
C         -2.67750        6.14570        7.32420
C         -2.62110        7.10970        8.33030
C         -1.36600        7.62720        8.54150
C         -0.24310        7.22330        7.80530
C         -0.28000        6.27230        6.81450
C         -1.54750        5.72820        6.58830
C         -1.95340        4.66680        5.67410
C         -1.12420        3.72130        5.13270
C          0.28260        3.76070        5.20670
N          1.43060        3.74670        5.21880
C         -1.58660        2.53390        4.52530
N         -1.91250        1.52270        4.09040
C          0.67930        8.15920        8.54510
C          1.09010        9.45170        7.80900
C          1.57060       10.36120        8.91670
C          0.50840       10.74400        9.61360
C         -0.70820       10.10010        8.98830
C         -0.27430       10.08940        7.51680
C         -0.57130        8.60970        9.36620
C         -4.02150        3.65160        3.47370
C         -4.67200        2.65950        2.79570
C         -4.12360        2.38760        1.51920
C         -4.45460        1.34590        0.63790
C         -5.55550        0.41290        0.90990
C         -6.83400        0.88260        1.20560
C         -7.86450       -0.01400        1.41350
C         -7.64760       -1.37920        1.33390
C         -6.37270       -1.85360        1.05800
S         -5.95650       -3.56400        0.89300
C         -7.30440       -4.45460        1.74520
C         -7.29640       -4.20950        3.24170
C         -5.33330       -0.95560        0.84850
C         -3.67050        1.22040       -0.49890
C         -2.60070        2.09700       -0.80580
C         -2.27390        3.14470        0.07050
C         -1.12500        4.03150       -0.16010
C          0.14270        3.50180       -0.39520
C          1.22110        4.34780       -0.56830
C          1.06160        5.72180       -0.51480
C         -0.19990        6.25610       -0.29210
S         -0.53190        7.98920       -0.16910
C          0.82900        8.77800       -1.10020
C          0.78880        8.43210       -2.57600
C         -1.28670        5.40870       -0.11060
C         -3.04680        3.25840        1.21180
S         -2.75190        4.38740        2.50480
C         -1.95500        1.73470       -2.01270
C         -2.47090        0.61540       -2.60050
S         -3.84580       -0.00950       -1.71560
C         -1.91390       -0.13540       -3.70650
C         -0.60710        0.11900       -4.13900
C          0.04820       -0.71030       -5.03540
O          1.32400       -0.54980       -5.45460
C          2.14890        0.44820       -4.88750
C          2.64930        0.06960       -3.49690
C         -0.61860       -1.85330       -5.52270
C         -1.94110       -2.06780       -5.17170
C         -2.57400       -1.21700       -4.29190
F         -3.85750       -1.48830       -3.96470
C          0.15270       -2.89970       -6.20270
C          0.95290       -2.70700       -7.30720
F          0.90080       -1.53940       -7.97130
C          1.82960       -3.68060       -7.78930
C          1.96300       -4.88560       -7.13260
C          1.09850       -5.16750       -6.03980
N          1.12430       -6.38490       -5.45100
C          0.35810       -6.59480       -4.42730
C         -0.50380       -5.57490       -3.92170
O         -1.24680       -5.83970       -2.85540
C         -2.11820       -4.79490       -2.41290
C         -2.82760       -5.26180       -1.15620
N         -0.58700       -4.40940       -4.51140
C          0.19910       -4.17540       -5.58250
C          2.94850       -5.87380       -7.52380
C          3.75250       -6.48300       -6.62690
C          3.92810       -6.01850       -5.21790
O          3.49500       -5.00650       -4.71250
C          4.85460       -6.97790       -4.59610
C          5.29250       -6.96990       -3.27300
C          6.17550       -7.97620       -2.96820
C          6.60090       -8.92100       -3.91370
C          6.18830       -8.93310       -5.22380
C          5.28380       -7.91760       -5.55620
C          4.64590       -7.61640       -6.83270
C          4.83400       -8.29870       -8.00290
C          4.21120       -7.99190       -9.23230
N          3.75340       -7.80430      -10.26830
C          5.69280       -9.40870       -8.15730
N          6.37050      -10.31230       -8.36200
C          7.47520       -9.64020       -2.91750
C          6.94880      -10.97150       -2.32600
C          5.44280      -10.90160       -2.38230
C          5.04490      -10.00680       -1.48790
C          6.27510       -9.45440       -0.81110
C          7.17690      -10.69890       -0.83050
C          7.00440       -8.58620       -1.86620
H         -5.32670        4.07650        5.11930
H         -3.50680        7.39110        8.87810
H          0.58650        5.96960        6.24990
H          1.50680        7.68780        9.07200
H          1.76440        9.30280        6.97010
H          2.60500       10.57970        9.10740
H          0.47830       11.34620       10.50260
H         -1.67190       10.54350        9.22380
H         -0.17990       11.09430        7.10860
H         -0.91360        9.49220        6.86920
H         -0.57650        8.44090       10.44140
H         -5.46740        2.08250        3.23270
H         -7.02040        1.94550        1.24170
H         -8.85810        0.35050        1.63030
H         -8.47710       -2.05290        1.47860
H         -7.10320       -5.50200        1.52040
H         -8.25130       -4.17730        1.28330
H         -7.45010       -3.15560        3.46450
H         -6.34220       -4.51320        3.66590
H         -8.08900       -4.78500        3.71620
H         -4.34380       -1.33890        0.65330
H          0.28160        2.43120       -0.40650
H          2.20600        3.93630       -0.73510
H          1.92410        6.35840       -0.63300
H          0.66190        9.84360       -0.94440
H          1.77580        8.50420       -0.63600
H          1.58760        8.95280       -3.10080
H         -0.16430        8.73140       -3.00570
H          0.91270        7.36160       -2.72730
H         -2.26340        5.83730        0.05670
H         -1.13900        2.30480       -2.41720
H         -0.09120        0.96050       -3.71000
H          2.99310        0.51640       -5.57900
H          1.63640        1.41800       -4.87600
H          3.15520       -0.89160       -3.54180
H          3.34790        0.82210       -3.14160
H          1.82620       -0.01040       -2.79080
H         -2.47480       -2.91930       -5.55930
H          2.45240       -3.44280       -8.63810
H          0.37730       -7.57450       -3.97220
H         -1.52510       -3.89210       -2.23020
H         -2.83430       -4.57050       -3.21050
H         -3.37410       -6.17930       -1.35590
H         -3.52780       -4.49970       -0.82630
H         -2.10850       -5.45160       -0.36430
H          2.99600       -6.12320       -8.57520
H          4.94160       -6.22100       -2.58040
H          6.53330       -9.66070       -5.93920
H          8.53560       -9.68400       -3.15760
H          7.40400      -11.86330       -2.74810
H          4.84400      -11.45150       -3.08450
H          4.04740       -9.65900       -1.29330
H          6.11810       -8.96460        0.14630
H          8.21560      -10.48610       -0.58150
H          6.80270      -11.49960       -0.19470
H          7.75710       -7.93780       -1.42210
