
  xtb     02042212183D
 energy: -370.624853333805 gnorm: 0.000535809784 xtb: 6.4.1 (unknown)
222244  0     0  0            999 V2000
    5.8070   -4.5199    5.9380 C   0  0  0  0  0  0  0  0  0  0  0  0
    6.6428   -3.6951    5.2533 C   0  0  0  0  0  0  0  0  0  0  0  0
    6.4907   -3.2107    3.8533 C   0  0  0  0  0  0  0  0  0  0  0  0
    5.9906   -3.7722    2.9045 O   0  0  0  0  0  0  0  0  0  0  0  0
    7.1200   -1.8796    3.8393 C   0  0  0  0  0  0  0  0  0  0  0  0
    7.0501   -0.9444    2.8101 C   0  0  0  0  0  0  0  0  0  0  0  0
    7.6898    0.2384    3.0896 C   0  0  0  0  0  0  0  0  0  0  0  0
    8.3546    0.4731    4.3025 C   0  0  0  0  0  0  0  0  0  0  0  0
    8.4506   -0.4498    5.3168 C   0  0  0  0  0  0  0  0  0  0  0  0
    7.8014   -1.6610    5.0532 C   0  0  0  0  0  0  0  0  0  0  0  0
    7.6433   -2.8450    5.8881 C   0  0  0  0  0  0  0  0  0  0  0  0
    8.3251   -3.1284    7.0391 C   0  0  0  0  0  0  0  0  0  0  0  0
    8.1837   -4.3320    7.7637 C   0  0  0  0  0  0  0  0  0  0  0  0
    8.1229   -5.2930    8.3884 N   0  0  0  0  0  0  0  0  0  0  0  0
    9.2907   -2.2778    7.6164 C   0  0  0  0  0  0  0  0  0  0  0  0
   10.0772   -1.6220    8.1349 N   0  0  0  0  0  0  0  0  0  0  0  0
    8.7249    1.8832    3.9164 C   0  0  0  0  0  0  0  0  0  0  0  0
    7.8722    3.0096    4.5399 C   0  0  0  0  0  0  0  0  0  0  0  0
    8.1368    4.1984    3.6435 C   0  0  0  0  0  0  0  0  0  0  0  0
    7.5266    3.9738    2.4869 C   0  0  0  0  0  0  0  0  0  0  0  0
    6.8365    2.6331    2.5821 C   0  0  0  0  0  0  0  0  0  0  0  0
    6.4606    2.6342    4.0693 C   0  0  0  0  0  0  0  0  0  0  0  0
    7.9971    1.6160    2.5594 C   0  0  0  0  0  0  0  0  0  0  0  0
    4.6060   -5.0988    5.4454 C   0  0  0  0  0  0  0  0  0  0  0  0
    4.2061   -5.4152    4.1793 C   0  0  0  0  0  0  0  0  0  0  0  0
    2.8088   -5.5853    4.0574 C   0  0  0  0  0  0  0  0  0  0  0  0
    2.0987   -5.6523    2.8497 C   0  0  0  0  0  0  0  0  0  0  0  0
    2.8049   -5.6492    1.5562 C   0  0  0  0  0  0  0  0  0  0  0  0
    3.5556   -6.7325    1.1152 C   0  0  0  0  0  0  0  0  0  0  0  0
    4.2141   -6.6616   -0.0998 C   0  0  0  0  0  0  0  0  0  0  0  0
    4.1602   -5.5150   -0.8727 C   0  0  0  0  0  0  0  0  0  0  0  0
    3.4188   -4.4294   -0.4301 C   0  0  0  0  0  0  0  0  0  0  0  0
    3.3437   -2.8726   -1.2715 S   0  0  0  0  0  0  0  0  0  0  0  0
    3.4137   -3.3052   -3.0423 C   0  0  0  0  0  0  0  0  0  0  0  0
    2.1971   -4.1009   -3.4702 C   0  0  0  0  0  0  0  0  0  0  0  0
    2.7343   -4.5058    0.7735 C   0  0  0  0  0  0  0  0  0  0  0  0
    0.7329   -5.4806    2.9365 C   0  0  0  0  0  0  0  0  0  0  0  0
    0.0424   -5.3252    4.1644 C   0  0  0  0  0  0  0  0  0  0  0  0
    0.7423   -5.3673    5.3833 C   0  0  0  0  0  0  0  0  0  0  0  0
    0.0167   -5.2290    6.6520 C   0  0  0  0  0  0  0  0  0  0  0  0
    0.4244   -4.3338    7.6403 C   0  0  0  0  0  0  0  0  0  0  0  0
   -0.2994   -4.2256    8.8121 C   0  0  0  0  0  0  0  0  0  0  0  0
   -1.4425   -4.9792    9.0187 C   0  0  0  0  0  0  0  0  0  0  0  0
   -1.8710   -5.8552    8.0300 C   0  0  0  0  0  0  0  0  0  0  0  0
   -3.3451   -6.8231    8.1015 S   0  0  0  0  0  0  0  0  0  0  0  0
   -4.1666   -6.3548    9.6635 C   0  0  0  0  0  0  0  0  0  0  0  0
   -3.5845   -7.0719   10.8673 C   0  0  0  0  0  0  0  0  0  0  0  0
   -1.1296   -5.9846    6.8603 C   0  0  0  0  0  0  0  0  0  0  0  0
    2.1256   -5.4420    5.2928 C   0  0  0  0  0  0  0  0  0  0  0  0
    3.2627   -5.2036    6.5911 S   0  0  0  0  0  0  0  0  0  0  0  0
   -1.2731   -4.8249    3.9647 C   0  0  0  0  0  0  0  0  0  0  0  0
   -1.5586   -4.5635    2.6587 C   0  0  0  0  0  0  0  0  0  0  0  0
   -0.3049   -5.1696    1.5706 S   0  0  0  0  0  0  0  0  0  0  0  0
   -2.3527   -3.4869    2.1371 C   0  0  0  0  0  0  0  0  0  0  0  0
   -2.3202   -2.2261    2.7156 C   0  0  0  0  0  0  0  0  0  0  0  0
   -1.9035   -1.9798    4.0402 N   0  0  0  0  0  0  0  0  0  0  0  0
   -0.5450   -1.7770    4.2853 C   0  0  0  0  0  0  0  0  0  0  0  0
   -0.0884   -1.2624    5.4995 C   0  0  0  0  0  0  0  0  0  0  0  0
    1.2625   -1.1407    5.7631 C   0  0  0  0  0  0  0  0  0  0  0  0
    2.1986   -1.5034    4.8065 C   0  0  0  0  0  0  0  0  0  0  0  0
    3.9537   -1.4026    5.0319 S   0  0  0  0  0  0  0  0  0  0  0  0
    4.1432   -1.3414    6.8381 C   0  0  0  0  0  0  0  0  0  0  0  0
    1.7546   -1.9241    3.5584 C   0  0  0  0  0  0  0  0  0  0  0  0
    0.4084   -2.0521    3.2985 C   0  0  0  0  0  0  0  0  0  0  0  0
   -2.8735   -2.1832    5.0318 C   0  0  0  0  0  0  0  0  0  0  0  0
   -2.5714   -2.7097    6.2897 C   0  0  0  0  0  0  0  0  0  0  0  0
   -3.5688   -2.9274    7.2122 C   0  0  0  0  0  0  0  0  0  0  0  0
   -4.8999   -2.6581    6.9085 C   0  0  0  0  0  0  0  0  0  0  0  0
   -6.0781   -3.0175    8.1743 S   0  0  0  0  0  0  0  0  0  0  0  0
   -7.6763   -2.6426    7.4032 C   0  0  0  0  0  0  0  0  0  0  0  0
   -5.2121   -2.1454    5.6583 C   0  0  0  0  0  0  0  0  0  0  0  0
   -4.2089   -1.9082    4.7382 C   0  0  0  0  0  0  0  0  0  0  0  0
   -2.6108   -1.2217    1.7706 C   0  0  0  0  0  0  0  0  0  0  0  0
   -2.4266    0.4990    1.7797 S   0  0  0  0  0  0  0  0  0  0  0  0
   -2.6466    0.5368    0.0473 C   0  0  0  0  0  0  0  0  0  0  0  0
   -2.8765   -0.7126   -0.4970 C   0  0  0  0  0  0  0  0  0  0  0  0
   -2.8443   -0.9490   -1.8837 N   0  0  0  0  0  0  0  0  0  0  0  0
   -4.0267   -1.1430   -2.5888 C   0  0  0  0  0  0  0  0  0  0  0  0
   -4.0145   -1.6967   -3.8677 C   0  0  0  0  0  0  0  0  0  0  0  0
   -5.1863   -1.8567   -4.5809 C   0  0  0  0  0  0  0  0  0  0  0  0
   -6.4004   -1.4819   -4.0220 C   0  0  0  0  0  0  0  0  0  0  0  0
   -7.9597   -1.6000   -4.8482 S   0  0  0  0  0  0  0  0  0  0  0  0
   -7.5315   -2.1927   -6.5093 C   0  0  0  0  0  0  0  0  0  0  0  0
   -6.4245   -0.9742   -2.7253 C   0  0  0  0  0  0  0  0  0  0  0  0
   -5.2562   -0.8071   -2.0170 C   0  0  0  0  0  0  0  0  0  0  0  0
   -1.6191   -0.6226   -2.4884 C   0  0  0  0  0  0  0  0  0  0  0  0
   -0.4369   -0.9655   -1.8280 C   0  0  0  0  0  0  0  0  0  0  0  0
    0.7841   -0.5617   -2.3164 C   0  0  0  0  0  0  0  0  0  0  0  0
    0.8607    0.1969   -3.4814 C   0  0  0  0  0  0  0  0  0  0  0  0
    2.4742    0.7034   -4.0036 S   0  0  0  0  0  0  0  0  0  0  0  0
    2.1388    2.0602   -5.1585 C   0  0  0  0  0  0  0  0  0  0  0  0
   -0.3039    0.5034   -4.1695 C   0  0  0  0  0  0  0  0  0  0  0  0
   -1.5287    0.0957   -3.6774 C   0  0  0  0  0  0  0  0  0  0  0  0
   -2.8745   -1.7122    0.4965 C   0  0  0  0  0  0  0  0  0  0  0  0
   -2.8363   -3.4411    0.4563 S   0  0  0  0  0  0  0  0  0  0  0  0
   -2.3747    1.6871   -0.7722 C   0  0  0  0  0  0  0  0  0  0  0  0
   -3.1068    2.1223   -1.8309 C   0  0  0  0  0  0  0  0  0  0  0  0
   -2.4098    3.0322   -2.6673 C   0  0  0  0  0  0  0  0  0  0  0  0
   -2.8614    3.6305   -3.8523 C   0  0  0  0  0  0  0  0  0  0  0  0
   -4.2401    3.4723   -4.3449 C   0  0  0  0  0  0  0  0  0  0  0  0
   -4.8337    2.2253   -4.5067 C   0  0  0  0  0  0  0  0  0  0  0  0
   -6.1390    2.1319   -4.9595 C   0  0  0  0  0  0  0  0  0  0  0  0
   -6.8589    3.2694   -5.2581 C   0  0  0  0  0  0  0  0  0  0  0  0
   -6.2716    4.5244   -5.1065 C   0  0  0  0  0  0  0  0  0  0  0  0
   -7.3045    5.9089   -5.4723 S   0  0  0  0  0  0  0  0  0  0  0  0
   -6.1883    7.3525   -5.5344 C   0  0  0  0  0  0  0  0  0  0  0  0
   -5.3329    7.3691   -6.7859 C   0  0  0  0  0  0  0  0  0  0  0  0
   -4.9678    4.6207   -4.6499 C   0  0  0  0  0  0  0  0  0  0  0  0
   -1.9403    4.4083   -4.5416 C   0  0  0  0  0  0  0  0  0  0  0  0
   -0.6242    4.6496   -4.0657 C   0  0  0  0  0  0  0  0  0  0  0  0
   -0.2012    4.1272   -2.8230 C   0  0  0  0  0  0  0  0  0  0  0  0
    1.0909    4.5007   -2.2350 C   0  0  0  0  0  0  0  0  0  0  0  0
    1.4618    5.8437   -2.2082 C   0  0  0  0  0  0  0  0  0  0  0  0
    2.6524    6.2220   -1.6127 C   0  0  0  0  0  0  0  0  0  0  0  0
    3.4689    5.2775   -1.0271 C   0  0  0  0  0  0  0  0  0  0  0  0
    3.1018    3.9322   -1.0395 C   0  0  0  0  0  0  0  0  0  0  0  0
    4.2071    2.8253   -0.2330 S   0  0  0  0  0  0  0  0  0  0  0  0
    3.3468    1.2098   -0.2443 C   0  0  0  0  0  0  0  0  0  0  0  0
    4.1248    0.2335    0.6167 C   0  0  0  0  0  0  0  0  0  0  0  0
    1.9221    3.5439   -1.6567 C   0  0  0  0  0  0  0  0  0  0  0  0
   -1.0998    3.2939   -2.1814 C   0  0  0  0  0  0  0  0  0  0  0  0
   -0.7964    2.4450   -0.6880 S   0  0  0  0  0  0  0  0  0  0  0  0
    0.1274    5.3892   -4.9947 C   0  0  0  0  0  0  0  0  0  0  0  0
   -0.5673    5.7328   -6.1388 C   0  0  0  0  0  0  0  0  0  0  0  0
   -2.2152    5.1381   -6.0992 S   0  0  0  0  0  0  0  0  0  0  0  0
    0.0372    6.4764   -7.1761 C   0  0  0  0  0  0  0  0  0  0  0  0
   -0.4682    6.9320   -8.3575 C   0  0  0  0  0  0  0  0  0  0  0  0
   -1.8487    6.7465   -8.8651 C   0  0  0  0  0  0  0  0  0  0  0  0
   -2.7549    6.1333   -8.3408 O   0  0  0  0  0  0  0  0  0  0  0  0
   -1.8889    7.4605  -10.1489 C   0  0  0  0  0  0  0  0  0  0  0  0
   -2.8265    7.7202  -11.1588 C   0  0  0  0  0  0  0  0  0  0  0  0
   -2.2631    8.4660  -12.1586 C   0  0  0  0  0  0  0  0  0  0  0  0
   -3.0376    9.0069  -13.5747 Cl  0  0  0  0  0  0  0  0  0  0  0  0
   -0.5828    8.8614  -11.8846 S   0  0  0  0  0  0  0  0  0  0  0  0
   -0.6388    8.0089  -10.3962 C   0  0  0  0  0  0  0  0  0  0  0  0
    0.2829    7.7121   -9.3365 C   0  0  0  0  0  0  0  0  0  0  0  0
    1.5973    8.1070   -9.3129 C   0  0  0  0  0  0  0  0  0  0  0  0
    2.5322    7.8216   -8.3010 C   0  0  0  0  0  0  0  0  0  0  0  0
    3.3439    7.6194   -7.5134 N   0  0  0  0  0  0  0  0  0  0  0  0
    2.1336    8.8667  -10.3742 C   0  0  0  0  0  0  0  0  0  0  0  0
    2.5738    9.4886  -11.2321 N   0  0  0  0  0  0  0  0  0  0  0  0
    5.9408   -4.5991    7.0114 H   0  0  0  0  0  0  0  0  0  0  0  0
    6.5188   -1.1670    1.8991 H   0  0  0  0  0  0  0  0  0  0  0  0
    8.9667   -0.2588    6.2437 H   0  0  0  0  0  0  0  0  0  0  0  0
    9.7887    2.1121    3.9055 H   0  0  0  0  0  0  0  0  0  0  0  0
    8.0243    3.1572    5.6059 H   0  0  0  0  0  0  0  0  0  0  0  0
    8.7670    5.0248    3.9156 H   0  0  0  0  0  0  0  0  0  0  0  0
    7.5412    4.5751    1.5972 H   0  0  0  0  0  0  0  0  0  0  0  0
    6.0474    2.4445    1.8608 H   0  0  0  0  0  0  0  0  0  0  0  0
    5.7299    3.4055    4.3068 H   0  0  0  0  0  0  0  0  0  0  0  0
    6.1074    1.6722    4.4371 H   0  0  0  0  0  0  0  0  0  0  0  0
    8.5785    1.6532    1.6405 H   0  0  0  0  0  0  0  0  0  0  0  0
    4.8724   -5.4717    3.3406 H   0  0  0  0  0  0  0  0  0  0  0  0
    3.6157   -7.6259    1.7187 H   0  0  0  0  0  0  0  0  0  0  0  0
    4.7931   -7.5053   -0.4455 H   0  0  0  0  0  0  0  0  0  0  0  0
    4.7056   -5.4719   -1.8030 H   0  0  0  0  0  0  0  0  0  0  0  0
    3.4497   -2.3381   -3.5447 H   0  0  0  0  0  0  0  0  0  0  0  0
    4.3444   -3.8373   -3.2351 H   0  0  0  0  0  0  0  0  0  0  0  0
    1.2898   -3.5347   -3.2690 H   0  0  0  0  0  0  0  0  0  0  0  0
    2.2483   -4.3126   -4.5365 H   0  0  0  0  0  0  0  0  0  0  0  0
    2.1437   -5.0446   -2.9298 H   0  0  0  0  0  0  0  0  0  0  0  0
    2.1633   -3.6538    1.1077 H   0  0  0  0  0  0  0  0  0  0  0  0
    1.2841   -3.7039    7.4765 H   0  0  0  0  0  0  0  0  0  0  0  0
    0.0212   -3.5343    9.5777 H   0  0  0  0  0  0  0  0  0  0  0  0
   -1.9862   -4.8646    9.9426 H   0  0  0  0  0  0  0  0  0  0  0  0
   -5.2051   -6.6464    9.5066 H   0  0  0  0  0  0  0  0  0  0  0  0
   -4.1281   -5.2702    9.7565 H   0  0  0  0  0  0  0  0  0  0  0  0
   -3.6860   -8.1479   10.7469 H   0  0  0  0  0  0  0  0  0  0  0  0
   -4.1156   -6.7704   11.7684 H   0  0  0  0  0  0  0  0  0  0  0  0
   -2.5284   -6.8433   10.9921 H   0  0  0  0  0  0  0  0  0  0  0  0
   -1.4575   -6.6893    6.1106 H   0  0  0  0  0  0  0  0  0  0  0  0
   -1.9397   -4.5857    4.7721 H   0  0  0  0  0  0  0  0  0  0  0  0
   -0.7945   -0.9336    6.2454 H   0  0  0  0  0  0  0  0  0  0  0  0
    1.5691   -0.7484    6.7199 H   0  0  0  0  0  0  0  0  0  0  0  0
    3.7799   -0.3940    7.2249 H   0  0  0  0  0  0  0  0  0  0  0  0
    3.6197   -2.1797    7.2888 H   0  0  0  0  0  0  0  0  0  0  0  0
    5.2093   -1.4251    7.0271 H   0  0  0  0  0  0  0  0  0  0  0  0
    2.4857   -2.1552    2.7988 H   0  0  0  0  0  0  0  0  0  0  0  0
    0.0977   -2.3738    2.3170 H   0  0  0  0  0  0  0  0  0  0  0  0
   -1.5580   -2.9734    6.5450 H   0  0  0  0  0  0  0  0  0  0  0  0
   -3.3198   -3.3261    8.1826 H   0  0  0  0  0  0  0  0  0  0  0  0
   -8.4266   -2.8881    8.1483 H   0  0  0  0  0  0  0  0  0  0  0  0
   -7.8143   -3.2620    6.5217 H   0  0  0  0  0  0  0  0  0  0  0  0
   -7.7327   -1.5858    7.1583 H   0  0  0  0  0  0  0  0  0  0  0  0
   -6.2301   -1.9212    5.3831 H   0  0  0  0  0  0  0  0  0  0  0  0
   -4.4728   -1.5032    3.7728 H   0  0  0  0  0  0  0  0  0  0  0  0
   -3.0782   -2.0078   -4.3057 H   0  0  0  0  0  0  0  0  0  0  0  0
   -5.1352   -2.2807   -5.5708 H   0  0  0  0  0  0  0  0  0  0  0  0
   -6.8518   -1.4946   -6.9896 H   0  0  0  0  0  0  0  0  0  0  0  0
   -7.1014   -3.1885   -6.4514 H   0  0  0  0  0  0  0  0  0  0  0  0
   -8.4690   -2.2287   -7.0554 H   0  0  0  0  0  0  0  0  0  0  0  0
   -7.3714   -0.6993   -2.2865 H   0  0  0  0  0  0  0  0  0  0  0  0
   -5.2888   -0.4033   -1.0156 H   0  0  0  0  0  0  0  0  0  0  0  0
   -0.4773   -1.5445   -0.9182 H   0  0  0  0  0  0  0  0  0  0  0  0
    1.6882   -0.8312   -1.7941 H   0  0  0  0  0  0  0  0  0  0  0  0
    3.0954    2.5436   -5.3313 H   0  0  0  0  0  0  0  0  0  0  0  0
    1.7484    1.6724   -6.0954 H   0  0  0  0  0  0  0  0  0  0  0  0
    1.4459    2.7610   -4.7024 H   0  0  0  0  0  0  0  0  0  0  0  0
   -0.2781    1.0749   -5.0839 H   0  0  0  0  0  0  0  0  0  0  0  0
   -2.4212    0.3631   -4.2199 H   0  0  0  0  0  0  0  0  0  0  0  0
   -4.1115    1.7923   -2.0228 H   0  0  0  0  0  0  0  0  0  0  0  0
   -4.2791    1.3240   -4.2987 H   0  0  0  0  0  0  0  0  0  0  0  0
   -6.5968    1.1617   -5.0764 H   0  0  0  0  0  0  0  0  0  0  0  0
   -7.8776    3.2040   -5.6077 H   0  0  0  0  0  0  0  0  0  0  0  0
   -6.8711    8.2026   -5.5184 H   0  0  0  0  0  0  0  0  0  0  0  0
   -5.5946    7.3706   -4.6212 H   0  0  0  0  0  0  0  0  0  0  0  0
   -4.7037    8.2578   -6.7915 H   0  0  0  0  0  0  0  0  0  0  0  0
   -5.9650    7.3867   -7.6705 H   0  0  0  0  0  0  0  0  0  0  0  0
   -4.6912    6.4935   -6.8440 H   0  0  0  0  0  0  0  0  0  0  0  0
   -4.5018    5.5809   -4.4966 H   0  0  0  0  0  0  0  0  0  0  0  0
    0.8011    6.5899   -2.6232 H   0  0  0  0  0  0  0  0  0  0  0  0
    2.9367    7.2633   -1.5948 H   0  0  0  0  0  0  0  0  0  0  0  0
    4.3922    5.5637   -0.5476 H   0  0  0  0  0  0  0  0  0  0  0  0
    2.3408    1.3652    0.1462 H   0  0  0  0  0  0  0  0  0  0  0  0
    3.3069    0.8674   -1.2784 H   0  0  0  0  0  0  0  0  0  0  0  0
    5.1471    0.1507    0.2551 H   0  0  0  0  0  0  0  0  0  0  0  0
    3.6618   -0.7490    0.5646 H   0  0  0  0  0  0  0  0  0  0  0  0
    4.1443    0.5586    1.6549 H   0  0  0  0  0  0  0  0  0  0  0  0
    1.6478    2.5031   -1.7145 H   0  0  0  0  0  0  0  0  0  0  0  0
    1.1614    5.6513   -4.8505 H   0  0  0  0  0  0  0  0  0  0  0  0
    1.0737    6.7162   -6.9676 H   0  0  0  0  0  0  0  0  0  0  0  0
   -3.8460    7.3836  -11.1555 H   0  0  0  0  0  0  0  0  0  0  0  0
  1  2  2  0  0  0  0
  2  3  1  0  0  0  0
  3  4  2  0  0  0  0
  3  5  1  0  0  0  0
  5  6  2  0  0  0  0
  6  7  1  0  0  0  0
  7  8  2  0  0  0  0
  8  9  1  0  0  0  0
  9 10  2  0  0  0  0
 10 11  1  0  0  0  0
 11 12  2  0  0  0  0
 12 13  1  0  0  0  0
 13 14  3  0  0  0  0
 12 15  1  0  0  0  0
 15 16  3  0  0  0  0
  8 17  1  0  0  0  0
 17 18  1  0  0  0  0
 18 19  1  0  0  0  0
 19 20  2  0  0  0  0
 20 21  1  0  0  0  0
 21 22  1  0  0  0  0
 21 23  1  0  0  0  0
  1 24  1  0  0  0  0
 24 25  2  0  0  0  0
 25 26  1  0  0  0  0
 26 27  2  0  0  0  0
 27 28  1  0  0  0  0
 28 29  2  0  0  0  0
 29 30  1  0  0  0  0
 30 31  2  0  0  0  0
 31 32  1  0  0  0  0
 32 33  1  0  0  0  0
 33 34  1  0  0  0  0
 34 35  1  0  0  0  0
 32 36  2  0  0  0  0
 27 37  1  0  0  0  0
 37 38  2  0  0  0  0
 38 39  1  0  0  0  0
 39 40  1  0  0  0  0
 40 41  2  0  0  0  0
 41 42  1  0  0  0  0
 42 43  2  0  0  0  0
 43 44  1  0  0  0  0
 44 45  1  0  0  0  0
 45 46  1  0  0  0  0
 46 47  1  0  0  0  0
 44 48  2  0  0  0  0
 39 49  2  0  0  0  0
 49 50  1  0  0  0  0
 38 51  1  0  0  0  0
 51 52  2  0  0  0  0
 52 53  1  0  0  0  0
 52 54  1  0  0  0  0
 54 55  2  0  0  0  0
 55 56  1  0  0  0  0
 56 57  1  0  0  0  0
 57 58  2  0  0  0  0
 58 59  1  0  0  0  0
 59 60  2  0  0  0  0
 60 61  1  0  0  0  0
 61 62  1  0  0  0  0
 60 63  1  0  0  0  0
 63 64  2  0  0  0  0
 56 65  1  0  0  0  0
 65 66  2  0  0  0  0
 66 67  1  0  0  0  0
 67 68  2  0  0  0  0
 68 69  1  0  0  0  0
 69 70  1  0  0  0  0
 68 71  1  0  0  0  0
 71 72  2  0  0  0  0
 55 73  1  0  0  0  0
 73 74  1  0  0  0  0
 74 75  1  0  0  0  0
 75 76  2  0  0  0  0
 76 77  1  0  0  0  0
 77 78  1  0  0  0  0
 78 79  2  0  0  0  0
 79 80  1  0  0  0  0
 80 81  2  0  0  0  0
 81 82  1  0  0  0  0
 82 83  1  0  0  0  0
 81 84  1  0  0  0  0
 84 85  2  0  0  0  0
 77 86  1  0  0  0  0
 86 87  2  0  0  0  0
 87 88  1  0  0  0  0
 88 89  2  0  0  0  0
 89 90  1  0  0  0  0
 90 91  1  0  0  0  0
 89 92  1  0  0  0  0
 92 93  2  0  0  0  0
 76 94  1  0  0  0  0
 94 95  1  0  0  0  0
 75 96  1  0  0  0  0
 96 97  2  0  0  0  0
 97 98  1  0  0  0  0
 98 99  2  0  0  0  0
 99100  1  0  0  0  0
100101  2  0  0  0  0
101102  1  0  0  0  0
102103  2  0  0  0  0
103104  1  0  0  0  0
104105  1  0  0  0  0
105106  1  0  0  0  0
106107  1  0  0  0  0
104108  2  0  0  0  0
 99109  1  0  0  0  0
109110  2  0  0  0  0
110111  1  0  0  0  0
111112  1  0  0  0  0
112113  2  0  0  0  0
113114  1  0  0  0  0
114115  2  0  0  0  0
115116  1  0  0  0  0
116117  1  0  0  0  0
117118  1  0  0  0  0
118119  1  0  0  0  0
116120  2  0  0  0  0
111121  2  0  0  0  0
121122  1  0  0  0  0
110123  1  0  0  0  0
123124  2  0  0  0  0
124125  1  0  0  0  0
124126  1  0  0  0  0
126127  2  0  0  0  0
127128  1  0  0  0  0
128129  2  0  0  0  0
128130  1  0  0  0  0
130131  1  0  0  0  0
131132  2  0  0  0  0
132133  1  0  0  0  0
132134  1  0  0  0  0
134135  1  0  0  0  0
135136  1  0  0  0  0
136137  2  0  0  0  0
137138  1  0  0  0  0
138139  3  0  0  0  0
137140  1  0  0  0  0
140141  3  0  0  0  0
 11  2  1  0  0  0  0
 23 17  1  0  0  0  0
 50 24  1  0  0  0  0
 95 54  1  0  0  0  0
122 96  1  0  0  0  0
136127  1  0  0  0  0
 10  5  1  0  0  0  0
 22 18  1  0  0  0  0
 49 26  1  0  0  0  0
 64 57  1  0  0  0  0
 72 65  1  0  0  0  0
 94 73  2  0  0  0  0
121 98  1  0  0  0  0
135130  2  0  0  0  0
 23  7  1  0  0  0  0
 36 28  1  0  0  0  0
 53 37  1  0  0  0  0
 85 78  1  0  0  0  0
 93 86  1  0  0  0  0
108100  1  0  0  0  0
125109  1  0  0  0  0
 48 40  1  0  0  0  0
120112  1  0  0  0  0
  1142  1  0  0  0  0
  6143  1  0  0  0  0
  9144  1  0  0  0  0
 17145  1  0  0  0  0
 18146  1  0  0  0  0
 19147  1  0  0  0  0
 20148  1  0  0  0  0
 21149  1  0  0  0  0
 22150  1  0  0  0  0
 22151  1  0  0  0  0
 23152  1  0  0  0  0
 25153  1  0  0  0  0
 29154  1  0  0  0  0
 30155  1  0  0  0  0
 31156  1  0  0  0  0
 34157  1  0  0  0  0
 34158  1  0  0  0  0
 35159  1  0  0  0  0
 35160  1  0  0  0  0
 35161  1  0  0  0  0
 36162  1  0  0  0  0
 41163  1  0  0  0  0
 42164  1  0  0  0  0
 43165  1  0  0  0  0
 46166  1  0  0  0  0
 46167  1  0  0  0  0
 47168  1  0  0  0  0
 47169  1  0  0  0  0
 47170  1  0  0  0  0
 48171  1  0  0  0  0
 51172  1  0  0  0  0
 58173  1  0  0  0  0
 59174  1  0  0  0  0
 62175  1  0  0  0  0
 62176  1  0  0  0  0
 62177  1  0  0  0  0
 63178  1  0  0  0  0
 64179  1  0  0  0  0
 66180  1  0  0  0  0
 67181  1  0  0  0  0
 70182  1  0  0  0  0
 70183  1  0  0  0  0
 70184  1  0  0  0  0
 71185  1  0  0  0  0
 72186  1  0  0  0  0
 79187  1  0  0  0  0
 80188  1  0  0  0  0
 83189  1  0  0  0  0
 83190  1  0  0  0  0
 83191  1  0  0  0  0
 84192  1  0  0  0  0
 85193  1  0  0  0  0
 87194  1  0  0  0  0
 88195  1  0  0  0  0
 91196  1  0  0  0  0
 91197  1  0  0  0  0
 91198  1  0  0  0  0
 92199  1  0  0  0  0
 93200  1  0  0  0  0
 97201  1  0  0  0  0
101202  1  0  0  0  0
102203  1  0  0  0  0
103204  1  0  0  0  0
106205  1  0  0  0  0
106206  1  0  0  0  0
107207  1  0  0  0  0
107208  1  0  0  0  0
107209  1  0  0  0  0
108210  1  0  0  0  0
113211  1  0  0  0  0
114212  1  0  0  0  0
115213  1  0  0  0  0
118214  1  0  0  0  0
118215  1  0  0  0  0
119216  1  0  0  0  0
119217  1  0  0  0  0
119218  1  0  0  0  0
120219  1  0  0  0  0
123220  1  0  0  0  0
126221  1  0  0  0  0
131222  1  0  0  0  0
M  END
