172

C          3.88610       -4.29330        8.71110
C          5.06110       -4.87690        8.33910
C          5.50860       -5.02210        6.92480
O          4.89620       -4.71700        5.92220
C          6.77660       -5.76680        6.98530
C          7.59340       -6.10480        5.90890
C          8.71770       -6.81150        6.26030
C          9.00440       -7.16690        7.58580
C          8.20570       -6.84270        8.65620
C          7.05830       -6.11680        8.32180
C          6.00190       -5.58800        9.17990
C          5.95360       -5.68380       10.54650
C          4.95920       -5.10310       11.36140
N          4.19480       -4.65140       12.08980
C          6.89760       -6.37350       11.33550
N          7.62060       -6.92020       12.04030
C         10.27830       -7.87730        7.20310
C         10.25350       -9.42520        7.15160
C          8.82730       -9.82270        6.86200
C          8.55870       -9.48330        5.60830
C          9.79870       -8.84960        5.02730
C         10.88320       -9.64880        5.76730
C          9.96110       -7.47770        5.72760
C          3.14390       -3.42990        7.87200
S          1.39690       -3.44300        7.92610
C          1.25040       -2.32190        6.60550
C          2.51250       -1.92030        6.20450
S          3.05120       -0.82950        4.97430
C          4.70480       -1.10120        5.45260
C          5.73460       -0.37960        4.69780
O          6.91890       -0.40960        4.91050
O          5.14230        0.32880        3.72520
C          5.98050        1.09070        2.85490
C          6.51840        0.23450        1.71850
C          4.83790       -1.98370        6.49220
C          3.58420       -2.51570        6.91610
Cl         6.33750       -2.30580        7.22960
C          0.01540       -1.94490        6.02380
S          0.04310       -0.75200        4.73620
C         -1.65570       -0.92720        4.52060
C         -2.45840       -0.33430        3.54730
C         -3.79760       -0.71250        3.45850
O         -4.35970       -1.56290        4.33690
C         -3.63980       -2.16130        5.35360
O         -4.22520       -2.90100        6.09870
C         -2.21840       -1.84460        5.41210
C         -1.25630       -2.40970        6.26790
C         -4.45810       -0.15610        2.35390
C         -3.63450        0.65950        1.60100
S         -2.02300        0.75470        2.28510
C         -3.80830        1.30490        0.35100
C         -4.89310        1.38650       -0.52550
N         -6.19690        1.04160       -0.24940
C         -6.98070        0.52640       -1.29990
C         -6.45880       -0.46510       -2.13080
C         -7.20880       -0.95960       -3.17310
C         -8.49790       -0.48150       -3.40610
S         -9.35780       -1.18940       -4.77100
C        -10.94820       -0.31470       -4.79380
C         -9.02330        0.49820       -2.57280
C         -8.26800        0.99900       -1.53100
C         -6.79020        1.33350        0.98460
C         -7.82600        0.52960        1.46900
C         -8.40860        0.80450        2.68440
C         -7.97230        1.88310        3.45420
S         -8.79570        2.13120        4.99170
C         -7.89940        3.51390        5.75280
C         -6.94590        2.68610        2.97460
C         -6.36450        2.41410        1.75170
C         -4.47810        1.89890       -1.78240
S         -5.28930        2.21320       -3.27380
C         -3.77350        2.74680       -4.01910
C         -2.71650        2.79490       -3.08730
N         -1.48680        3.36140       -3.26210
C         -1.23170        4.33690       -4.23540
C         -0.03440        4.29860       -4.95350
C          0.19710        5.20390       -5.96440
C         -0.75160        6.17780       -6.27610
S         -0.38880        7.21640       -7.64790
C         -1.82440        8.31820       -7.77020
C         -1.91170        6.26470       -5.51260
C         -2.14800        5.35030       -4.50700
C         -0.42800        3.00040       -2.40040
C          0.33190        3.99360       -1.78520
C          1.31050        3.64950       -0.87920
C          1.54740        2.31110       -0.57040
S          2.77340        1.97340        0.65420
C          2.28700        0.34450        1.29430
C          0.83870        1.31880       -1.23570
C         -0.14140        1.66220       -2.14720
C         -3.14040        2.26100       -1.84780
S         -2.34550        1.99830       -0.34020
C         -3.80780        3.04890       -5.38450
C         -2.72710        3.00440       -6.23660
C         -1.54110        2.15780       -6.02020
O         -1.31370        1.43330       -5.06810
C         -0.74150        2.26510       -7.25720
C          0.47320        1.64230       -7.52770
C          0.99620        1.94820       -8.76220
C          0.35540        2.80430       -9.66610
C         -0.84610        3.42350       -9.41270
C         -1.39150        3.12740       -8.16160
C         -2.61500        3.61560       -7.53230
C         -3.42730        4.61360       -8.01220
C         -4.48120        5.18740       -7.27500
N         -5.32260        5.74360       -6.72370
C         -3.26270        5.25780       -9.25260
N         -3.18850        5.84100      -10.23990
C          1.43910        2.65050      -10.70460
C          1.12970        1.71660      -11.89360
C          2.49230        1.38760      -12.45980
C          3.10120        0.57880      -11.60210
C          2.16040        0.34750      -10.44180
C          0.81570        0.39590      -11.17860
C          2.15580        1.69800       -9.69450
H          3.45190       -4.51370        9.67750
H          7.33400       -5.81020        4.90410
H          8.44010       -7.12450        9.66910
H         11.19180       -7.49210        7.65150
H         10.72430       -9.91220        8.00110
H          8.16310      -10.24460        7.59350
H          7.62500       -9.56440        5.08300
H          9.85620       -8.81270        3.94260
H         10.90330      -10.69850        5.47840
H         11.88010       -9.22100        5.66970
H         10.66680       -6.82880        5.21240
H          5.33950        1.88890        2.47460
H          6.80490        1.51130        3.43930
H          7.14940       -0.55780        2.11380
H          5.69660       -0.20860        1.16170
H          7.10710        0.85300        1.04780
H         -1.48810       -3.14450        7.01710
H         -5.48070       -0.37620        2.12050
H         -5.46320       -0.84290       -1.95040
H         -6.80840       -1.72530       -3.81920
H        -11.49500       -0.51050       -3.87610
H        -11.49220       -0.72350       -5.63970
H        -10.78460        0.74880       -4.94050
H        -10.01550        0.88890       -2.72790
H         -8.67660        1.76920       -0.89410
H         -8.16140       -0.31640        0.88790
H         -9.20410        0.18030        3.06060
H         -6.85150        3.25490        5.87160
H         -8.35650        3.65490        6.72730
H         -8.02150        4.41360        5.15660
H         -6.59210        3.53430        3.53760
H         -5.57780        3.05620        1.38560
H          0.69770        3.53940       -4.72430
H          1.10730        5.15610       -6.54190
H         -1.90270        8.92850       -6.87540
H         -2.72900        7.74170       -7.93970
H         -1.62990        8.94820       -8.63250
H         -2.64640        7.03100       -5.69830
H         -3.05960        5.42180       -3.93310
H          0.13200        5.03230       -2.00350
H          1.88720        4.41360       -0.38170
H          2.54220       -0.43570        0.58310
H          1.22280        0.34910        1.51040
H          2.85170        0.20680        2.21170
H          1.04170        0.27640       -1.04980
H         -0.68470        0.90020       -2.68410
H         -4.78280        3.29140       -5.79020
H          0.93820        0.99210       -6.80290
H         -1.33020        4.08050      -10.11600
H          1.94250        3.56800      -11.00300
H          0.38900        2.09770      -12.59110
H          2.88170        1.80730      -13.36860
H          4.10080        0.18820      -11.65120
H          2.35830       -0.51900       -9.81640
H         -0.04950        0.44270      -10.51990
H          0.69850       -0.43200      -11.87600
H          3.13800        1.98070       -9.31990
