212

C         -8.35810        0.33340       -0.53080
C         -9.31030        0.55100       -1.46030
C        -10.70270        0.87210       -1.03710
O        -11.18710        0.68770        0.05590
C        -11.29570        1.57680       -2.18710
C        -12.52450        2.23450       -2.22270
C        -12.77020        2.89810       -3.39960
C        -11.86150        2.91220       -4.46780
C        -10.65400        2.25690       -4.45480
C        -10.38580        1.57200       -3.26680
C         -9.21210        0.79160       -2.89020
C         -8.29550        0.24990       -3.74620
C         -7.30080       -0.66700       -3.35160
N         -6.50250       -1.44860       -3.08870
C         -8.29190        0.47110       -5.13980
N         -8.25060        0.61890       -6.27700
C        -12.73180        3.81980       -5.29920
C        -12.33040        5.31390       -5.37990
C        -11.57050        5.62410       -4.11390
C        -12.43560        5.60920       -3.10860
C        -13.79550        5.28500       -3.67640
C        -13.68360        5.96420       -5.05050
C        -13.74680        3.79920       -4.11300
C         -6.91780        0.46530       -0.71870
C         -6.34100        1.65080       -1.19220
S         -7.34640        3.01690       -1.74370
C         -8.27260        3.47650       -0.22130
C         -9.36680        4.45570       -0.59750
C         -4.95480        1.77380       -1.27290
S         -4.24020        3.26660       -1.92930
C         -4.43590        4.39890       -0.50110
C         -3.71570        3.90990        0.73870
C         -4.11440        0.71470       -0.90170
C         -4.69940       -0.53110       -0.59320
C         -6.08250       -0.62450       -0.43540
C         -6.75770       -1.86560        0.00610
O         -7.97010       -1.97160       -0.01050
C         -5.85290       -2.88850        0.52150
C         -4.45350       -2.83960        0.25210
C         -3.88060       -1.77940       -0.58850
O         -2.89360       -1.93650       -1.27020
C         -3.78390       -3.89380        0.79750
S         -4.83310       -4.93760        1.66500
C         -6.19620       -3.98580        1.26190
C         -2.69400        0.85200       -0.66290
C         -2.06510        0.18810        0.34940
C         -0.67650        0.42790        0.42510
C          0.25690       -0.22520        1.25250
C         -0.16530       -1.31090        2.11510
C         -1.26710       -1.37860        2.92430
C         -1.43610       -2.66100        3.47140
S         -2.60130       -3.41420        4.50010
C         -1.75590       -4.94560        4.40770
Si        -2.42840       -6.46670        5.29980
C         -3.59590       -7.39250        4.09520
C         -2.93400       -7.73940        2.76500
C         -0.91580       -7.54530        5.75920
C         -1.27570       -8.80600        6.53750
C         -3.39050       -5.85540        6.83580
C         -4.45560       -6.82600        7.33600
C         -0.64580       -4.85840        3.62040
C         -0.45870       -3.57230        3.08500
S          0.70010       -2.83550        2.03630
C          1.58480        0.14180        1.08770
C          2.01260        1.10700        0.14420
C          1.08580        1.71250       -0.72530
C          1.47520        2.61810       -1.78460
S          2.93620        2.33120       -2.71870
C          2.59200        3.68530       -3.73540
C          3.21590        4.29370       -4.83670
C          2.52070        5.37540       -5.29490
Si         2.90130        6.52290       -6.74280
C          1.40530        6.47420       -7.93280
C          1.12700        5.07800       -8.48170
C          3.11290        8.29170       -6.04330
C          4.25130        8.40050       -5.03350
C          4.50100        5.89940       -7.58190
C          4.90550        6.75270       -8.77890
S          1.07130        5.66160       -4.35790
C          1.41000        4.30660       -3.34570
C          0.77690        3.70010       -2.24980
C         -0.25180        1.35320       -0.55510
S         -1.59580        1.88980       -1.52950
C          3.41570        1.32070        0.22780
C          4.02110        0.56180        1.17060
S          2.91540       -0.48370        2.01670
C          5.44660        0.46950        1.48810
C          6.25570       -0.33140        0.66590
S          5.44260       -1.13010       -0.68880
C          6.43400       -0.64580       -2.15100
C          6.62660        0.85380       -2.23930
C          7.60010       -0.53460        0.98880
S          8.58120       -1.66990        0.05070
C         10.10070       -0.69030       -0.31180
C         10.46550       -0.82350       -1.77770
C          8.13130        0.06470        2.13390
C          7.34500        0.92920        2.90230
C          5.99080        1.13630        2.58660
C          5.13440        2.03230        3.39760
O          3.96950        2.26340        3.13720
C          5.80830        2.63660        4.55350
C          7.17370        2.38670        4.88220
C          8.00670        1.50670        4.07550
O          9.17710        1.25430        4.33320
C          7.56700        3.05710        6.00740
S          6.29760        3.99160        6.67390
C          5.21740        3.48850        5.44230
C          9.47780       -0.27320        2.61440
C          9.68790       -1.42900        3.28320
C          8.56700       -2.27160        3.77460
O          7.38580       -2.11730        3.54830
C          9.18790       -3.29210        4.63500
C          8.53090       -4.28950        5.35210
C          9.36620       -5.08850        6.09410
C         10.75640       -4.90800        6.12650
C         11.41750       -3.92740        5.42740
C         10.58620       -3.10360        4.66040
C         10.92990       -1.97630        3.80160
C         12.19170       -1.54170        3.50000
C         13.38050       -2.09560        4.01940
N         14.38660       -2.49550        4.40090
C         12.47160       -0.50350        2.58770
N         12.75930        0.30150        1.82040
C         10.96380       -6.06470        7.07200
C         11.49630       -7.39340        6.48060
C         11.07030       -7.41990        5.03350
C          9.75530       -7.59010        5.00140
C          9.26830       -7.68220        6.42640
C         10.47520       -8.37270        7.08130
C          9.41590       -6.26560        7.03500
H         -8.70920        0.18640        0.48690
H        -13.19040        2.21040       -1.37410
H         -9.95540        2.28430       -5.27460
H        -13.05790        3.42500       -6.25900
H        -11.84900        5.60160       -6.31060
H        -10.50550        5.75980       -4.07290
H        -12.23800        5.73350       -2.05970
H        -14.64950        5.54610       -3.05680
H        -14.47900        5.68330       -5.73940
H        -13.62380        7.04930       -4.98030
H        -14.73660        3.38600       -4.29590
H         -7.56140        3.92560        0.47350
H         -8.68760        2.57220        0.21940
H         -9.91710        4.74910        0.29380
H         -8.94250        5.34530       -1.05780
H        -10.06000        4.00150       -1.30260
H         -5.50110        4.53650       -0.32540
H         -4.01220        5.33520       -0.86090
H         -3.82040        4.64290        1.53660
H         -2.65730        3.76780        0.53510
H         -4.13100        2.96360        1.08250
H         -2.73200       -4.09520        0.74830
H         -7.17740       -4.26310        1.59320
H         -2.58170       -0.47320        1.02010
H         -1.89860       -0.53860        3.14900
H         -3.95380       -8.31090        4.56130
H         -4.47760       -6.78020        3.89940
H         -3.64460       -8.21540        2.09240
H         -2.55490       -6.84230        2.28150
H         -2.10050       -8.42030        2.91680
H         -0.39060       -7.83530        4.84850
H         -0.20780       -6.95750        6.34580
H         -1.97510       -9.41950        5.97500
H         -0.38760       -9.40270        6.73930
H         -1.73360       -8.55100        7.48960
H         -2.69040       -5.64930        7.64670
H         -3.86960       -4.90430        6.59810
H         -4.01530       -7.78290        7.60340
H         -5.20500       -7.00080        6.56870
H         -4.95690       -6.42590        8.21570
H          0.01070       -5.68790        3.43550
H          4.13390        3.95260       -5.27800
H          1.56350        7.16040       -8.76550
H          0.51750        6.82770       -7.40640
H          1.97520        4.71260       -9.05520
H          0.94060        4.37950       -7.66950
H          0.25420        5.08430       -9.13190
H          2.18400        8.59940       -5.56070
H          3.28720        8.99870       -6.85480
H          4.08960        7.71730       -4.20290
H          4.32200        9.41130       -4.63560
H          5.20240        8.15100       -5.49700
H          5.31980        5.89030       -6.86150
H          4.36900        4.86820       -7.91130
H          4.12320        6.74990       -9.53350
H          5.07970        7.78190       -8.47520
H          5.81870        6.37430       -9.23540
H         -0.13280        4.06210       -1.80870
H          3.95160        2.03790       -0.36530
H          5.82880       -1.01130       -2.97970
H          7.37930       -1.18400       -2.13050
H          5.66400        1.35940       -2.25840
H          7.19870        1.22490       -1.39030
H          7.16460        1.10040       -3.15270
H          9.89000        0.34550       -0.05640
H         10.90300       -1.06880        0.31930
H         10.59900       -1.86910       -2.04450
H         11.39830       -0.29570       -1.96340
H          9.69100       -0.39780       -2.41140
H          8.53660        3.04240        6.46490
H          4.20360        3.83690        5.42660
H         10.29200        0.38890        2.35520
H          7.45790       -4.38990        5.30170
H         12.48610       -3.79560        5.46810
H         11.42400       -5.82190        8.02770
H         12.54820       -7.58410        6.67510
H         11.74040       -7.25960        4.20940
H          9.10670       -7.59960        4.14510
H          8.29150       -8.13610        6.57170
H         10.44650       -8.35650        8.17000
H         10.61610       -9.39450        6.73220
H          8.86460       -6.15480        7.96680
