
  xtb     02152202513D
 energy: -387.553532038182 gnorm: 0.000463616935 xtb: 6.4.1 (unknown)
230254  0     0  0            999 V2000
    1.8095    4.0740   -8.2224 C   0  0  0  0  0  0  0  0  0  0  0  0
    2.4943    3.4315   -9.1961 C   0  0  0  0  0  0  0  0  0  0  0  0
    2.4780    1.9687   -9.4729 C   0  0  0  0  0  0  0  0  0  0  0  0
    1.8502    1.1113   -8.8914 O   0  0  0  0  0  0  0  0  0  0  0  0
    3.4112    1.7640  -10.5942 C   0  0  0  0  0  0  0  0  0  0  0  0
    3.7249    0.5509  -11.2010 C   0  0  0  0  0  0  0  0  0  0  0  0
    4.6408    0.6541  -12.2193 C   0  0  0  0  0  0  0  0  0  0  0  0
    5.1961    1.8788  -12.6169 C   0  0  0  0  0  0  0  0  0  0  0  0
    4.8952    3.0821  -12.0286 C   0  0  0  0  0  0  0  0  0  0  0  0
    3.9769    2.9974  -10.9755 C   0  0  0  0  0  0  0  0  0  0  0  0
    3.4715    4.0394  -10.0927 C   0  0  0  0  0  0  0  0  0  0  0  0
    3.9070    5.3376  -10.0656 C   0  0  0  0  0  0  0  0  0  0  0  0
    3.5137    6.3314   -9.1450 C   0  0  0  0  0  0  0  0  0  0  0  0
    3.2894    7.2039   -8.4313 N   0  0  0  0  0  0  0  0  0  0  0  0
    4.8774    5.8753  -10.9391 C   0  0  0  0  0  0  0  0  0  0  0  0
    5.6580    6.3916  -11.6041 N   0  0  0  0  0  0  0  0  0  0  0  0
    6.0479    1.2372  -13.6834 C   0  0  0  0  0  0  0  0  0  0  0  0
    7.5554    1.0533  -13.3792 C   0  0  0  0  0  0  0  0  0  0  0  0
    7.6801    0.9677  -11.8781 C   0  0  0  0  0  0  0  0  0  0  0  0
    7.1577   -0.1891  -11.4937 C   0  0  0  0  0  0  0  0  0  0  0  0
    6.6724   -0.9079  -12.7286 C   0  0  0  0  0  0  0  0  0  0  0  0
    7.7171   -0.4296  -13.7493 C   0  0  0  0  0  0  0  0  0  0  0  0
    5.4341   -0.1268  -13.2359 C   0  0  0  0  0  0  0  0  0  0  0  0
    0.9377    3.5000   -7.2286 C   0  0  0  0  0  0  0  0  0  0  0  0
    0.0076    2.4870   -7.4016 C   0  0  0  0  0  0  0  0  0  0  0  0
   -0.3916    2.1228   -8.6226 F   0  0  0  0  0  0  0  0  0  0  0  0
   -0.5830    1.8523   -6.2989 C   0  0  0  0  0  0  0  0  0  0  0  0
   -1.3509    0.7728   -6.5298 F   0  0  0  0  0  0  0  0  0  0  0  0
   -0.4253    2.2969   -4.9969 C   0  0  0  0  0  0  0  0  0  0  0  0
    0.2951    3.5115   -4.8275 C   0  0  0  0  0  0  0  0  0  0  0  0
    0.2576    4.2180   -3.7021 N   0  0  0  0  0  0  0  0  0  0  0  0
    1.0696    5.2347   -3.5076 C   0  0  0  0  0  0  0  0  0  0  0  0
    0.6669    6.2248   -2.5094 C   0  0  0  0  0  0  0  0  0  0  0  0
    1.4005    7.3888   -2.2610 C   0  0  0  0  0  0  0  0  0  0  0  0
    0.9000    8.3366   -1.3910 C   0  0  0  0  0  0  0  0  0  0  0  0
   -0.3431    8.1894   -0.7992 C   0  0  0  0  0  0  0  0  0  0  0  0
   -1.1075    7.0559   -1.0728 C   0  0  0  0  0  0  0  0  0  0  0  0
   -2.3586    6.8186   -0.6111 O   0  0  0  0  0  0  0  0  0  0  0  0
   -3.0527    7.8333    0.0891 C   0  0  0  0  0  0  0  0  0  0  0  0
   -3.5336    8.9575   -0.8238 C   0  0  0  0  0  0  0  0  0  0  0  0
   -0.5736    6.0658   -1.8942 C   0  0  0  0  0  0  0  0  0  0  0  0
    2.1849    5.3689   -4.4112 C   0  0  0  0  0  0  0  0  0  0  0  0
    2.0774    4.8390   -5.6064 N   0  0  0  0  0  0  0  0  0  0  0  0
    1.0803    4.0022   -5.9050 C   0  0  0  0  0  0  0  0  0  0  0  0
    3.4882    5.9709   -4.1245 C   0  0  0  0  0  0  0  0  0  0  0  0
    4.1568    6.6518   -5.1369 C   0  0  0  0  0  0  0  0  0  0  0  0
    5.4305    7.1399   -4.9044 C   0  0  0  0  0  0  0  0  0  0  0  0
    6.0431    6.9399   -3.6853 C   0  0  0  0  0  0  0  0  0  0  0  0
    5.3829    6.2518   -2.6622 C   0  0  0  0  0  0  0  0  0  0  0  0
    6.1052    6.0878   -1.5211 O   0  0  0  0  0  0  0  0  0  0  0  0
    5.4796    5.6200   -0.3449 C   0  0  0  0  0  0  0  0  0  0  0  0
    4.5938    6.6815    0.3002 C   0  0  0  0  0  0  0  0  0  0  0  0
    4.0997    5.7709   -2.8852 C   0  0  0  0  0  0  0  0  0  0  0  0
   -0.8629    1.5101   -3.8694 C   0  0  0  0  0  0  0  0  0  0  0  0
   -0.5752    0.1665   -3.6889 C   0  0  0  0  0  0  0  0  0  0  0  0
    0.2434   -0.6128   -4.4892 N   0  0  0  0  0  0  0  0  0  0  0  0
    1.3933   -0.0943   -5.0897 C   0  0  0  0  0  0  0  0  0  0  0  0
    1.8763   -0.6357   -6.2807 C   0  0  0  0  0  0  0  0  0  0  0  0
    2.9600   -0.0695   -6.9158 C   0  0  0  0  0  0  0  0  0  0  0  0
    3.5566    1.0802   -6.4034 C   0  0  0  0  0  0  0  0  0  0  0  0
    4.7965    1.8552   -7.3944 S   0  0  0  0  0  0  0  0  0  0  0  0
    4.9845    3.4988   -6.6440 C   0  0  0  0  0  0  0  0  0  0  0  0
    3.1408    1.5705   -5.1731 C   0  0  0  0  0  0  0  0  0  0  0  0
    2.0860    0.9729   -4.5145 C   0  0  0  0  0  0  0  0  0  0  0  0
   -0.0820   -1.9754   -4.5995 C   0  0  0  0  0  0  0  0  0  0  0  0
   -1.4113   -2.3524   -4.7930 C   0  0  0  0  0  0  0  0  0  0  0  0
   -1.7511   -3.6841   -4.8565 C   0  0  0  0  0  0  0  0  0  0  0  0
   -0.7728   -4.6695   -4.7341 C   0  0  0  0  0  0  0  0  0  0  0  0
   -1.3348   -6.3388   -4.8257 S   0  0  0  0  0  0  0  0  0  0  0  0
    0.1754   -7.3263   -4.6272 C   0  0  0  0  0  0  0  0  0  0  0  0
    0.5530   -4.2972   -4.5555 C   0  0  0  0  0  0  0  0  0  0  0  0
    0.8936   -2.9602   -4.4856 C   0  0  0  0  0  0  0  0  0  0  0  0
   -1.1342   -0.3033   -2.4770 C   0  0  0  0  0  0  0  0  0  0  0  0
   -1.1459   -1.8352   -1.6888 S   0  0  0  0  0  0  0  0  0  0  0  0
   -2.0013   -1.1497   -0.3153 C   0  0  0  0  0  0  0  0  0  0  0  0
   -2.3030    0.1944   -0.4987 C   0  0  0  0  0  0  0  0  0  0  0  0
   -2.9635    1.0160    0.4141 N   0  0  0  0  0  0  0  0  0  0  0  0
   -2.3591    2.2318    0.7522 C   0  0  0  0  0  0  0  0  0  0  0  0
   -3.1153    3.3673    1.0480 C   0  0  0  0  0  0  0  0  0  0  0  0
   -2.4981    4.5316    1.4415 C   0  0  0  0  0  0  0  0  0  0  0  0
   -1.1107    4.6127    1.5052 C   0  0  0  0  0  0  0  0  0  0  0  0
   -0.4253    6.1444    2.0586 S   0  0  0  0  0  0  0  0  0  0  0  0
    1.2947    6.0571    1.4907 C   0  0  0  0  0  0  0  0  0  0  0  0
   -0.3495    3.5034    1.1701 C   0  0  0  0  0  0  0  0  0  0  0  0
   -0.9697    2.3232    0.8091 C   0  0  0  0  0  0  0  0  0  0  0  0
   -4.2802    0.7327    0.7942 C   0  0  0  0  0  0  0  0  0  0  0  0
   -4.7596    1.1251    2.0451 C   0  0  0  0  0  0  0  0  0  0  0  0
   -6.0780    0.9176    2.3955 C   0  0  0  0  0  0  0  0  0  0  0  0
   -6.9439    0.2977    1.5033 C   0  0  0  0  0  0  0  0  0  0  0  0
   -8.6601    0.0327    1.8290 S   0  0  0  0  0  0  0  0  0  0  0  0
   -9.0105    1.1545    3.2137 C   0  0  0  0  0  0  0  0  0  0  0  0
   -6.4544   -0.1593    0.2825 C   0  0  0  0  0  0  0  0  0  0  0  0
   -5.1403    0.0560   -0.0714 C   0  0  0  0  0  0  0  0  0  0  0  0
   -1.7837    0.6672   -1.7319 C   0  0  0  0  0  0  0  0  0  0  0  0
   -1.7084    2.2163   -2.5076 S   0  0  0  0  0  0  0  0  0  0  0  0
   -2.1326   -1.9939    0.8256 C   0  0  0  0  0  0  0  0  0  0  0  0
   -2.9006   -1.9068    1.9504 C   0  0  0  0  0  0  0  0  0  0  0  0
   -2.6084   -2.8983    2.9182 C   0  0  0  0  0  0  0  0  0  0  0  0
   -3.1985   -3.0598    4.1894 C   0  0  0  0  0  0  0  0  0  0  0  0
   -4.4304   -2.3961    4.5356 C   0  0  0  0  0  0  0  0  0  0  0  0
   -5.4997   -2.2060    3.7001 C   0  0  0  0  0  0  0  0  0  0  0  0
   -6.6385   -1.6240    4.2806 C   0  0  0  0  0  0  0  0  0  0  0  0
   -6.5083   -1.2972    5.6012 C   0  0  0  0  0  0  0  0  0  0  0  0
   -7.7805   -0.5188    6.5212 S   0  0  0  0  0  0  0  0  0  0  0  0
   -7.2462   -0.7974    8.2456 C   0  0  0  0  0  0  0  0  0  0  0  0
   -6.2766    0.2640    8.7250 C   0  0  0  0  0  0  0  0  0  0  0  0
   -4.8065   -1.7667    6.2663 Se  0  0  0  0  0  2  0  0  0  0  0  0
   -2.5468   -3.9283    5.0620 C   0  0  0  0  0  0  0  0  0  0  0  0
   -1.4535   -4.7447    4.6732 C   0  0  0  0  0  0  0  0  0  0  0  0
   -0.9959   -4.7348    3.3268 C   0  0  0  0  0  0  0  0  0  0  0  0
   -0.0152   -5.6738    2.8545 C   0  0  0  0  0  0  0  0  0  0  0  0
    0.1781   -6.9640    3.2823 C   0  0  0  0  0  0  0  0  0  0  0  0
    1.2138   -7.6784    2.6592 C   0  0  0  0  0  0  0  0  0  0  0  0
    1.9065   -6.9813    1.7064 C   0  0  0  0  0  0  0  0  0  0  0  0
    3.2815   -7.6359    0.8504 S   0  0  0  0  0  0  0  0  0  0  0  0
    3.6021   -6.3418   -0.3986 C   0  0  0  0  0  0  0  0  0  0  0  0
    2.6189   -6.3942   -1.5510 C   0  0  0  0  0  0  0  0  0  0  0  0
    1.2172   -5.2404    1.4943 Se  0  0  0  0  0  2  0  0  0  0  0  0
   -1.5509   -3.7506    2.5173 C   0  0  0  0  0  0  0  0  0  0  0  0
   -1.0390   -3.3731    0.8980 S   0  0  0  0  0  0  0  0  0  0  0  0
   -0.9278   -5.4408    5.7697 C   0  0  0  0  0  0  0  0  0  0  0  0
   -1.5844   -5.2023    6.9646 C   0  0  0  0  0  0  0  0  0  0  0  0
   -2.9312   -4.1050    6.7460 S   0  0  0  0  0  0  0  0  0  0  0  0
   -1.1681   -5.7825    8.1781 C   0  0  0  0  0  0  0  0  0  0  0  0
   -1.6275   -5.5981    9.4524 C   0  0  0  0  0  0  0  0  0  0  0  0
   -2.6882   -4.6680    9.8786 C   0  0  0  0  0  0  0  0  0  0  0  0
   -3.4444   -4.0223    9.1770 O   0  0  0  0  0  0  0  0  0  0  0  0
   -2.6586   -4.6626   11.3514 C   0  0  0  0  0  0  0  0  0  0  0  0
   -3.4320   -3.8730   12.2001 C   0  0  0  0  0  0  0  0  0  0  0  0
   -3.1658   -4.0603   13.5349 C   0  0  0  0  0  0  0  0  0  0  0  0
   -2.1980   -4.9646   13.9929 C   0  0  0  0  0  0  0  0  0  0  0  0
   -1.4310   -5.7515   13.1673 C   0  0  0  0  0  0  0  0  0  0  0  0
   -1.6897   -5.5806   11.8035 C   0  0  0  0  0  0  0  0  0  0  0  0
   -1.0774   -6.2221   10.6423 C   0  0  0  0  0  0  0  0  0  0  0  0
   -0.1804   -7.2581   10.6908 C   0  0  0  0  0  0  0  0  0  0  0  0
    0.3746   -7.9208    9.5759 C   0  0  0  0  0  0  0  0  0  0  0  0
    0.8654   -8.5224    8.7288 N   0  0  0  0  0  0  0  0  0  0  0  0
    0.2980   -7.8438   11.8817 C   0  0  0  0  0  0  0  0  0  0  0  0
    0.7319   -8.3694   12.8057 N   0  0  0  0  0  0  0  0  0  0  0  0
   -2.4536   -4.6289   15.4410 C   0  0  0  0  0  0  0  0  0  0  0  0
   -3.2866   -5.6461   16.2491 C   0  0  0  0  0  0  0  0  0  0  0  0
   -3.7719   -4.8507   17.4395 C   0  0  0  0  0  0  0  0  0  0  0  0
   -4.6900   -3.9961   17.0065 C   0  0  0  0  0  0  0  0  0  0  0  0
   -4.8409   -4.1995   15.5161 C   0  0  0  0  0  0  0  0  0  0  0  0
   -4.5811   -5.7089   15.4282 C   0  0  0  0  0  0  0  0  0  0  0  0
   -3.5344   -3.6224   14.9307 C   0  0  0  0  0  0  0  0  0  0  0  0
    2.0140    5.1228   -8.0522 H   0  0  0  0  0  0  0  0  0  0  0  0
    3.2661   -0.3678  -10.8704 H   0  0  0  0  0  0  0  0  0  0  0  0
    5.3303    4.0144  -12.3475 H   0  0  0  0  0  0  0  0  0  0  0  0
    5.8664    1.5677  -14.7041 H   0  0  0  0  0  0  0  0  0  0  0  0
    8.2065    1.7677  -13.8757 H   0  0  0  0  0  0  0  0  0  0  0  0
    8.0679    1.7581  -11.2627 H   0  0  0  0  0  0  0  0  0  0  0  0
    7.0209   -0.5546  -10.4929 H   0  0  0  0  0  0  0  0  0  0  0  0
    6.5210   -1.9799  -12.6324 H   0  0  0  0  0  0  0  0  0  0  0  0
    8.7158   -0.8094  -13.5391 H   0  0  0  0  0  0  0  0  0  0  0  0
    7.4488   -0.6511  -14.7814 H   0  0  0  0  0  0  0  0  0  0  0  0
    4.8571   -0.6919  -13.9653 H   0  0  0  0  0  0  0  0  0  0  0  0
    2.3403    7.5668   -2.7564 H   0  0  0  0  0  0  0  0  0  0  0  0
    1.4776    9.2262   -1.1861 H   0  0  0  0  0  0  0  0  0  0  0  0
   -0.7031    8.9615   -0.1387 H   0  0  0  0  0  0  0  0  0  0  0  0
   -3.9174    7.3195    0.5176 H   0  0  0  0  0  0  0  0  0  0  0  0
   -2.4410    8.2225    0.9120 H   0  0  0  0  0  0  0  0  0  0  0  0
   -4.1642    8.5480   -1.6091 H   0  0  0  0  0  0  0  0  0  0  0  0
   -4.1099    9.6750   -0.2463 H   0  0  0  0  0  0  0  0  0  0  0  0
   -2.6968    9.4711   -1.2906 H   0  0  0  0  0  0  0  0  0  0  0  0
   -1.1572    5.1795   -2.0848 H   0  0  0  0  0  0  0  0  0  0  0  0
    3.6712    6.8070   -6.0869 H   0  0  0  0  0  0  0  0  0  0  0  0
    5.9473    7.6779   -5.6840 H   0  0  0  0  0  0  0  0  0  0  0  0
    7.0395    7.3032   -3.4898 H   0  0  0  0  0  0  0  0  0  0  0  0
    4.9126    4.7008   -0.5384 H   0  0  0  0  0  0  0  0  0  0  0  0
    6.3115    5.3745    0.3210 H   0  0  0  0  0  0  0  0  0  0  0  0
    5.1718    7.5877    0.4623 H   0  0  0  0  0  0  0  0  0  0  0  0
    4.2276    6.3209    1.2569 H   0  0  0  0  0  0  0  0  0  0  0  0
    3.7454    6.9220   -0.3368 H   0  0  0  0  0  0  0  0  0  0  0  0
    3.5607    5.2241   -2.1256 H   0  0  0  0  0  0  0  0  0  0  0  0
    1.3781   -1.4831   -6.7244 H   0  0  0  0  0  0  0  0  0  0  0  0
    3.3364   -0.4985   -7.8297 H   0  0  0  0  0  0  0  0  0  0  0  0
    5.5112    3.4231   -5.6969 H   0  0  0  0  0  0  0  0  0  0  0  0
    5.5834    4.0752   -7.3426 H   0  0  0  0  0  0  0  0  0  0  0  0
    4.0104    3.9652   -6.5134 H   0  0  0  0  0  0  0  0  0  0  0  0
    3.6338    2.4150   -4.7172 H   0  0  0  0  0  0  0  0  0  0  0  0
    1.7850    1.3512   -3.5483 H   0  0  0  0  0  0  0  0  0  0  0  0
   -2.1681   -1.5909   -4.9046 H   0  0  0  0  0  0  0  0  0  0  0  0
   -2.7778   -3.9799   -5.0074 H   0  0  0  0  0  0  0  0  0  0  0  0
    0.6203   -7.1293   -3.6566 H   0  0  0  0  0  0  0  0  0  0  0  0
    0.8701   -7.1120   -5.4340 H   0  0  0  0  0  0  0  0  0  0  0  0
   -0.1451   -8.3618   -4.6834 H   0  0  0  0  0  0  0  0  0  0  0  0
    1.3306   -5.0379   -4.4611 H   0  0  0  0  0  0  0  0  0  0  0  0
    1.9245   -2.6748   -4.3351 H   0  0  0  0  0  0  0  0  0  0  0  0
   -4.1905    3.3351    0.9664 H   0  0  0  0  0  0  0  0  0  0  0  0
   -3.0870    5.3966    1.6991 H   0  0  0  0  0  0  0  0  0  0  0  0
    1.3097    5.7756    0.4419 H   0  0  0  0  0  0  0  0  0  0  0  0
    1.8567    5.3554    2.1010 H   0  0  0  0  0  0  0  0  0  0  0  0
    1.6981    7.0574    1.6119 H   0  0  0  0  0  0  0  0  0  0  0  0
    0.7279    3.5341    1.2078 H   0  0  0  0  0  0  0  0  0  0  0  0
   -0.3669    1.4558    0.5830 H   0  0  0  0  0  0  0  0  0  0  0  0
   -4.0898    1.5978    2.7483 H   0  0  0  0  0  0  0  0  0  0  0  0
   -6.4162    1.2353    3.3685 H   0  0  0  0  0  0  0  0  0  0  0  0
  -10.0919    1.1717    3.3065 H   0  0  0  0  0  0  0  0  0  0  0  0
   -8.6422    2.1475    2.9748 H   0  0  0  0  0  0  0  0  0  0  0  0
   -8.5726    0.7793    4.1352 H   0  0  0  0  0  0  0  0  0  0  0  0
   -7.1242   -0.6653   -0.3955 H   0  0  0  0  0  0  0  0  0  0  0  0
   -4.7785   -0.2788   -1.0319 H   0  0  0  0  0  0  0  0  0  0  0  0
   -3.6371   -1.1434    2.1107 H   0  0  0  0  0  0  0  0  0  0  0  0
   -5.4943   -2.5422    2.6768 H   0  0  0  0  0  0  0  0  0  0  0  0
   -7.5559   -1.4857    3.7370 H   0  0  0  0  0  0  0  0  0  0  0  0
   -6.8037   -1.7956    8.2848 H   0  0  0  0  0  0  0  0  0  0  0  0
   -8.1667   -0.7839    8.8291 H   0  0  0  0  0  0  0  0  0  0  0  0
   -5.3686    0.2545    8.1197 H   0  0  0  0  0  0  0  0  0  0  0  0
   -6.0010    0.0693    9.7592 H   0  0  0  0  0  0  0  0  0  0  0  0
   -6.7279    1.2515    8.6601 H   0  0  0  0  0  0  0  0  0  0  0  0
   -0.4664   -7.4275    4.0097 H   0  0  0  0  0  0  0  0  0  0  0  0
    1.4481   -8.6993    2.9063 H   0  0  0  0  0  0  0  0  0  0  0  0
    4.6197   -6.5314   -0.7392 H   0  0  0  0  0  0  0  0  0  0  0  0
    3.5685   -5.3778    0.1183 H   0  0  0  0  0  0  0  0  0  0  0  0
    2.6637   -7.3661   -2.0383 H   0  0  0  0  0  0  0  0  0  0  0  0
    1.6020   -6.2232   -1.1955 H   0  0  0  0  0  0  0  0  0  0  0  0
    2.8634   -5.6197   -2.2754 H   0  0  0  0  0  0  0  0  0  0  0  0
   -0.0541   -6.0663    5.7218 H   0  0  0  0  0  0  0  0  0  0  0  0
   -0.3258   -6.4531    8.0544 H   0  0  0  0  0  0  0  0  0  0  0  0
   -4.1591   -3.1820   11.8027 H   0  0  0  0  0  0  0  0  0  0  0  0
   -0.6846   -6.4345   13.5365 H   0  0  0  0  0  0  0  0  0  0  0  0
   -1.6008   -4.2413   15.9950 H   0  0  0  0  0  0  0  0  0  0  0  0
   -2.7800   -6.5838   16.4598 H   0  0  0  0  0  0  0  0  0  0  0  0
   -3.3707   -4.9496   18.4310 H   0  0  0  0  0  0  0  0  0  0  0  0
   -5.2088   -3.2384   17.5642 H   0  0  0  0  0  0  0  0  0  0  0  0
   -5.7514   -3.8199   15.0602 H   0  0  0  0  0  0  0  0  0  0  0  0
   -4.4454   -6.0778   14.4132 H   0  0  0  0  0  0  0  0  0  0  0  0
   -5.3561   -6.2894   15.9259 H   0  0  0  0  0  0  0  0  0  0  0  0
   -3.4028   -2.5635   15.1461 H   0  0  0  0  0  0  0  0  0  0  0  0
  1  2  2  0  0  0  0
  2  3  1  0  0  0  0
  3  4  2  0  0  0  0
  3  5  1  0  0  0  0
  5  6  2  0  0  0  0
  6  7  1  0  0  0  0
  7  8  2  0  0  0  0
  8  9  1  0  0  0  0
  9 10  2  0  0  0  0
 10 11  1  0  0  0  0
 11 12  2  0  0  0  0
 12 13  1  0  0  0  0
 13 14  3  0  0  0  0
 12 15  1  0  0  0  0
 15 16  3  0  0  0  0
  8 17  1  0  0  0  0
 17 18  1  0  0  0  0
 18 19  1  0  0  0  0
 19 20  2  0  0  0  0
 20 21  1  0  0  0  0
 21 22  1  0  0  0  0
 21 23  1  0  0  0  0
  1 24  1  0  0  0  0
 24 25  2  0  0  0  0
 25 26  1  0  0  0  0
 25 27  1  0  0  0  0
 27 28  1  0  0  0  0
 27 29  2  0  0  0  0
 29 30  1  0  0  0  0
 30 31  2  0  0  0  0
 31 32  1  0  0  0  0
 32 33  1  0  0  0  0
 33 34  2  0  0  0  0
 34 35  1  0  0  0  0
 35 36  2  0  0  0  0
 36 37  1  0  0  0  0
 37 38  1  0  0  0  0
 38 39  1  0  0  0  0
 39 40  1  0  0  0  0
 37 41  2  0  0  0  0
 32 42  2  0  0  0  0
 42 43  1  0  0  0  0
 43 44  2  0  0  0  0
 42 45  1  0  0  0  0
 45 46  2  0  0  0  0
 46 47  1  0  0  0  0
 47 48  2  0  0  0  0
 48 49  1  0  0  0  0
 49 50  1  0  0  0  0
 50 51  1  0  0  0  0
 51 52  1  0  0  0  0
 49 53  2  0  0  0  0
 29 54  1  0  0  0  0
 54 55  2  0  0  0  0
 55 56  1  0  0  0  0
 56 57  1  0  0  0  0
 57 58  2  0  0  0  0
 58 59  1  0  0  0  0
 59 60  2  0  0  0  0
 60 61  1  0  0  0  0
 61 62  1  0  0  0  0
 60 63  1  0  0  0  0
 63 64  2  0  0  0  0
 56 65  1  0  0  0  0
 65 66  2  0  0  0  0
 66 67  1  0  0  0  0
 67 68  2  0  0  0  0
 68 69  1  0  0  0  0
 69 70  1  0  0  0  0
 68 71  1  0  0  0  0
 71 72  2  0  0  0  0
 55 73  1  0  0  0  0
 73 74  1  0  0  0  0
 74 75  1  0  0  0  0
 75 76  2  0  0  0  0
 76 77  1  0  0  0  0
 77 78  1  0  0  0  0
 78 79  2  0  0  0  0
 79 80  1  0  0  0  0
 80 81  2  0  0  0  0
 81 82  1  0  0  0  0
 82 83  1  0  0  0  0
 81 84  1  0  0  0  0
 84 85  2  0  0  0  0
 77 86  1  0  0  0  0
 86 87  2  0  0  0  0
 87 88  1  0  0  0  0
 88 89  2  0  0  0  0
 89 90  1  0  0  0  0
 90 91  1  0  0  0  0
 89 92  1  0  0  0  0
 92 93  2  0  0  0  0
 76 94  1  0  0  0  0
 94 95  1  0  0  0  0
 75 96  1  0  0  0  0
 96 97  2  0  0  0  0
 97 98  1  0  0  0  0
 98 99  2  0  0  0  0
 99100  1  0  0  0  0
100101  2  0  0  0  0
101102  1  0  0  0  0
102103  2  0  0  0  0
103104  1  0  0  0  0
104105  1  0  0  0  0
105106  1  0  0  0  0
103107  1  0  0  0  0
 99108  1  0  0  0  0
108109  2  0  0  0  0
109110  1  0  0  0  0
110111  1  0  0  0  0
111112  2  0  0  0  0
112113  1  0  0  0  0
113114  2  0  0  0  0
114115  1  0  0  0  0
115116  1  0  0  0  0
116117  1  0  0  0  0
114118  1  0  0  0  0
110119  2  0  0  0  0
119120  1  0  0  0  0
109121  1  0  0  0  0
121122  2  0  0  0  0
122123  1  0  0  0  0
122124  1  0  0  0  0
124125  2  0  0  0  0
125126  1  0  0  0  0
126127  2  0  0  0  0
126128  1  0  0  0  0
128129  2  0  0  0  0
129130  1  0  0  0  0
130131  2  0  0  0  0
131132  1  0  0  0  0
132133  2  0  0  0  0
133134  1  0  0  0  0
134135  2  0  0  0  0
135136  1  0  0  0  0
136137  3  0  0  0  0
135138  1  0  0  0  0
138139  3  0  0  0  0
131140  1  0  0  0  0
140141  1  0  0  0  0
141142  1  0  0  0  0
142143  2  0  0  0  0
143144  1  0  0  0  0
144145  1  0  0  0  0
144146  1  0  0  0  0
 11  2  1  0  0  0  0
 23 17  1  0  0  0  0
 44 24  1  0  0  0  0
 53 45  1  0  0  0  0
 95 54  1  0  0  0  0
120 96  1  0  0  0  0
134125  1  0  0  0  0
146140  1  0  0  0  0
 10  5  1  0  0  0  0
 22 18  1  0  0  0  0
 44 30  1  0  0  0  0
 64 57  1  0  0  0  0
 72 65  1  0  0  0  0
 94 73  2  0  0  0  0
119 98  1  0  0  0  0
133128  1  0  0  0  0
145141  1  0  0  0  0
 23  7  1  0  0  0  0
 41 33  1  0  0  0  0
 85 78  1  0  0  0  0
 93 86  1  0  0  0  0
107100  1  0  0  0  0
123108  1  0  0  0  0
146130  1  0  0  0  0
118111  1  0  0  0  0
  1147  1  0  0  0  0
  6148  1  0  0  0  0
  9149  1  0  0  0  0
 17150  1  0  0  0  0
 18151  1  0  0  0  0
 19152  1  0  0  0  0
 20153  1  0  0  0  0
 21154  1  0  0  0  0
 22155  1  0  0  0  0
 22156  1  0  0  0  0
 23157  1  0  0  0  0
 34158  1  0  0  0  0
 35159  1  0  0  0  0
 36160  1  0  0  0  0
 39161  1  0  0  0  0
 39162  1  0  0  0  0
 40163  1  0  0  0  0
 40164  1  0  0  0  0
 40165  1  0  0  0  0
 41166  1  0  0  0  0
 46167  1  0  0  0  0
 47168  1  0  0  0  0
 48169  1  0  0  0  0
 51170  1  0  0  0  0
 51171  1  0  0  0  0
 52172  1  0  0  0  0
 52173  1  0  0  0  0
 52174  1  0  0  0  0
 53175  1  0  0  0  0
 58176  1  0  0  0  0
 59177  1  0  0  0  0
 62178  1  0  0  0  0
 62179  1  0  0  0  0
 62180  1  0  0  0  0
 63181  1  0  0  0  0
 64182  1  0  0  0  0
 66183  1  0  0  0  0
 67184  1  0  0  0  0
 70185  1  0  0  0  0
 70186  1  0  0  0  0
 70187  1  0  0  0  0
 71188  1  0  0  0  0
 72189  1  0  0  0  0
 79190  1  0  0  0  0
 80191  1  0  0  0  0
 83192  1  0  0  0  0
 83193  1  0  0  0  0
 83194  1  0  0  0  0
 84195  1  0  0  0  0
 85196  1  0  0  0  0
 87197  1  0  0  0  0
 88198  1  0  0  0  0
 91199  1  0  0  0  0
 91200  1  0  0  0  0
 91201  1  0  0  0  0
 92202  1  0  0  0  0
 93203  1  0  0  0  0
 97204  1  0  0  0  0
101205  1  0  0  0  0
102206  1  0  0  0  0
105207  1  0  0  0  0
105208  1  0  0  0  0
106209  1  0  0  0  0
106210  1  0  0  0  0
106211  1  0  0  0  0
112212  1  0  0  0  0
113213  1  0  0  0  0
116214  1  0  0  0  0
116215  1  0  0  0  0
117216  1  0  0  0  0
117217  1  0  0  0  0
117218  1  0  0  0  0
121219  1  0  0  0  0
124220  1  0  0  0  0
129221  1  0  0  0  0
132222  1  0  0  0  0
140223  1  0  0  0  0
141224  1  0  0  0  0
142225  1  0  0  0  0
143226  1  0  0  0  0
144227  1  0  0  0  0
145228  1  0  0  0  0
145229  1  0  0  0  0
146230  1  0  0  0  0
M  END
