
  xtb     02162213253D
 energy: -189.302842881370 gnorm: 0.000425746966 xtb: 6.4.1 (unknown)
104117  0     0  0            999 V2000
    1.9040   -5.9425   -4.4532 C   0  0  0  0  0  0  0  0  0  0  0  0
    3.0011   -6.0207   -3.6564 C   0  0  0  0  0  0  0  0  0  0  0  0
    3.3141   -5.1523   -2.4978 C   0  0  0  0  0  0  0  0  0  0  0  0
    2.7535   -4.1283   -2.1604 O   0  0  0  0  0  0  0  0  0  0  0  0
    4.4535   -5.7793   -1.8139 C   0  0  0  0  0  0  0  0  0  0  0  0
    5.0508   -5.3500   -0.6290 C   0  0  0  0  0  0  0  0  0  0  0  0
    6.0926   -6.1404   -0.2104 C   0  0  0  0  0  0  0  0  0  0  0  0
    6.5072   -7.2806   -0.9144 C   0  0  0  0  0  0  0  0  0  0  0  0
    5.9283   -7.7145   -2.0827 C   0  0  0  0  0  0  0  0  0  0  0  0
    4.8699   -6.9177   -2.5340 C   0  0  0  0  0  0  0  0  0  0  0  0
    4.0310   -7.0538   -3.7205 C   0  0  0  0  0  0  0  0  0  0  0  0
    4.2222   -7.9543   -4.7305 C   0  0  0  0  0  0  0  0  0  0  0  0
    5.2565   -8.9166   -4.7523 C   0  0  0  0  0  0  0  0  0  0  0  0
    6.0710   -9.7205   -4.8365 N   0  0  0  0  0  0  0  0  0  0  0  0
    3.4600   -8.0430   -5.9178 C   0  0  0  0  0  0  0  0  0  0  0  0
    2.9165   -8.1824   -6.9187 N   0  0  0  0  0  0  0  0  0  0  0  0
    7.5990   -7.5932    0.0777 C   0  0  0  0  0  0  0  0  0  0  0  0
    9.0385   -7.2324   -0.3470 C   0  0  0  0  0  0  0  0  0  0  0  0
    9.8010   -7.1934    0.9578 C   0  0  0  0  0  0  0  0  0  0  0  0
    9.4108   -6.1126    1.6213 C   0  0  0  0  0  0  0  0  0  0  0  0
    8.3774   -5.4029    0.7764 C   0  0  0  0  0  0  0  0  0  0  0  0
    8.9131   -5.7286   -0.6238 C   0  0  0  0  0  0  0  0  0  0  0  0
    7.1391   -6.3210    0.8599 C   0  0  0  0  0  0  0  0  0  0  0  0
    0.8392   -5.0048   -4.4230 C   0  0  0  0  0  0  0  0  0  0  0  0
   -0.1914   -5.1905   -5.2215 N   0  0  0  0  0  0  0  0  0  0  0  0
   -1.1194   -4.2974   -5.1207 N   0  0  0  0  0  0  0  0  0  0  0  0
   -0.8618   -3.3588   -4.2412 C   0  0  0  0  0  0  0  0  0  0  0  0
    0.6674   -3.5659   -3.4352 S   0  0  0  0  0  0  0  0  0  0  0  0
   -1.7491   -2.2738   -3.9313 C   0  0  0  0  0  0  0  0  0  0  0  0
   -2.9590   -2.0624   -4.5761 C   0  0  0  0  0  0  0  0  0  0  0  0
   -3.3591   -2.8689   -5.5562 F   0  0  0  0  0  0  0  0  0  0  0  0
   -3.8138   -0.9987   -4.2326 C   0  0  0  0  0  0  0  0  0  0  0  0
   -4.9506   -0.8888   -4.9157 F   0  0  0  0  0  0  0  0  0  0  0  0
   -3.4975   -0.0967   -3.2279 C   0  0  0  0  0  0  0  0  0  0  0  0
   -2.2561   -0.2876   -2.5590 C   0  0  0  0  0  0  0  0  0  0  0  0
   -1.9017    0.5537   -1.5808 N   0  0  0  0  0  0  0  0  0  0  0  0
   -0.7635    0.4063   -0.9503 C   0  0  0  0  0  0  0  0  0  0  0  0
   -0.4742    1.4248    0.1066 C   0  0  0  0  0  0  0  0  0  0  0  0
    0.5069    2.4824   -0.4050 C   0  0  0  0  0  0  0  0  0  0  0  0
    0.1066   -0.6702   -1.3004 C   0  0  0  0  0  0  0  0  0  0  0  0
   -0.2418   -1.5086   -2.2455 N   0  0  0  0  0  0  0  0  0  0  0  0
   -1.3976   -1.3555   -2.9022 C   0  0  0  0  0  0  0  0  0  0  0  0
    1.4348   -0.9268   -0.6614 C   0  0  0  0  0  0  0  0  0  0  0  0
    2.5655   -0.6550   -1.6574 C   0  0  0  0  0  0  0  0  0  0  0  0
   -4.3499    0.9871   -2.8283 C   0  0  0  0  0  0  0  0  0  0  0  0
   -5.5404    1.2166   -3.3287 N   0  0  0  0  0  0  0  0  0  0  0  0
   -6.1447    2.2297   -2.8018 N   0  0  0  0  0  0  0  0  0  0  0  0
   -5.4644    2.8422   -1.8544 C   0  0  0  0  0  0  0  0  0  0  0  0
   -3.8975    2.1088   -1.5750 S   0  0  0  0  0  0  0  0  0  0  0  0
   -6.0464    3.9652   -1.2113 C   0  0  0  0  0  0  0  0  0  0  0  0
   -5.5902    4.6788   -0.1495 C   0  0  0  0  0  0  0  0  0  0  0  0
   -4.3818    4.3903    0.6585 C   0  0  0  0  0  0  0  0  0  0  0  0
   -3.5071    3.5779    0.4296 O   0  0  0  0  0  0  0  0  0  0  0  0
   -4.4451    5.2867    1.8213 C   0  0  0  0  0  0  0  0  0  0  0  0
   -3.5458    5.3336    2.8857 C   0  0  0  0  0  0  0  0  0  0  0  0
   -3.8528    6.2755    3.8364 C   0  0  0  0  0  0  0  0  0  0  0  0
   -4.9788    7.1066    3.7411 C   0  0  0  0  0  0  0  0  0  0  0  0
   -5.8751    7.0682    2.7004 C   0  0  0  0  0  0  0  0  0  0  0  0
   -5.5755    6.1230    1.7139 C   0  0  0  0  0  0  0  0  0  0  0  0
   -6.2733    5.8103    0.4712 C   0  0  0  0  0  0  0  0  0  0  0  0
   -7.3386    6.4989   -0.0374 C   0  0  0  0  0  0  0  0  0  0  0  0
   -7.9472    7.6054    0.5964 C   0  0  0  0  0  0  0  0  0  0  0  0
   -8.4902    8.5082    1.0513 N   0  0  0  0  0  0  0  0  0  0  0  0
   -7.9738    6.2519   -1.2760 C   0  0  0  0  0  0  0  0  0  0  0  0
   -8.5423    6.1475   -2.2673 N   0  0  0  0  0  0  0  0  0  0  0  0
   -4.6622    7.8166    5.0324 C   0  0  0  0  0  0  0  0  0  0  0  0
   -4.0381    9.2313    4.9375 C   0  0  0  0  0  0  0  0  0  0  0  0
   -3.3073    9.2909    3.6189 C   0  0  0  0  0  0  0  0  0  0  0  0
   -2.2419    8.5062    3.7105 C   0  0  0  0  0  0  0  0  0  0  0  0
   -2.2337    7.9006    5.0927 C   0  0  0  0  0  0  0  0  0  0  0  0
   -2.8507    9.0555    5.8976 C   0  0  0  0  0  0  0  0  0  0  0  0
   -3.4086    6.8919    5.1387 C   0  0  0  0  0  0  0  0  0  0  0  0
    1.7546   -6.6967   -5.2166 H   0  0  0  0  0  0  0  0  0  0  0  0
    4.6923   -4.4716   -0.1155 H   0  0  0  0  0  0  0  0  0  0  0  0
    6.2539   -8.5986   -2.6041 H   0  0  0  0  0  0  0  0  0  0  0  0
    7.5298   -8.5616    0.5689 H   0  0  0  0  0  0  0  0  0  0  0  0
    9.4492   -7.8556   -1.1362 H   0  0  0  0  0  0  0  0  0  0  0  0
   10.4827   -7.9593    1.2771 H   0  0  0  0  0  0  0  0  0  0  0  0
    9.7011   -5.7954    2.6056 H   0  0  0  0  0  0  0  0  0  0  0  0
    8.1870   -4.3589    1.0105 H   0  0  0  0  0  0  0  0  0  0  0  0
    8.2266   -5.4812   -1.4316 H   0  0  0  0  0  0  0  0  0  0  0  0
    9.8791   -5.2636   -0.8125 H   0  0  0  0  0  0  0  0  0  0  0  0
    6.7648   -6.4393    1.8750 H   0  0  0  0  0  0  0  0  0  0  0  0
   -0.0709    0.9423    0.9985 H   0  0  0  0  0  0  0  0  0  0  0  0
   -1.4169    1.9127    0.3585 H   0  0  0  0  0  0  0  0  0  0  0  0
    0.6664    3.2361    0.3615 H   0  0  0  0  0  0  0  0  0  0  0  0
    0.0986    2.9702   -1.2865 H   0  0  0  0  0  0  0  0  0  0  0  0
    1.4667    2.0416   -0.6627 H   0  0  0  0  0  0  0  0  0  0  0  0
    1.4808   -1.9820   -0.3863 H   0  0  0  0  0  0  0  0  0  0  0  0
    1.5612   -0.3165    0.2313 H   0  0  0  0  0  0  0  0  0  0  0  0
    2.4946   -1.3530   -2.4860 H   0  0  0  0  0  0  0  0  0  0  0  0
    2.5114    0.3602   -2.0455 H   0  0  0  0  0  0  0  0  0  0  0  0
    3.5273   -0.7914   -1.1705 H   0  0  0  0  0  0  0  0  0  0  0  0
   -6.9989    4.2328   -1.6528 H   0  0  0  0  0  0  0  0  0  0  0  0
   -2.6949    4.6713    2.9209 H   0  0  0  0  0  0  0  0  0  0  0  0
   -6.7386    7.7096    2.6484 H   0  0  0  0  0  0  0  0  0  0  0  0
   -5.4166    7.7475    5.8132 H   0  0  0  0  0  0  0  0  0  0  0  0
   -4.7306   10.0437    5.1393 H   0  0  0  0  0  0  0  0  0  0  0  0
   -3.6597    9.8369    2.7636 H   0  0  0  0  0  0  0  0  0  0  0  0
   -1.5261    8.2652    2.9465 H   0  0  0  0  0  0  0  0  0  0  0  0
   -1.2830    7.5021    5.4372 H   0  0  0  0  0  0  0  0  0  0  0  0
   -3.1464    8.7723    6.9068 H   0  0  0  0  0  0  0  0  0  0  0  0
   -2.2069    9.9327    5.9352 H   0  0  0  0  0  0  0  0  0  0  0  0
   -3.3435    6.2162    5.9892 H   0  0  0  0  0  0  0  0  0  0  0  0
  1  2  2  0  0  0  0
  2  3  1  0  0  0  0
  3  4  2  0  0  0  0
  3  5  1  0  0  0  0
  5  6  2  0  0  0  0
  6  7  1  0  0  0  0
  7  8  2  0  0  0  0
  8  9  1  0  0  0  0
  9 10  2  0  0  0  0
 10 11  1  0  0  0  0
 11 12  2  0  0  0  0
 12 13  1  0  0  0  0
 13 14  3  0  0  0  0
 12 15  1  0  0  0  0
 15 16  3  0  0  0  0
  8 17  1  0  0  0  0
 17 18  1  0  0  0  0
 18 19  1  0  0  0  0
 19 20  2  0  0  0  0
 20 21  1  0  0  0  0
 21 22  1  0  0  0  0
 21 23  1  0  0  0  0
  1 24  1  0  0  0  0
 24 25  2  0  0  0  0
 25 26  1  0  0  0  0
 26 27  2  0  0  0  0
 27 28  1  0  0  0  0
 27 29  1  0  0  0  0
 29 30  2  0  0  0  0
 30 31  1  0  0  0  0
 30 32  1  0  0  0  0
 32 33  1  0  0  0  0
 32 34  2  0  0  0  0
 34 35  1  0  0  0  0
 35 36  2  0  0  0  0
 36 37  1  0  0  0  0
 37 38  1  0  0  0  0
 38 39  1  0  0  0  0
 37 40  2  0  0  0  0
 40 41  1  0  0  0  0
 41 42  2  0  0  0  0
 40 43  1  0  0  0  0
 43 44  1  0  0  0  0
 34 45  1  0  0  0  0
 45 46  2  0  0  0  0
 46 47  1  0  0  0  0
 47 48  2  0  0  0  0
 48 49  1  0  0  0  0
 48 50  1  0  0  0  0
 50 51  2  0  0  0  0
 51 52  1  0  0  0  0
 52 53  2  0  0  0  0
 52 54  1  0  0  0  0
 54 55  2  0  0  0  0
 55 56  1  0  0  0  0
 56 57  2  0  0  0  0
 57 58  1  0  0  0  0
 58 59  2  0  0  0  0
 59 60  1  0  0  0  0
 60 61  2  0  0  0  0
 61 62  1  0  0  0  0
 62 63  3  0  0  0  0
 61 64  1  0  0  0  0
 64 65  3  0  0  0  0
 57 66  1  0  0  0  0
 66 67  1  0  0  0  0
 67 68  1  0  0  0  0
 68 69  2  0  0  0  0
 69 70  1  0  0  0  0
 70 71  1  0  0  0  0
 70 72  1  0  0  0  0
 11  2  1  0  0  0  0
 23 17  1  0  0  0  0
 28 24  1  0  0  0  0
 42 29  1  0  0  0  0
 49 45  1  0  0  0  0
 60 51  1  0  0  0  0
 72 66  1  0  0  0  0
 10  5  1  0  0  0  0
 22 18  1  0  0  0  0
 42 35  1  0  0  0  0
 59 54  1  0  0  0  0
 71 67  1  0  0  0  0
 23  7  1  0  0  0  0
 72 56  1  0  0  0  0
  1 73  1  0  0  0  0
  6 74  1  0  0  0  0
  9 75  1  0  0  0  0
 17 76  1  0  0  0  0
 18 77  1  0  0  0  0
 19 78  1  0  0  0  0
 20 79  1  0  0  0  0
 21 80  1  0  0  0  0
 22 81  1  0  0  0  0
 22 82  1  0  0  0  0
 23 83  1  0  0  0  0
 38 84  1  0  0  0  0
 38 85  1  0  0  0  0
 39 86  1  0  0  0  0
 39 87  1  0  0  0  0
 39 88  1  0  0  0  0
 43 89  1  0  0  0  0
 43 90  1  0  0  0  0
 44 91  1  0  0  0  0
 44 92  1  0  0  0  0
 44 93  1  0  0  0  0
 50 94  1  0  0  0  0
 55 95  1  0  0  0  0
 58 96  1  0  0  0  0
 66 97  1  0  0  0  0
 67 98  1  0  0  0  0
 68 99  1  0  0  0  0
 69100  1  0  0  0  0
 70101  1  0  0  0  0
 71102  1  0  0  0  0
 71103  1  0  0  0  0
 72104  1  0  0  0  0
M  END
