250

C         11.14720       -3.56480        2.33160
C         12.31050       -2.91840        2.06360
C         13.57910       -3.38000        2.70050
O         13.77390       -4.45410        3.22040
C         14.49720       -2.22940        2.61280
C         15.75700       -2.10560        3.19490
C         16.36010       -0.89090        2.97160
C         15.74930        0.14030        2.24320
C         14.50980        0.03440        1.65990
C         13.89260       -1.20380        1.85360
C         12.61320       -1.69010        1.35060
C         11.97380       -1.20030        0.24250
C         10.86600       -1.81420       -0.37970
N          9.99340       -2.27420       -0.96660
C         12.37220       -0.05270       -0.47000
N         12.61540        0.87540       -1.10150
C         16.91550        1.07550        2.43610
C         17.87440        1.28170        1.23780
C         17.78610        0.02990        0.40020
C         18.36740       -0.95140        1.07720
C         18.85930       -0.38100        2.38460
C         19.22160        1.04470        1.93860
C         17.60130       -0.07650        3.23640
C          9.83560       -3.06170        2.12410
C          9.46910       -1.75050        1.98740
C          8.09830       -1.56030        1.72680
C          7.46900       -0.35430        1.36740
C          8.31130        0.82480        1.10980
C          8.40940        1.31330       -0.19140
C          9.35760        2.25310       -0.53910
C         10.24710        2.74860        0.41430
O         11.24930        3.61400        0.19380
C         11.66410        3.91780       -1.13340
C         10.91940        5.10460       -1.73110
C         10.09610        2.30820        1.74190
C         11.03690        2.85110        2.77530
F         10.99170        4.19000        2.87980
F         12.32140        2.53200        2.52510
F         10.78250        2.37850        4.00910
C          9.14980        1.35570        2.08130
C          6.11880       -0.42760        1.09060
C          5.40070       -1.65070        1.07500
C          6.05130       -2.86600        1.34590
C          5.36550       -4.15280        1.16640
C          5.33690       -5.11470        2.16950
C          4.72000       -6.33510        1.97460
C          4.13760       -6.64650        0.74790
O          3.54640       -7.81500        0.43690
C          3.54370       -8.86840        1.38680
C          2.96800      -10.09910        0.70530
C          4.17300       -5.67480       -0.26700
C          4.76610       -4.44470       -0.05480
C          3.61160       -6.02490       -1.61350
F          2.32870       -6.42980       -1.56970
F          4.28910       -7.02350       -2.20730
F          3.63480       -4.99480       -2.47230
C          7.38780       -2.78820        1.70170
S          8.44880       -4.13330        2.02100
C          4.04420       -1.44980        0.74220
C          3.70430       -0.14140        0.51190
S          5.08650        0.92250        0.70840
C          2.39100        0.26690        0.12850
C          1.68160        1.46120        0.20910
N          2.10740        2.67830        0.71490
C          1.18910        3.43730        1.45680
C          0.35850        2.82290        2.39030
C         -0.57920        3.55430        3.09360
C         -0.69100        4.92070        2.88270
S         -1.86070        5.95920        3.70490
C         -2.77590        4.82870        4.79020
C          0.15650        5.54570        1.96970
C          1.08210        4.81470        1.26130
C          3.34550        3.24110        0.38840
C          4.03940        3.96950        1.35260
C          5.27670        4.50590        1.07130
C          5.84260        4.32490       -0.18460
S          7.43510        4.94300       -0.61930
C          8.17470        5.37590        0.97990
C          5.13470        3.63620       -1.16550
C          3.89640        3.09800       -0.88500
C          0.33960        1.27610       -0.21630
S         -1.02910        2.32550       -0.36260
C         -2.03030        0.98870       -0.92960
C         -1.30960       -0.19180       -1.04660
N         -1.79220       -1.41820       -1.48060
C         -1.32380       -2.53520       -0.76920
C         -0.86240       -3.68490       -1.40470
C         -0.35230       -4.73720       -0.67040
C         -0.28550       -4.65380        0.71420
S          0.39890       -5.93210        1.72510
C          0.08960       -7.43010        0.74170
C         -0.74920       -3.51000        1.35690
C         -1.27040       -2.46690        0.62460
C         -2.37040       -1.55270       -2.75050
C         -3.20110       -2.63470       -3.03400
C         -3.69980       -2.82840       -4.30670
C         -3.39430       -1.92750       -5.32020
S         -3.91280       -2.10290       -6.99340
C         -4.46240       -3.82940       -7.09550
C         -2.61900       -0.80790       -5.02240
C         -2.10700       -0.62430       -3.75840
C          0.02990       -0.00700       -0.62370
S          1.39930       -1.04510       -0.52140
C         -3.42150        1.22870       -1.06640
C         -4.03550        2.43620       -0.85980
C         -5.44410        2.38010       -0.90300
C         -6.35610        3.43510       -0.71360
C         -5.89190        4.77980       -0.34980
C         -4.99150        4.95660        0.69860
C         -4.54180        6.20880        1.06290
C         -4.98930        7.34380        0.38810
O         -4.64560        8.61440        0.66360
C         -3.62560        8.89290        1.60780
C         -2.23400        8.61950        1.05070
C         -5.90490        7.16530       -0.66390
C         -6.38680        8.38680       -1.39330
F         -5.38300        9.08210       -1.95750
F         -7.03770        9.24710       -0.59130
F         -7.23770        8.09470       -2.38920
C         -6.34800        5.90660       -1.02550
C         -7.70030        3.12760       -0.85710
C         -8.15540        1.80840       -1.11510
C         -7.24290        0.75050       -1.29080
C         -7.75030       -0.58510       -1.63240
C         -8.68930       -1.22220       -0.82610
C         -9.26280       -2.42140       -1.19810
C         -8.91940       -3.02410       -2.40720
O         -9.40760       -4.18630       -2.87660
C        -10.57640       -4.75330       -2.31010
C        -11.82450       -3.92840       -2.60330
C         -7.95320       -2.38940       -3.20590
C         -7.36900       -1.19690       -2.82060
C         -7.57850       -3.03160       -4.50730
F         -6.90580       -4.19270       -4.33520
F         -8.62730       -3.32530       -5.28400
F         -6.77100       -2.25910       -5.24860
C         -5.90370        1.06740       -1.19700
S         -4.57700       -0.05510       -1.36960
C         -9.55530        1.74480       -1.23670
C        -10.18410        2.95590       -1.10150
S         -9.03810        4.23620       -0.73630
C        -11.56860        3.24230       -1.18450
C        -12.56270        2.47310       -1.70650
C        -13.97220        2.75640       -1.31390
O        -14.38660        3.75960       -0.78050
C        -14.72620        1.53370       -1.65210
C        -16.06350        1.26280       -1.36700
C        -16.48520        0.02240       -1.78220
C        -15.63990       -0.88660       -2.43300
C        -14.32260       -0.63120       -2.72870
C        -13.87430        0.62780       -2.31800
C        -12.57010        1.26230       -2.50210
C        -11.64150        0.88560       -3.43900
C        -10.53230        1.67370       -3.81000
N         -9.63800        2.28990       -4.18090
C        -11.70130       -0.31420       -4.17420
N        -11.67730       -1.30320       -4.75760
C        -16.72050       -1.93150       -2.55250
C        -16.65520       -3.10960       -1.55790
C        -18.05290       -3.68470       -1.58590
C        -18.85500       -2.82450       -0.97170
C        -18.01270       -1.65430       -0.51680
C        -16.69700       -2.38070       -0.20860
C        -17.66420       -0.91850       -1.82830
H         11.23890       -4.53790        2.80120
H         16.18780       -2.91490        3.76350
H         14.03760        0.84040        1.12290
H         16.69740        2.00290        2.96100
H         17.74160        2.22240        0.71060
H         17.27440       -0.02430       -0.54270
H         18.43940       -1.99010        0.81240
H         19.62510       -0.95410        2.90050
H         19.40500        1.72570        2.76850
H         20.06450        1.06840        1.24970
H         17.84270        0.10010        4.28270
H         10.16190       -0.93600        2.09250
H          7.75130        0.92080       -0.95140
H          9.41460        2.58730       -1.56110
H         11.57710        3.02890       -1.76420
H         12.72460        4.16160       -1.02680
H         11.05290        5.98290       -1.10420
H          9.85490        4.90390       -1.82220
H         11.32110        5.31770       -2.71770
H          9.06990        1.02410        3.10610
H          5.79360       -4.90080        3.12410
H          4.70190       -7.04790        2.78230
H          2.93330       -8.58180        2.25360
H          4.56900       -9.06960        1.72240
H          3.57550      -10.36010       -0.15680
H          1.95510       -9.90300        0.36580
H          2.95700      -10.93310        1.40090
H          4.79360       -3.72050       -0.85430
H          3.32910       -2.25220        0.70100
H          0.44520        1.76010        2.56400
H         -1.20910        3.04360        3.80380
H         -2.10100        4.38380        5.51560
H         -3.51040        5.44350        5.30150
H         -3.27900        4.06920        4.19870
H          0.07170        6.61000        1.81490
H          1.72210        5.30340        0.54280
H          3.60730        4.09850        2.33360
H          5.79220        5.05720        1.84040
H          7.71000        6.27330        1.37800
H          9.22620        5.56350        0.78920
H          8.07150        4.53790        1.66280
H          5.56960        3.52160       -2.14600
H          3.35420        2.55470       -1.64440
H         -0.87840       -3.74620       -2.48200
H          0.01820       -5.60640       -1.18780
H          0.15180       -8.26060        1.43850
H         -0.90820       -7.37500        0.31860
H          0.84170       -7.53370       -0.03320
H         -0.69960       -3.45240        2.43340
H         -1.64030       -1.58510        1.12750
H         -3.44980       -3.33440       -2.25030
H         -4.32760       -3.68380       -4.49380
H         -5.39050       -3.96610       -6.55220
H         -3.68290       -4.48210       -6.71420
H         -4.62610       -4.02160       -8.15130
H         -2.40110       -0.09840       -5.80560
H         -1.47750        0.22910       -3.55480
H         -3.47870        3.34070       -0.69200
H         -4.65000        4.09470        1.25270
H         -3.84350        6.29770        1.87910
H         -3.79100        8.33530        2.53650
H         -3.74410        9.95910        1.81540
H         -1.48930        8.90340        1.78880
H         -2.11220        7.56550        0.81320
H         -2.07960        9.19930        0.14430
H         -7.03290        5.80320       -1.85260
H         -8.96800       -0.77370        0.11670
H         -9.97920       -2.88640       -0.53990
H        -10.65050       -5.72830       -2.79730
H        -10.44660       -4.91210       -1.23200
H        -11.86540       -3.69750       -3.66520
H        -11.81700       -2.99110       -2.05110
H        -12.70920       -4.49380       -2.32350
H         -6.64240       -0.72380       -3.46320
H        -10.08270        0.82190       -1.39390
H        -11.89840        4.16350       -0.71500
H        -16.68170        1.99260       -0.86830
H        -13.68520       -1.33970       -3.23080
H        -16.96790       -2.24260       -3.56540
H        -15.83670       -3.80400       -1.72870
H        -18.31500       -4.59990       -2.08330
H        -19.92110       -2.87820       -0.85310
H        -18.43160       -1.02380        0.26260
H        -15.85300       -1.71490       -0.03730
H        -16.79410       -3.06950        0.62900
H        -18.54190       -0.55440       -2.35850
