207

C         -0.00680        5.15100       -4.68490
C          0.99210        4.30610       -4.99880
C          1.09380        2.91980       -4.44280
O          0.38380        2.40060       -3.60590
C          2.17370        2.26810       -5.18740
C          2.59650        0.94710       -5.03700
C          3.57010        0.56940       -5.92650
C          4.08960        1.43970       -6.89770
C          3.70100        2.75080       -7.03950
C          2.70800        3.16160       -6.14080
C          2.04870        4.45370       -5.99830
C          2.38160        5.61000       -6.64350
C          1.74670        6.85390       -6.42970
N          1.28120        7.89400       -6.29700
C          3.41690        5.72300       -7.59750
N          4.23670        5.87650       -8.38530
C          4.99550        0.37840       -7.47240
C          4.53090       -0.28180       -8.78880
C          5.31970       -1.57090       -8.84600
C          4.82800       -2.38740       -7.92250
C          3.70050       -1.66420       -7.22330
C          3.15550       -0.83440       -8.39310
C          4.41990       -0.58540       -6.38530
C         -0.95900        4.73660       -3.65110
C         -2.17950        4.19500       -3.98170
F         -2.62030        4.28570       -5.24990
C         -2.89700        3.36160       -3.09960
F         -3.95360        2.69960       -3.59570
C         -2.43840        3.12060       -1.83070
C         -1.28760        3.84160       -1.40350
N         -0.87770        3.68760       -0.13990
C          0.28160        4.17500        0.24000
C          0.56840        3.97820        1.66470
C          1.19950        4.92060        2.46840
C          1.36040        4.70270        3.82490
C          0.89800        3.53450        4.42940
O          0.99310        3.22600        5.73730
C          1.49130        4.19480        6.64310
C          1.26520        3.66780        8.05090
C          0.26720        2.59340        3.60250
C          0.09450        2.80530        2.25820
F         -0.18300        1.44500        4.14770
C          1.12170        4.83260       -0.71580
N          0.68100        5.07390       -1.93250
C         -0.51840        4.60860       -2.30790
C          2.50360        5.22910       -0.44450
C          3.34440        4.45740        0.35040
C          4.65950        4.82150        0.56840
C          5.18550        5.97840       -0.00310
O          6.44570        6.43980        0.12800
C          7.35160        5.79550        1.00380
C          7.07820        6.11880        2.46900
C          4.32860        6.73150       -0.82390
F          4.81340        7.84610       -1.40380
C          3.02350        6.37170       -1.05500
C         -2.73110        1.98300       -0.95900
C         -3.47730        1.86990        0.18930
N         -4.45480        2.74610        0.62530
C         -5.34720        3.35690       -0.25380
C         -5.81310        4.64930       -0.00690
C         -6.69440        5.24680       -0.87970
C         -7.13020        4.57340       -2.01910
S         -8.24830        5.44220       -3.07580
C         -8.29060        4.42480       -4.57930
C         -6.68780        3.27950       -2.25620
C         -5.80750        2.67860       -1.37900
C         -4.41090        3.10060        1.98920
C         -3.19240        3.46100        2.56170
C         -3.11560        3.73410        3.90830
C         -4.25480        3.66070        4.70620
S         -4.04230        4.01670        6.42110
C         -5.54880        3.34760        7.18170
C         -5.47780        3.34270        4.12860
C         -5.55430        3.06080        2.77800
C         -3.05580        0.74300        0.95240
S         -3.47590        0.09970        2.49190
C         -2.18920       -1.10490        2.38320
C         -1.44420       -0.96090        1.22180
N         -0.18420       -1.52080        0.94220
C          0.08930       -1.83510       -0.38260
C         -0.95740       -2.24770       -1.21400
C         -0.74540       -2.47250       -2.55630
C          0.51880       -2.29280       -3.09780
S          0.78340       -2.40440       -4.85270
C         -0.41590       -1.15330       -5.41390
C          1.58850       -2.01250       -2.26190
C          1.38100       -1.80300       -0.91500
C          0.83300       -0.95810        1.77110
C          1.55710        0.15050        1.33360
C          2.47660        0.74970        2.16530
C          2.66350        0.28260        3.46270
S          3.79750        1.18210        4.47230
C          3.27800        0.74070        6.15490
C          1.95940       -0.83160        3.89480
C          1.05580       -1.44880        3.04800
C         -1.97920        0.06480        0.40730
S         -1.51530        0.72460       -1.11940
C         -2.16720       -2.12870        3.39200
C         -2.64050       -1.89650        4.67910
F         -2.96170       -0.65280        5.06700
C         -2.79160       -2.90800        5.63140
F         -3.15320       -2.53600        6.86610
C         -2.52210       -4.23890        5.34820
C         -1.99340       -4.51140        4.05030
N         -1.73140       -5.78500        3.72390
C         -1.21340       -6.06960        2.54700
C         -1.00070       -7.48910        2.26400
C          0.07000       -7.97860        1.51540
C          0.20930       -9.33040        1.30470
C         -0.70200      -10.26880        1.80830
O         -0.44320      -11.54840        1.47710
C         -1.13720      -12.63720        2.07320
C         -0.72050      -12.86940        3.52030
C         -1.76520       -9.75680        2.55950
C         -1.90410       -8.40580        2.79500
F         -2.71540      -10.56620        3.09140
C         -0.91760       -5.01350        1.63290
N         -1.23650       -3.77610        1.91660
C         -1.78670       -3.47720        3.10260
C         -0.22460       -5.21580        0.34650
C         -0.83910       -5.80930       -0.74430
C         -0.17450       -5.93140       -1.95280
C          1.13560       -5.48260       -2.09810
O          1.87760       -5.54340       -3.21940
C          1.27930       -5.98750       -4.42390
C          2.29530       -5.78160       -5.53460
C          1.74640       -4.91390       -0.97130
F          3.02370       -4.49340       -1.06760
C          1.08460       -4.75850        0.22270
C         -2.69230       -5.34000        6.25510
C         -3.61600       -5.46890        7.24050
C         -4.69100       -4.58670        7.49660
N         -5.61520       -3.93780        7.69240
C         -3.61910       -6.62420        8.05920
N         -3.61490       -7.55400        8.72910
H         -0.15610        6.09460       -5.18960
H          2.17010        0.30970       -4.27860
H          4.11410        3.40900       -7.78570
H          6.05960        0.60540       -7.46280
H          4.58160        0.36180       -9.66280
H          6.16090       -1.72930       -9.49480
H          5.17620       -3.36480       -7.64470
H          2.99210       -2.27010       -6.66580
H          2.72400       -1.45930       -9.17310
H          2.43710       -0.07080       -8.09990
H          5.09700       -1.00440       -5.64420
H          1.55170        5.84590        2.03920
H          1.85010        5.45820        4.41760
H          0.95480        5.14260        6.50790
H          2.56130        4.36140        6.45690
H          0.20530        3.48770        8.20870
H          1.80060        2.73380        8.19640
H          1.61560        4.39600        8.77650
H         -0.40270        2.05770        1.66270
H          2.97280        3.54700        0.79290
H          5.27460        4.18760        1.18660
H          7.35020        4.71240        0.83260
H          8.32800        6.19060        0.71200
H          6.10490        5.74500        2.77810
H          7.09760        7.19560        2.61660
H          7.84370        5.66360        3.09090
H          2.40330        6.97480       -1.69810
H         -5.46950        5.18220        0.86700
H         -7.04850        6.24950       -0.69550
H         -7.27780        4.24630       -4.92780
H         -8.81290        3.49170       -4.38780
H         -8.83890        5.00770       -5.31270
H         -7.01990        2.72360       -3.11740
H         -5.47360        1.67000       -1.57000
H         -2.31440        3.52490        1.93680
H         -2.17250        4.00570        4.35750
H         -6.40640        3.96590        6.93220
H         -5.69000        2.32140        6.85630
H         -5.37670        3.37660        8.25310
H         -6.37710        3.30160        4.72150
H         -6.50300        2.80220        2.33150
H         -1.94120       -2.38910       -0.79410
H         -1.57010       -2.77040       -3.18640
H         -0.31570       -0.26250       -4.80060
H         -0.17010       -0.93060       -6.44730
H         -1.42570       -1.54740       -5.34960
H          2.58530       -1.95350       -2.67150
H          2.22970       -1.59830       -0.28170
H          1.37950        0.55510        0.34760
H          3.04070        1.60800        1.83370
H          3.56330       -0.28180        6.38470
H          2.20520        0.88670        6.24070
H          3.80590        1.42230        6.81490
H          2.09800       -1.22510        4.88860
H          0.51060       -2.31300        3.39010
H          0.81470       -7.30640        1.12260
H          1.04050       -9.71390        0.73490
H         -2.22000      -12.50680        1.99400
H         -0.84440      -13.49240        1.45810
H         -1.02950      -12.04300        4.15480
H          0.36010      -12.97430        3.58370
H         -1.18710      -13.77860        3.88760
H         -2.73740       -8.06370        3.38820
H         -1.85350       -6.16800       -0.65820
H         -0.68620       -6.38140       -2.78790
H          1.00780       -7.04880       -4.33810
H          0.37550       -5.40050       -4.62870
H          2.53400       -4.72490       -5.61140
H          1.88550       -6.12570       -6.47950
H          3.20490       -6.33280       -5.31380
H          1.58850       -4.28930        1.05300
H         -2.02990       -6.17700        6.07180
