
  xtb     02072209033D
 energy: -310.036871565404 gnorm: 0.000862406883 xtb: 6.4.1 (unknown)
178197  0     0  0            999 V2000
    6.2484   -1.2985    3.3877 C   0  0  0  0  0  0  0  0  0  0  0  0
    6.3916   -0.3548    4.3639 C   0  0  0  0  0  0  0  0  0  0  0  0
    7.7428    0.1344    4.7375 C   0  0  0  0  0  0  0  0  0  0  0  0
    8.8052   -0.3563    4.4239 O   0  0  0  0  0  0  0  0  0  0  0  0
    7.5083    1.3742    5.5042 C   0  0  0  0  0  0  0  0  0  0  0  0
    8.4665    2.2684    5.9761 C   0  0  0  0  0  0  0  0  0  0  0  0
    7.9439    3.3468    6.6493 C   0  0  0  0  0  0  0  0  0  0  0  0
    6.5672    3.5285    6.8412 C   0  0  0  0  0  0  0  0  0  0  0  0
    5.6097    2.6518    6.3898 C   0  0  0  0  0  0  0  0  0  0  0  0
    6.1215    1.5507    5.6993 C   0  0  0  0  0  0  0  0  0  0  0  0
    5.4210    0.4112    5.1135 C   0  0  0  0  0  0  0  0  0  0  0  0
    4.1501    0.0071    5.4377 C   0  0  0  0  0  0  0  0  0  0  0  0
    3.2344    0.7570    6.2003 C   0  0  0  0  0  0  0  0  0  0  0  0
    2.4226    1.3224    6.7841 N   0  0  0  0  0  0  0  0  0  0  0  0
    3.6391   -1.2636    5.1013 C   0  0  0  0  0  0  0  0  0  0  0  0
    3.2112   -2.3087    4.8922 N   0  0  0  0  0  0  0  0  0  0  0  0
    6.7616    4.8169    7.5997 C   0  0  0  0  0  0  0  0  0  0  0  0
    6.6108    4.7725    9.1400 C   0  0  0  0  0  0  0  0  0  0  0  0
    6.9405    3.3616    9.5603 C   0  0  0  0  0  0  0  0  0  0  0  0
    8.2431    3.1818    9.3868 C   0  0  0  0  0  0  0  0  0  0  0  0
    8.8177    4.4678    8.8459 C   0  0  0  0  0  0  0  0  0  0  0  0
    7.9082    5.4876    9.5497 C   0  0  0  0  0  0  0  0  0  0  0  0
    8.2958    4.6100    7.3944 C   0  0  0  0  0  0  0  0  0  0  0  0
    5.1068   -1.5525    2.6042 C   0  0  0  0  0  0  0  0  0  0  0  0
    3.8977   -0.3178    2.3242 S   0  0  0  0  0  0  0  0  0  0  0  0
    2.9102   -1.3560    1.3271 C   0  0  0  0  0  0  0  0  0  0  0  0
    3.5067   -2.5940    1.2343 C   0  0  0  0  0  0  0  0  0  0  0  0
    2.9992   -4.1008    0.5455 S   0  0  0  0  0  0  0  0  0  0  0  0
    4.4952   -4.8628    1.0616 C   0  0  0  0  0  0  0  0  0  0  0  0
    4.7180   -6.2390    0.7214 C   0  0  0  0  0  0  0  0  0  0  0  0
    5.8627   -6.8438    0.2406 C   0  0  0  0  0  0  0  0  0  0  0  0
    5.7139   -8.2225    0.0150 C   0  0  0  0  0  0  0  0  0  0  0  0
    4.4533   -8.6664    0.3121 C   0  0  0  0  0  0  0  0  0  0  0  0
    3.9550  -10.0401    0.2000 C   0  0  0  0  0  0  0  0  0  0  0  0
    4.6194  -10.9718   -0.1798 O   0  0  0  0  0  0  0  0  0  0  0  0
    2.6773  -10.1155    0.5873 O   0  0  0  0  0  0  0  0  0  0  0  0
    2.0531  -11.3983    0.5186 C   0  0  0  0  0  0  0  0  0  0  0  0
    1.5454  -11.6948   -0.8849 C   0  0  0  0  0  0  0  0  0  0  0  0
    3.4293   -7.3932    0.8677 S   0  0  0  0  0  0  0  0  0  0  0  0
    7.2992   -6.0026   -0.1526 Cl  0  0  0  0  0  0  0  0  0  0  0  0
    5.2952   -4.0120    1.7800 C   0  0  0  0  0  0  0  0  0  0  0  0
    4.7524   -2.7057    1.9061 C   0  0  0  0  0  0  0  0  0  0  0  0
    6.7507   -4.4930    2.5437 Cl  0  0  0  0  0  0  0  0  0  0  0  0
    1.7175   -0.8202    0.7824 C   0  0  0  0  0  0  0  0  0  0  0  0
    1.0950   -1.0142   -0.4494 C   0  0  0  0  0  0  0  0  0  0  0  0
    1.5436   -1.7744   -1.5039 N   0  0  0  0  0  0  0  0  0  0  0  0
    2.8978   -1.9997   -1.7671 C   0  0  0  0  0  0  0  0  0  0  0  0
    3.8796   -1.0941   -1.3715 C   0  0  0  0  0  0  0  0  0  0  0  0
    5.2181   -1.3985   -1.5177 C   0  0  0  0  0  0  0  0  0  0  0  0
    5.5999   -2.6067   -2.0853 C   0  0  0  0  0  0  0  0  0  0  0  0
    7.2857   -3.1071   -2.2290 S   0  0  0  0  0  0  0  0  0  0  0  0
    8.0647   -2.2544   -0.8256 C   0  0  0  0  0  0  0  0  0  0  0  0
    4.6225   -3.4661   -2.5819 C   0  0  0  0  0  0  0  0  0  0  0  0
    3.2877   -3.1686   -2.4252 C   0  0  0  0  0  0  0  0  0  0  0  0
    0.5755   -2.1960   -2.4459 C   0  0  0  0  0  0  0  0  0  0  0  0
   -0.5275   -2.9385   -2.0292 C   0  0  0  0  0  0  0  0  0  0  0  0
   -1.5206   -3.2636   -2.9282 C   0  0  0  0  0  0  0  0  0  0  0  0
   -1.4322   -2.8462   -4.2538 C   0  0  0  0  0  0  0  0  0  0  0  0
   -2.7656   -3.2516   -5.3313 S   0  0  0  0  0  0  0  0  0  0  0  0
   -2.6914   -1.9190   -6.5635 C   0  0  0  0  0  0  0  0  0  0  0  0
   -0.3064   -2.1509   -4.6802 C   0  0  0  0  0  0  0  0  0  0  0  0
    0.6913   -1.8303   -3.7824 C   0  0  0  0  0  0  0  0  0  0  0  0
   -0.0784   -0.2194   -0.5298 C   0  0  0  0  0  0  0  0  0  0  0  0
   -1.3023   -0.0061   -1.7274 S   0  0  0  0  0  0  0  0  0  0  0  0
   -2.1070    1.2132   -0.7411 C   0  0  0  0  0  0  0  0  0  0  0  0
   -1.4525    1.4254    0.4705 C   0  0  0  0  0  0  0  0  0  0  0  0
   -1.7899    2.3023    1.4868 N   0  0  0  0  0  0  0  0  0  0  0  0
   -3.0989    2.5132    1.9161 C   0  0  0  0  0  0  0  0  0  0  0  0
   -4.0938    1.5517    1.7269 C   0  0  0  0  0  0  0  0  0  0  0  0
   -5.3903    1.8111    2.1089 C   0  0  0  0  0  0  0  0  0  0  0  0
   -5.7297    3.0296    2.6954 C   0  0  0  0  0  0  0  0  0  0  0  0
   -7.4333    3.2629    3.0946 S   0  0  0  0  0  0  0  0  0  0  0  0
   -7.4672    4.8637    3.9504 C   0  0  0  0  0  0  0  0  0  0  0  0
   -4.7381    3.9783    2.9117 C   0  0  0  0  0  0  0  0  0  0  0  0
   -3.4377    3.7213    2.5240 C   0  0  0  0  0  0  0  0  0  0  0  0
   -0.7025    2.8373    2.2110 C   0  0  0  0  0  0  0  0  0  0  0  0
    0.3593    3.4019    1.5082 C   0  0  0  0  0  0  0  0  0  0  0  0
    1.5036    3.8002    2.1677 C   0  0  0  0  0  0  0  0  0  0  0  0
    1.6003    3.6340    3.5428 C   0  0  0  0  0  0  0  0  0  0  0  0
    3.0673    4.0381    4.4393 S   0  0  0  0  0  0  0  0  0  0  0  0
    4.3671    3.7302    3.2039 C   0  0  0  0  0  0  0  0  0  0  0  0
    0.5154    3.1353    4.2587 C   0  0  0  0  0  0  0  0  0  0  0  0
   -0.6301    2.7421    3.5995 C   0  0  0  0  0  0  0  0  0  0  0  0
   -0.3028    0.6010    0.5626 C   0  0  0  0  0  0  0  0  0  0  0  0
    0.9117    0.3949    1.7714 S   0  0  0  0  0  0  0  0  0  0  0  0
   -3.2988    1.7420   -1.3010 C   0  0  0  0  0  0  0  0  0  0  0  0
   -4.0327    2.8679   -0.9677 C   0  0  0  0  0  0  0  0  0  0  0  0
   -5.1730    3.0102   -1.7570 C   0  0  0  0  0  0  0  0  0  0  0  0
   -6.1285    3.9457   -1.6700 O   0  0  0  0  0  0  0  0  0  0  0  0
   -6.0360    4.9424   -0.6664 C   0  0  0  0  0  0  0  0  0  0  0  0
   -5.0916    6.0727   -1.0590 C   0  0  0  0  0  0  0  0  0  0  0  0
   -5.3133    2.0013   -2.7392 C   0  0  0  0  0  0  0  0  0  0  0  0
   -3.9996    0.8628   -2.6238 S   0  0  0  0  0  0  0  0  0  0  0  0
   -6.3775    1.9842   -3.6425 C   0  0  0  0  0  0  0  0  0  0  0  0
   -6.6812    1.0588   -4.6125 C   0  0  0  0  0  0  0  0  0  0  0  0
   -5.9413   -0.1781   -4.8631 C   0  0  0  0  0  0  0  0  0  0  0  0
   -4.8730   -0.5199   -4.3797 O   0  0  0  0  0  0  0  0  0  0  0  0
   -6.7227   -0.9400   -5.8498 C   0  0  0  0  0  0  0  0  0  0  0  0
   -6.4478   -2.2179   -6.3302 C   0  0  0  0  0  0  0  0  0  0  0  0
   -7.3461   -2.6630   -7.2699 C   0  0  0  0  0  0  0  0  0  0  0  0
   -8.4411   -1.8980   -7.6915 C   0  0  0  0  0  0  0  0  0  0  0  0
   -8.7351   -0.6448   -7.2064 C   0  0  0  0  0  0  0  0  0  0  0  0
   -7.8309   -0.1685   -6.2537 C   0  0  0  0  0  0  0  0  0  0  0  0
   -7.8114    1.0958   -5.5148 C   0  0  0  0  0  0  0  0  0  0  0  0
   -8.6952    2.1306   -5.6905 C   0  0  0  0  0  0  0  0  0  0  0  0
   -8.6576    3.3686   -5.0156 C   0  0  0  0  0  0  0  0  0  0  0  0
   -8.7009    4.4095   -4.5308 N   0  0  0  0  0  0  0  0  0  0  0  0
   -9.7664    2.1174   -6.6069 C   0  0  0  0  0  0  0  0  0  0  0  0
  -10.6558    2.1813   -7.3311 N   0  0  0  0  0  0  0  0  0  0  0  0
   -8.9071   -2.9554   -8.6611 C   0  0  0  0  0  0  0  0  0  0  0  0
   -8.6077   -2.7351  -10.1647 C   0  0  0  0  0  0  0  0  0  0  0  0
   -7.3790   -1.8630  -10.2354 C   0  0  0  0  0  0  0  0  0  0  0  0
   -6.3440   -2.5891   -9.8345 C   0  0  0  0  0  0  0  0  0  0  0  0
   -6.8542   -3.9649   -9.4844 C   0  0  0  0  0  0  0  0  0  0  0  0
   -7.9910   -4.1002  -10.5099 C   0  0  0  0  0  0  0  0  0  0  0  0
   -7.6880   -3.8088   -8.1883 C   0  0  0  0  0  0  0  0  0  0  0  0
    7.1428   -1.8611    3.1415 H   0  0  0  0  0  0  0  0  0  0  0  0
    9.5181    2.0930    5.8111 H   0  0  0  0  0  0  0  0  0  0  0  0
    4.5531    2.8045    6.5350 H   0  0  0  0  0  0  0  0  0  0  0  0
    6.3013    5.7001    7.1615 H   0  0  0  0  0  0  0  0  0  0  0  0
    5.6744    5.1784    9.5129 H   0  0  0  0  0  0  0  0  0  0  0  0
    6.2056    2.6441    9.8752 H   0  0  0  0  0  0  0  0  0  0  0  0
    8.8148    2.2832    9.5280 H   0  0  0  0  0  0  0  0  0  0  0  0
    9.8916    4.5962    8.9535 H   0  0  0  0  0  0  0  0  0  0  0  0
    8.0551    5.5083   10.6284 H   0  0  0  0  0  0  0  0  0  0  0  0
    7.9940    6.4960    9.1471 H   0  0  0  0  0  0  0  0  0  0  0  0
    8.8426    5.3631    6.8298 H   0  0  0  0  0  0  0  0  0  0  0  0
    6.4927   -8.8630   -0.3558 H   0  0  0  0  0  0  0  0  0  0  0  0
    1.2307  -11.3490    1.2347 H   0  0  0  0  0  0  0  0  0  0  0  0
    2.7763  -12.1597    0.8286 H   0  0  0  0  0  0  0  0  0  0  0  0
    2.3813  -11.7518   -1.5778 H   0  0  0  0  0  0  0  0  0  0  0  0
    0.8659  -10.9116   -1.2123 H   0  0  0  0  0  0  0  0  0  0  0  0
    1.0209  -12.6458   -0.8879 H   0  0  0  0  0  0  0  0  0  0  0  0
    3.5972   -0.1432   -0.9457 H   0  0  0  0  0  0  0  0  0  0  0  0
    5.9569   -0.6860   -1.1864 H   0  0  0  0  0  0  0  0  0  0  0  0
    9.0165   -2.7515   -0.6671 H   0  0  0  0  0  0  0  0  0  0  0  0
    7.4370   -2.3648    0.0536 H   0  0  0  0  0  0  0  0  0  0  0  0
    8.2342   -1.2072   -1.0587 H   0  0  0  0  0  0  0  0  0  0  0  0
    4.9246   -4.3838   -3.0620 H   0  0  0  0  0  0  0  0  0  0  0  0
    2.5339   -3.8586   -2.7721 H   0  0  0  0  0  0  0  0  0  0  0  0
   -0.6038   -3.2392   -0.9948 H   0  0  0  0  0  0  0  0  0  0  0  0
   -2.3844   -3.8257   -2.6101 H   0  0  0  0  0  0  0  0  0  0  0  0
   -2.6490   -0.9685   -6.0408 H   0  0  0  0  0  0  0  0  0  0  0  0
   -3.6126   -1.9842   -7.1340 H   0  0  0  0  0  0  0  0  0  0  0  0
   -1.8417   -2.0538   -7.2266 H   0  0  0  0  0  0  0  0  0  0  0  0
   -0.2030   -1.8444   -5.7085 H   0  0  0  0  0  0  0  0  0  0  0  0
    1.5591   -1.2768   -4.1097 H   0  0  0  0  0  0  0  0  0  0  0  0
   -3.8440    0.6000    1.2846 H   0  0  0  0  0  0  0  0  0  0  0  0
   -6.1602    1.0706    1.9571 H   0  0  0  0  0  0  0  0  0  0  0  0
   -8.4976    5.0039    4.2619 H   0  0  0  0  0  0  0  0  0  0  0  0
   -6.8200    4.8313    4.8219 H   0  0  0  0  0  0  0  0  0  0  0  0
   -7.1784    5.6600    3.2703 H   0  0  0  0  0  0  0  0  0  0  0  0
   -4.9643    4.9277    3.3693 H   0  0  0  0  0  0  0  0  0  0  0  0
   -2.6753    4.4700    2.6818 H   0  0  0  0  0  0  0  0  0  0  0  0
    0.2905    3.5035    0.4346 H   0  0  0  0  0  0  0  0  0  0  0  0
    2.3163    4.2287    1.6033 H   0  0  0  0  0  0  0  0  0  0  0  0
    4.4279    4.5541    2.4990 H   0  0  0  0  0  0  0  0  0  0  0  0
    5.2972    3.6567    3.7596 H   0  0  0  0  0  0  0  0  0  0  0  0
    4.1599    2.7922    2.6965 H   0  0  0  0  0  0  0  0  0  0  0  0
    0.5993    3.0199    5.3279 H   0  0  0  0  0  0  0  0  0  0  0  0
   -1.4572    2.3198    4.1498 H   0  0  0  0  0  0  0  0  0  0  0  0
   -3.7346    3.5609   -0.2049 H   0  0  0  0  0  0  0  0  0  0  0  0
   -7.0563    5.3237   -0.5747 H   0  0  0  0  0  0  0  0  0  0  0  0
   -5.7376    4.4913    0.2874 H   0  0  0  0  0  0  0  0  0  0  0  0
   -4.0729    5.7091   -1.1704 H   0  0  0  0  0  0  0  0  0  0  0  0
   -5.1081    6.8446   -0.2948 H   0  0  0  0  0  0  0  0  0  0  0  0
   -5.4103    6.5040   -2.0044 H   0  0  0  0  0  0  0  0  0  0  0  0
   -7.0500    2.8237   -3.5152 H   0  0  0  0  0  0  0  0  0  0  0  0
   -5.6033   -2.7811   -5.9638 H   0  0  0  0  0  0  0  0  0  0  0  0
   -9.5918   -0.0783   -7.5307 H   0  0  0  0  0  0  0  0  0  0  0  0
   -9.9056   -3.3533   -8.4916 H   0  0  0  0  0  0  0  0  0  0  0  0
   -9.4618   -2.4079  -10.7515 H   0  0  0  0  0  0  0  0  0  0  0  0
   -7.3975   -0.8235  -10.5060 H   0  0  0  0  0  0  0  0  0  0  0  0
   -5.3236   -2.2772   -9.7062 H   0  0  0  0  0  0  0  0  0  0  0  0
   -6.1119   -4.7581   -9.4506 H   0  0  0  0  0  0  0  0  0  0  0  0
   -7.6295   -4.1519  -11.5359 H   0  0  0  0  0  0  0  0  0  0  0  0
   -8.6563   -4.9394  -10.3115 H   0  0  0  0  0  0  0  0  0  0  0  0
   -7.8894   -4.7638   -7.7071 H   0  0  0  0  0  0  0  0  0  0  0  0
  1  2  2  0  0  0  0
  2  3  1  0  0  0  0
  3  4  2  0  0  0  0
  3  5  1  0  0  0  0
  5  6  2  0  0  0  0
  6  7  1  0  0  0  0
  7  8  2  0  0  0  0
  8  9  1  0  0  0  0
  9 10  2  0  0  0  0
 10 11  1  0  0  0  0
 11 12  2  0  0  0  0
 12 13  1  0  0  0  0
 13 14  3  0  0  0  0
 12 15  1  0  0  0  0
 15 16  3  0  0  0  0
  8 17  1  0  0  0  0
 17 18  1  0  0  0  0
 18 19  1  0  0  0  0
 19 20  2  0  0  0  0
 20 21  1  0  0  0  0
 21 22  1  0  0  0  0
 21 23  1  0  0  0  0
  1 24  1  0  0  0  0
 24 25  1  0  0  0  0
 25 26  1  0  0  0  0
 26 27  2  0  0  0  0
 27 28  1  0  0  0  0
 28 29  1  0  0  0  0
 29 30  1  0  0  0  0
 30 31  2  0  0  0  0
 31 32  1  0  0  0  0
 32 33  2  0  0  0  0
 33 34  1  0  0  0  0
 34 35  2  0  0  0  0
 34 36  1  0  0  0  0
 36 37  1  0  0  0  0
 37 38  1  0  0  0  0
 33 39  1  0  0  0  0
 31 40  1  0  0  0  0
 29 41  2  0  0  0  0
 41 42  1  0  0  0  0
 41 43  1  0  0  0  0
 26 44  1  0  0  0  0
 44 45  2  0  0  0  0
 45 46  1  0  0  0  0
 46 47  1  0  0  0  0
 47 48  2  0  0  0  0
 48 49  1  0  0  0  0
 49 50  2  0  0  0  0
 50 51  1  0  0  0  0
 51 52  1  0  0  0  0
 50 53  1  0  0  0  0
 53 54  2  0  0  0  0
 46 55  1  0  0  0  0
 55 56  2  0  0  0  0
 56 57  1  0  0  0  0
 57 58  2  0  0  0  0
 58 59  1  0  0  0  0
 59 60  1  0  0  0  0
 58 61  1  0  0  0  0
 61 62  2  0  0  0  0
 45 63  1  0  0  0  0
 63 64  1  0  0  0  0
 64 65  1  0  0  0  0
 65 66  2  0  0  0  0
 66 67  1  0  0  0  0
 67 68  1  0  0  0  0
 68 69  2  0  0  0  0
 69 70  1  0  0  0  0
 70 71  2  0  0  0  0
 71 72  1  0  0  0  0
 72 73  1  0  0  0  0
 71 74  1  0  0  0  0
 74 75  2  0  0  0  0
 67 76  1  0  0  0  0
 76 77  2  0  0  0  0
 77 78  1  0  0  0  0
 78 79  2  0  0  0  0
 79 80  1  0  0  0  0
 80 81  1  0  0  0  0
 79 82  1  0  0  0  0
 82 83  2  0  0  0  0
 66 84  1  0  0  0  0
 84 85  1  0  0  0  0
 65 86  1  0  0  0  0
 86 87  2  0  0  0  0
 87 88  1  0  0  0  0
 88 89  1  0  0  0  0
 89 90  1  0  0  0  0
 90 91  1  0  0  0  0
 88 92  2  0  0  0  0
 92 93  1  0  0  0  0
 92 94  1  0  0  0  0
 94 95  2  0  0  0  0
 95 96  1  0  0  0  0
 96 97  2  0  0  0  0
 96 98  1  0  0  0  0
 98 99  2  0  0  0  0
 99100  1  0  0  0  0
100101  2  0  0  0  0
101102  1  0  0  0  0
102103  2  0  0  0  0
103104  1  0  0  0  0
104105  2  0  0  0  0
105106  1  0  0  0  0
106107  3  0  0  0  0
105108  1  0  0  0  0
108109  3  0  0  0  0
101110  1  0  0  0  0
110111  1  0  0  0  0
111112  1  0  0  0  0
112113  2  0  0  0  0
113114  1  0  0  0  0
114115  1  0  0  0  0
114116  1  0  0  0  0
 11  2  1  0  0  0  0
 23 17  1  0  0  0  0
 42 24  2  0  0  0  0
 85 44  1  0  0  0  0
 93 86  1  0  0  0  0
104 95  1  0  0  0  0
116110  1  0  0  0  0
 10  5  1  0  0  0  0
 22 18  1  0  0  0  0
 42 27  1  0  0  0  0
 54 47  1  0  0  0  0
 62 55  1  0  0  0  0
 84 63  2  0  0  0  0
103 98  1  0  0  0  0
115111  1  0  0  0  0
 23  7  1  0  0  0  0
 39 30  1  0  0  0  0
 75 68  1  0  0  0  0
 83 76  1  0  0  0  0
116100  1  0  0  0  0
  1117  1  0  0  0  0
  6118  1  0  0  0  0
  9119  1  0  0  0  0
 17120  1  0  0  0  0
 18121  1  0  0  0  0
 19122  1  0  0  0  0
 20123  1  0  0  0  0
 21124  1  0  0  0  0
 22125  1  0  0  0  0
 22126  1  0  0  0  0
 23127  1  0  0  0  0
 32128  1  0  0  0  0
 37129  1  0  0  0  0
 37130  1  0  0  0  0
 38131  1  0  0  0  0
 38132  1  0  0  0  0
 38133  1  0  0  0  0
 48134  1  0  0  0  0
 49135  1  0  0  0  0
 52136  1  0  0  0  0
 52137  1  0  0  0  0
 52138  1  0  0  0  0
 53139  1  0  0  0  0
 54140  1  0  0  0  0
 56141  1  0  0  0  0
 57142  1  0  0  0  0
 60143  1  0  0  0  0
 60144  1  0  0  0  0
 60145  1  0  0  0  0
 61146  1  0  0  0  0
 62147  1  0  0  0  0
 69148  1  0  0  0  0
 70149  1  0  0  0  0
 73150  1  0  0  0  0
 73151  1  0  0  0  0
 73152  1  0  0  0  0
 74153  1  0  0  0  0
 75154  1  0  0  0  0
 77155  1  0  0  0  0
 78156  1  0  0  0  0
 81157  1  0  0  0  0
 81158  1  0  0  0  0
 81159  1  0  0  0  0
 82160  1  0  0  0  0
 83161  1  0  0  0  0
 87162  1  0  0  0  0
 90163  1  0  0  0  0
 90164  1  0  0  0  0
 91165  1  0  0  0  0
 91166  1  0  0  0  0
 91167  1  0  0  0  0
 94168  1  0  0  0  0
 99169  1  0  0  0  0
102170  1  0  0  0  0
110171  1  0  0  0  0
111172  1  0  0  0  0
112173  1  0  0  0  0
113174  1  0  0  0  0
114175  1  0  0  0  0
115176  1  0  0  0  0
115177  1  0  0  0  0
116178  1  0  0  0  0
M  END
