
  xtb     02082213053D
 energy: -453.401748002114 gnorm: 0.000598973428 xtb: 6.4.1 (unknown)
250275  0     0  0            999 V2000
   11.1472   -3.5648    2.3316 C   0  0  0  0  0  0  0  0  0  0  0  0
   12.3105   -2.9184    2.0636 C   0  0  0  0  0  0  0  0  0  0  0  0
   13.5791   -3.3800    2.7005 C   0  0  0  0  0  0  0  0  0  0  0  0
   13.7739   -4.4541    3.2204 O   0  0  0  0  0  0  0  0  0  0  0  0
   14.4972   -2.2294    2.6128 C   0  0  0  0  0  0  0  0  0  0  0  0
   15.7570   -2.1056    3.1949 C   0  0  0  0  0  0  0  0  0  0  0  0
   16.3601   -0.8909    2.9716 C   0  0  0  0  0  0  0  0  0  0  0  0
   15.7493    0.1403    2.2432 C   0  0  0  0  0  0  0  0  0  0  0  0
   14.5098    0.0344    1.6599 C   0  0  0  0  0  0  0  0  0  0  0  0
   13.8926   -1.2038    1.8536 C   0  0  0  0  0  0  0  0  0  0  0  0
   12.6132   -1.6901    1.3506 C   0  0  0  0  0  0  0  0  0  0  0  0
   11.9738   -1.2003    0.2425 C   0  0  0  0  0  0  0  0  0  0  0  0
   10.8660   -1.8142   -0.3797 C   0  0  0  0  0  0  0  0  0  0  0  0
    9.9934   -2.2742   -0.9666 N   0  0  0  0  0  0  0  0  0  0  0  0
   12.3722   -0.0527   -0.4700 C   0  0  0  0  0  0  0  0  0  0  0  0
   12.6154    0.8754   -1.1015 N   0  0  0  0  0  0  0  0  0  0  0  0
   16.9155    1.0755    2.4361 C   0  0  0  0  0  0  0  0  0  0  0  0
   17.8744    1.2817    1.2378 C   0  0  0  0  0  0  0  0  0  0  0  0
   17.7861    0.0299    0.4002 C   0  0  0  0  0  0  0  0  0  0  0  0
   18.3674   -0.9514    1.0772 C   0  0  0  0  0  0  0  0  0  0  0  0
   18.8593   -0.3810    2.3846 C   0  0  0  0  0  0  0  0  0  0  0  0
   19.2216    1.0447    1.9386 C   0  0  0  0  0  0  0  0  0  0  0  0
   17.6013   -0.0765    3.2364 C   0  0  0  0  0  0  0  0  0  0  0  0
    9.8356   -3.0617    2.1241 C   0  0  0  0  0  0  0  0  0  0  0  0
    9.4691   -1.7505    1.9874 C   0  0  0  0  0  0  0  0  0  0  0  0
    8.0983   -1.5603    1.7268 C   0  0  0  0  0  0  0  0  0  0  0  0
    7.4690   -0.3543    1.3674 C   0  0  0  0  0  0  0  0  0  0  0  0
    8.3113    0.8248    1.1098 C   0  0  0  0  0  0  0  0  0  0  0  0
    8.4094    1.3133   -0.1914 C   0  0  0  0  0  0  0  0  0  0  0  0
    9.3576    2.2531   -0.5391 C   0  0  0  0  0  0  0  0  0  0  0  0
   10.2471    2.7486    0.4143 C   0  0  0  0  0  0  0  0  0  0  0  0
   11.2493    3.6140    0.1938 O   0  0  0  0  0  0  0  0  0  0  0  0
   11.6641    3.9178   -1.1334 C   0  0  0  0  0  0  0  0  0  0  0  0
   10.9194    5.1046   -1.7311 C   0  0  0  0  0  0  0  0  0  0  0  0
   10.0961    2.3082    1.7419 C   0  0  0  0  0  0  0  0  0  0  0  0
   11.0369    2.8511    2.7753 C   0  0  0  0  0  0  0  0  0  0  0  0
   10.9917    4.1900    2.8798 F   0  0  0  0  0  0  0  0  0  0  0  0
   12.3214    2.5320    2.5251 F   0  0  0  0  0  0  0  0  0  0  0  0
   10.7825    2.3785    4.0091 F   0  0  0  0  0  0  0  0  0  0  0  0
    9.1498    1.3557    2.0813 C   0  0  0  0  0  0  0  0  0  0  0  0
    6.1188   -0.4276    1.0906 C   0  0  0  0  0  0  0  0  0  0  0  0
    5.4007   -1.6507    1.0750 C   0  0  0  0  0  0  0  0  0  0  0  0
    6.0513   -2.8660    1.3459 C   0  0  0  0  0  0  0  0  0  0  0  0
    5.3655   -4.1528    1.1664 C   0  0  0  0  0  0  0  0  0  0  0  0
    5.3369   -5.1147    2.1695 C   0  0  0  0  0  0  0  0  0  0  0  0
    4.7200   -6.3351    1.9746 C   0  0  0  0  0  0  0  0  0  0  0  0
    4.1376   -6.6465    0.7479 C   0  0  0  0  0  0  0  0  0  0  0  0
    3.5464   -7.8150    0.4369 O   0  0  0  0  0  0  0  0  0  0  0  0
    3.5437   -8.8684    1.3868 C   0  0  0  0  0  0  0  0  0  0  0  0
    2.9680  -10.0991    0.7053 C   0  0  0  0  0  0  0  0  0  0  0  0
    4.1730   -5.6748   -0.2670 C   0  0  0  0  0  0  0  0  0  0  0  0
    4.7661   -4.4447   -0.0548 C   0  0  0  0  0  0  0  0  0  0  0  0
    3.6116   -6.0249   -1.6135 C   0  0  0  0  0  0  0  0  0  0  0  0
    2.3287   -6.4298   -1.5697 F   0  0  0  0  0  0  0  0  0  0  0  0
    4.2891   -7.0235   -2.2073 F   0  0  0  0  0  0  0  0  0  0  0  0
    3.6348   -4.9948   -2.4723 F   0  0  0  0  0  0  0  0  0  0  0  0
    7.3878   -2.7882    1.7017 C   0  0  0  0  0  0  0  0  0  0  0  0
    8.4488   -4.1333    2.0210 S   0  0  0  0  0  0  0  0  0  0  0  0
    4.0442   -1.4498    0.7422 C   0  0  0  0  0  0  0  0  0  0  0  0
    3.7043   -0.1414    0.5119 C   0  0  0  0  0  0  0  0  0  0  0  0
    5.0865    0.9225    0.7084 S   0  0  0  0  0  0  0  0  0  0  0  0
    2.3910    0.2669    0.1285 C   0  0  0  0  0  0  0  0  0  0  0  0
    1.6816    1.4612    0.2091 C   0  0  0  0  0  0  0  0  0  0  0  0
    2.1074    2.6783    0.7149 N   0  0  0  0  0  0  0  0  0  0  0  0
    1.1891    3.4373    1.4568 C   0  0  0  0  0  0  0  0  0  0  0  0
    0.3585    2.8229    2.3903 C   0  0  0  0  0  0  0  0  0  0  0  0
   -0.5792    3.5543    3.0936 C   0  0  0  0  0  0  0  0  0  0  0  0
   -0.6910    4.9207    2.8827 C   0  0  0  0  0  0  0  0  0  0  0  0
   -1.8607    5.9592    3.7049 S   0  0  0  0  0  0  0  0  0  0  0  0
   -2.7759    4.8287    4.7902 C   0  0  0  0  0  0  0  0  0  0  0  0
    0.1565    5.5457    1.9697 C   0  0  0  0  0  0  0  0  0  0  0  0
    1.0821    4.8147    1.2613 C   0  0  0  0  0  0  0  0  0  0  0  0
    3.3455    3.2411    0.3884 C   0  0  0  0  0  0  0  0  0  0  0  0
    4.0394    3.9695    1.3526 C   0  0  0  0  0  0  0  0  0  0  0  0
    5.2767    4.5059    1.0713 C   0  0  0  0  0  0  0  0  0  0  0  0
    5.8426    4.3249   -0.1846 C   0  0  0  0  0  0  0  0  0  0  0  0
    7.4351    4.9430   -0.6193 S   0  0  0  0  0  0  0  0  0  0  0  0
    8.1747    5.3759    0.9799 C   0  0  0  0  0  0  0  0  0  0  0  0
    5.1347    3.6362   -1.1655 C   0  0  0  0  0  0  0  0  0  0  0  0
    3.8964    3.0980   -0.8850 C   0  0  0  0  0  0  0  0  0  0  0  0
    0.3396    1.2761   -0.2163 C   0  0  0  0  0  0  0  0  0  0  0  0
   -1.0291    2.3255   -0.3626 S   0  0  0  0  0  0  0  0  0  0  0  0
   -2.0303    0.9887   -0.9296 C   0  0  0  0  0  0  0  0  0  0  0  0
   -1.3096   -0.1918   -1.0466 C   0  0  0  0  0  0  0  0  0  0  0  0
   -1.7922   -1.4182   -1.4806 N   0  0  0  0  0  0  0  0  0  0  0  0
   -1.3238   -2.5352   -0.7692 C   0  0  0  0  0  0  0  0  0  0  0  0
   -0.8624   -3.6849   -1.4047 C   0  0  0  0  0  0  0  0  0  0  0  0
   -0.3523   -4.7372   -0.6704 C   0  0  0  0  0  0  0  0  0  0  0  0
   -0.2855   -4.6538    0.7142 C   0  0  0  0  0  0  0  0  0  0  0  0
    0.3989   -5.9321    1.7251 S   0  0  0  0  0  0  0  0  0  0  0  0
    0.0896   -7.4301    0.7417 C   0  0  0  0  0  0  0  0  0  0  0  0
   -0.7492   -3.5100    1.3569 C   0  0  0  0  0  0  0  0  0  0  0  0
   -1.2704   -2.4669    0.6246 C   0  0  0  0  0  0  0  0  0  0  0  0
   -2.3704   -1.5527   -2.7505 C   0  0  0  0  0  0  0  0  0  0  0  0
   -3.2011   -2.6347   -3.0340 C   0  0  0  0  0  0  0  0  0  0  0  0
   -3.6998   -2.8284   -4.3067 C   0  0  0  0  0  0  0  0  0  0  0  0
   -3.3943   -1.9275   -5.3202 C   0  0  0  0  0  0  0  0  0  0  0  0
   -3.9128   -2.1029   -6.9934 S   0  0  0  0  0  0  0  0  0  0  0  0
   -4.4624   -3.8294   -7.0955 C   0  0  0  0  0  0  0  0  0  0  0  0
   -2.6190   -0.8079   -5.0224 C   0  0  0  0  0  0  0  0  0  0  0  0
   -2.1070   -0.6243   -3.7584 C   0  0  0  0  0  0  0  0  0  0  0  0
    0.0299   -0.0070   -0.6237 C   0  0  0  0  0  0  0  0  0  0  0  0
    1.3993   -1.0451   -0.5214 S   0  0  0  0  0  0  0  0  0  0  0  0
   -3.4215    1.2287   -1.0664 C   0  0  0  0  0  0  0  0  0  0  0  0
   -4.0355    2.4362   -0.8598 C   0  0  0  0  0  0  0  0  0  0  0  0
   -5.4441    2.3801   -0.9030 C   0  0  0  0  0  0  0  0  0  0  0  0
   -6.3561    3.4351   -0.7136 C   0  0  0  0  0  0  0  0  0  0  0  0
   -5.8919    4.7798   -0.3498 C   0  0  0  0  0  0  0  0  0  0  0  0
   -4.9915    4.9566    0.6986 C   0  0  0  0  0  0  0  0  0  0  0  0
   -4.5418    6.2088    1.0629 C   0  0  0  0  0  0  0  0  0  0  0  0
   -4.9893    7.3438    0.3881 C   0  0  0  0  0  0  0  0  0  0  0  0
   -4.6456    8.6144    0.6636 O   0  0  0  0  0  0  0  0  0  0  0  0
   -3.6256    8.8929    1.6078 C   0  0  0  0  0  0  0  0  0  0  0  0
   -2.2340    8.6195    1.0507 C   0  0  0  0  0  0  0  0  0  0  0  0
   -5.9049    7.1653   -0.6639 C   0  0  0  0  0  0  0  0  0  0  0  0
   -6.3868    8.3868   -1.3933 C   0  0  0  0  0  0  0  0  0  0  0  0
   -5.3830    9.0821   -1.9575 F   0  0  0  0  0  0  0  0  0  0  0  0
   -7.0377    9.2471   -0.5913 F   0  0  0  0  0  0  0  0  0  0  0  0
   -7.2377    8.0947   -2.3892 F   0  0  0  0  0  0  0  0  0  0  0  0
   -6.3480    5.9066   -1.0255 C   0  0  0  0  0  0  0  0  0  0  0  0
   -7.7003    3.1276   -0.8571 C   0  0  0  0  0  0  0  0  0  0  0  0
   -8.1554    1.8084   -1.1151 C   0  0  0  0  0  0  0  0  0  0  0  0
   -7.2429    0.7505   -1.2908 C   0  0  0  0  0  0  0  0  0  0  0  0
   -7.7503   -0.5851   -1.6324 C   0  0  0  0  0  0  0  0  0  0  0  0
   -8.6893   -1.2222   -0.8261 C   0  0  0  0  0  0  0  0  0  0  0  0
   -9.2628   -2.4214   -1.1981 C   0  0  0  0  0  0  0  0  0  0  0  0
   -8.9194   -3.0241   -2.4072 C   0  0  0  0  0  0  0  0  0  0  0  0
   -9.4076   -4.1863   -2.8766 O   0  0  0  0  0  0  0  0  0  0  0  0
  -10.5764   -4.7533   -2.3101 C   0  0  0  0  0  0  0  0  0  0  0  0
  -11.8245   -3.9284   -2.6033 C   0  0  0  0  0  0  0  0  0  0  0  0
   -7.9532   -2.3894   -3.2059 C   0  0  0  0  0  0  0  0  0  0  0  0
   -7.3690   -1.1969   -2.8206 C   0  0  0  0  0  0  0  0  0  0  0  0
   -7.5785   -3.0316   -4.5073 C   0  0  0  0  0  0  0  0  0  0  0  0
   -6.9058   -4.1927   -4.3352 F   0  0  0  0  0  0  0  0  0  0  0  0
   -8.6273   -3.3253   -5.2840 F   0  0  0  0  0  0  0  0  0  0  0  0
   -6.7710   -2.2591   -5.2486 F   0  0  0  0  0  0  0  0  0  0  0  0
   -5.9037    1.0674   -1.1970 C   0  0  0  0  0  0  0  0  0  0  0  0
   -4.5770   -0.0551   -1.3696 S   0  0  0  0  0  0  0  0  0  0  0  0
   -9.5553    1.7448   -1.2367 C   0  0  0  0  0  0  0  0  0  0  0  0
  -10.1841    2.9559   -1.1015 C   0  0  0  0  0  0  0  0  0  0  0  0
   -9.0381    4.2362   -0.7363 S   0  0  0  0  0  0  0  0  0  0  0  0
  -11.5686    3.2423   -1.1845 C   0  0  0  0  0  0  0  0  0  0  0  0
  -12.5627    2.4731   -1.7065 C   0  0  0  0  0  0  0  0  0  0  0  0
  -13.9722    2.7564   -1.3139 C   0  0  0  0  0  0  0  0  0  0  0  0
  -14.3866    3.7596   -0.7805 O   0  0  0  0  0  0  0  0  0  0  0  0
  -14.7262    1.5337   -1.6521 C   0  0  0  0  0  0  0  0  0  0  0  0
  -16.0635    1.2628   -1.3670 C   0  0  0  0  0  0  0  0  0  0  0  0
  -16.4852    0.0224   -1.7822 C   0  0  0  0  0  0  0  0  0  0  0  0
  -15.6399   -0.8866   -2.4330 C   0  0  0  0  0  0  0  0  0  0  0  0
  -14.3226   -0.6312   -2.7287 C   0  0  0  0  0  0  0  0  0  0  0  0
  -13.8743    0.6278   -2.3180 C   0  0  0  0  0  0  0  0  0  0  0  0
  -12.5701    1.2623   -2.5021 C   0  0  0  0  0  0  0  0  0  0  0  0
  -11.6415    0.8856   -3.4390 C   0  0  0  0  0  0  0  0  0  0  0  0
  -10.5323    1.6737   -3.8100 C   0  0  0  0  0  0  0  0  0  0  0  0
   -9.6380    2.2899   -4.1809 N   0  0  0  0  0  0  0  0  0  0  0  0
  -11.7013   -0.3142   -4.1742 C   0  0  0  0  0  0  0  0  0  0  0  0
  -11.6773   -1.3032   -4.7576 N   0  0  0  0  0  0  0  0  0  0  0  0
  -16.7205   -1.9315   -2.5525 C   0  0  0  0  0  0  0  0  0  0  0  0
  -16.6552   -3.1096   -1.5579 C   0  0  0  0  0  0  0  0  0  0  0  0
  -18.0529   -3.6847   -1.5859 C   0  0  0  0  0  0  0  0  0  0  0  0
  -18.8550   -2.8245   -0.9717 C   0  0  0  0  0  0  0  0  0  0  0  0
  -18.0127   -1.6543   -0.5168 C   0  0  0  0  0  0  0  0  0  0  0  0
  -16.6970   -2.3807   -0.2086 C   0  0  0  0  0  0  0  0  0  0  0  0
  -17.6642   -0.9185   -1.8283 C   0  0  0  0  0  0  0  0  0  0  0  0
   11.2389   -4.5379    2.8012 H   0  0  0  0  0  0  0  0  0  0  0  0
   16.1878   -2.9149    3.7635 H   0  0  0  0  0  0  0  0  0  0  0  0
   14.0376    0.8404    1.1229 H   0  0  0  0  0  0  0  0  0  0  0  0
   16.6974    2.0029    2.9610 H   0  0  0  0  0  0  0  0  0  0  0  0
   17.7416    2.2224    0.7106 H   0  0  0  0  0  0  0  0  0  0  0  0
   17.2744   -0.0243   -0.5427 H   0  0  0  0  0  0  0  0  0  0  0  0
   18.4394   -1.9901    0.8124 H   0  0  0  0  0  0  0  0  0  0  0  0
   19.6251   -0.9541    2.9005 H   0  0  0  0  0  0  0  0  0  0  0  0
   19.4050    1.7257    2.7685 H   0  0  0  0  0  0  0  0  0  0  0  0
   20.0645    1.0684    1.2497 H   0  0  0  0  0  0  0  0  0  0  0  0
   17.8427    0.1001    4.2827 H   0  0  0  0  0  0  0  0  0  0  0  0
   10.1619   -0.9360    2.0925 H   0  0  0  0  0  0  0  0  0  0  0  0
    7.7513    0.9208   -0.9514 H   0  0  0  0  0  0  0  0  0  0  0  0
    9.4146    2.5873   -1.5611 H   0  0  0  0  0  0  0  0  0  0  0  0
   11.5771    3.0289   -1.7642 H   0  0  0  0  0  0  0  0  0  0  0  0
   12.7246    4.1616   -1.0268 H   0  0  0  0  0  0  0  0  0  0  0  0
   11.0529    5.9829   -1.1042 H   0  0  0  0  0  0  0  0  0  0  0  0
    9.8549    4.9039   -1.8222 H   0  0  0  0  0  0  0  0  0  0  0  0
   11.3211    5.3177   -2.7177 H   0  0  0  0  0  0  0  0  0  0  0  0
    9.0699    1.0241    3.1061 H   0  0  0  0  0  0  0  0  0  0  0  0
    5.7936   -4.9008    3.1241 H   0  0  0  0  0  0  0  0  0  0  0  0
    4.7019   -7.0479    2.7823 H   0  0  0  0  0  0  0  0  0  0  0  0
    2.9333   -8.5818    2.2536 H   0  0  0  0  0  0  0  0  0  0  0  0
    4.5690   -9.0696    1.7224 H   0  0  0  0  0  0  0  0  0  0  0  0
    3.5755  -10.3601   -0.1568 H   0  0  0  0  0  0  0  0  0  0  0  0
    1.9551   -9.9030    0.3658 H   0  0  0  0  0  0  0  0  0  0  0  0
    2.9570  -10.9331    1.4009 H   0  0  0  0  0  0  0  0  0  0  0  0
    4.7936   -3.7205   -0.8543 H   0  0  0  0  0  0  0  0  0  0  0  0
    3.3291   -2.2522    0.7010 H   0  0  0  0  0  0  0  0  0  0  0  0
    0.4452    1.7601    2.5640 H   0  0  0  0  0  0  0  0  0  0  0  0
   -1.2091    3.0436    3.8038 H   0  0  0  0  0  0  0  0  0  0  0  0
   -2.1010    4.3838    5.5156 H   0  0  0  0  0  0  0  0  0  0  0  0
   -3.5104    5.4435    5.3015 H   0  0  0  0  0  0  0  0  0  0  0  0
   -3.2790    4.0692    4.1987 H   0  0  0  0  0  0  0  0  0  0  0  0
    0.0717    6.6100    1.8149 H   0  0  0  0  0  0  0  0  0  0  0  0
    1.7221    5.3034    0.5428 H   0  0  0  0  0  0  0  0  0  0  0  0
    3.6073    4.0985    2.3336 H   0  0  0  0  0  0  0  0  0  0  0  0
    5.7922    5.0572    1.8404 H   0  0  0  0  0  0  0  0  0  0  0  0
    7.7100    6.2733    1.3780 H   0  0  0  0  0  0  0  0  0  0  0  0
    9.2262    5.5635    0.7892 H   0  0  0  0  0  0  0  0  0  0  0  0
    8.0715    4.5379    1.6628 H   0  0  0  0  0  0  0  0  0  0  0  0
    5.5696    3.5216   -2.1460 H   0  0  0  0  0  0  0  0  0  0  0  0
    3.3542    2.5547   -1.6444 H   0  0  0  0  0  0  0  0  0  0  0  0
   -0.8784   -3.7462   -2.4820 H   0  0  0  0  0  0  0  0  0  0  0  0
    0.0182   -5.6064   -1.1878 H   0  0  0  0  0  0  0  0  0  0  0  0
    0.1518   -8.2606    1.4385 H   0  0  0  0  0  0  0  0  0  0  0  0
   -0.9082   -7.3750    0.3186 H   0  0  0  0  0  0  0  0  0  0  0  0
    0.8417   -7.5337   -0.0332 H   0  0  0  0  0  0  0  0  0  0  0  0
   -0.6996   -3.4524    2.4334 H   0  0  0  0  0  0  0  0  0  0  0  0
   -1.6403   -1.5851    1.1275 H   0  0  0  0  0  0  0  0  0  0  0  0
   -3.4498   -3.3344   -2.2503 H   0  0  0  0  0  0  0  0  0  0  0  0
   -4.3276   -3.6838   -4.4938 H   0  0  0  0  0  0  0  0  0  0  0  0
   -5.3905   -3.9661   -6.5522 H   0  0  0  0  0  0  0  0  0  0  0  0
   -3.6829   -4.4821   -6.7142 H   0  0  0  0  0  0  0  0  0  0  0  0
   -4.6261   -4.0216   -8.1513 H   0  0  0  0  0  0  0  0  0  0  0  0
   -2.4011   -0.0984   -5.8056 H   0  0  0  0  0  0  0  0  0  0  0  0
   -1.4775    0.2291   -3.5548 H   0  0  0  0  0  0  0  0  0  0  0  0
   -3.4787    3.3407   -0.6920 H   0  0  0  0  0  0  0  0  0  0  0  0
   -4.6500    4.0947    1.2527 H   0  0  0  0  0  0  0  0  0  0  0  0
   -3.8435    6.2977    1.8791 H   0  0  0  0  0  0  0  0  0  0  0  0
   -3.7910    8.3353    2.5365 H   0  0  0  0  0  0  0  0  0  0  0  0
   -3.7441    9.9591    1.8154 H   0  0  0  0  0  0  0  0  0  0  0  0
   -1.4893    8.9034    1.7888 H   0  0  0  0  0  0  0  0  0  0  0  0
   -2.1122    7.5655    0.8132 H   0  0  0  0  0  0  0  0  0  0  0  0
   -2.0796    9.1993    0.1443 H   0  0  0  0  0  0  0  0  0  0  0  0
   -7.0329    5.8032   -1.8526 H   0  0  0  0  0  0  0  0  0  0  0  0
   -8.9680   -0.7737    0.1167 H   0  0  0  0  0  0  0  0  0  0  0  0
   -9.9792   -2.8864   -0.5399 H   0  0  0  0  0  0  0  0  0  0  0  0
  -10.6505   -5.7283   -2.7973 H   0  0  0  0  0  0  0  0  0  0  0  0
  -10.4466   -4.9121   -1.2320 H   0  0  0  0  0  0  0  0  0  0  0  0
  -11.8654   -3.6975   -3.6652 H   0  0  0  0  0  0  0  0  0  0  0  0
  -11.8170   -2.9911   -2.0511 H   0  0  0  0  0  0  0  0  0  0  0  0
  -12.7092   -4.4938   -2.3235 H   0  0  0  0  0  0  0  0  0  0  0  0
   -6.6424   -0.7238   -3.4632 H   0  0  0  0  0  0  0  0  0  0  0  0
  -10.0827    0.8219   -1.3939 H   0  0  0  0  0  0  0  0  0  0  0  0
  -11.8984    4.1635   -0.7150 H   0  0  0  0  0  0  0  0  0  0  0  0
  -16.6817    1.9926   -0.8683 H   0  0  0  0  0  0  0  0  0  0  0  0
  -13.6852   -1.3397   -3.2308 H   0  0  0  0  0  0  0  0  0  0  0  0
  -16.9679   -2.2426   -3.5654 H   0  0  0  0  0  0  0  0  0  0  0  0
  -15.8367   -3.8040   -1.7287 H   0  0  0  0  0  0  0  0  0  0  0  0
  -18.3150   -4.5999   -2.0833 H   0  0  0  0  0  0  0  0  0  0  0  0
  -19.9211   -2.8782   -0.8531 H   0  0  0  0  0  0  0  0  0  0  0  0
  -18.4316   -1.0238    0.2626 H   0  0  0  0  0  0  0  0  0  0  0  0
  -15.8530   -1.7149   -0.0373 H   0  0  0  0  0  0  0  0  0  0  0  0
  -16.7941   -3.0695    0.6290 H   0  0  0  0  0  0  0  0  0  0  0  0
  -18.5419   -0.5544   -2.3585 H   0  0  0  0  0  0  0  0  0  0  0  0
  1  2  2  0  0  0  0
  2  3  1  0  0  0  0
  3  4  2  0  0  0  0
  3  5  1  0  0  0  0
  5  6  2  0  0  0  0
  6  7  1  0  0  0  0
  7  8  2  0  0  0  0
  8  9  1  0  0  0  0
  9 10  2  0  0  0  0
 10 11  1  0  0  0  0
 11 12  2  0  0  0  0
 12 13  1  0  0  0  0
 13 14  3  0  0  0  0
 12 15  1  0  0  0  0
 15 16  3  0  0  0  0
  8 17  1  0  0  0  0
 17 18  1  0  0  0  0
 18 19  1  0  0  0  0
 19 20  2  0  0  0  0
 20 21  1  0  0  0  0
 21 22  1  0  0  0  0
 21 23  1  0  0  0  0
  1 24  1  0  0  0  0
 24 25  2  0  0  0  0
 25 26  1  0  0  0  0
 26 27  2  0  0  0  0
 27 28  1  0  0  0  0
 28 29  2  0  0  0  0
 29 30  1  0  0  0  0
 30 31  2  0  0  0  0
 31 32  1  0  0  0  0
 32 33  1  0  0  0  0
 33 34  1  0  0  0  0
 31 35  1  0  0  0  0
 35 36  1  0  0  0  0
 36 37  1  0  0  0  0
 36 38  1  0  0  0  0
 36 39  1  0  0  0  0
 35 40  2  0  0  0  0
 27 41  1  0  0  0  0
 41 42  2  0  0  0  0
 42 43  1  0  0  0  0
 43 44  1  0  0  0  0
 44 45  2  0  0  0  0
 45 46  1  0  0  0  0
 46 47  2  0  0  0  0
 47 48  1  0  0  0  0
 48 49  1  0  0  0  0
 49 50  1  0  0  0  0
 47 51  1  0  0  0  0
 51 52  2  0  0  0  0
 51 53  1  0  0  0  0
 53 54  1  0  0  0  0
 53 55  1  0  0  0  0
 53 56  1  0  0  0  0
 43 57  2  0  0  0  0
 57 58  1  0  0  0  0
 42 59  1  0  0  0  0
 59 60  2  0  0  0  0
 60 61  1  0  0  0  0
 60 62  1  0  0  0  0
 62 63  2  0  0  0  0
 63 64  1  0  0  0  0
 64 65  1  0  0  0  0
 65 66  2  0  0  0  0
 66 67  1  0  0  0  0
 67 68  2  0  0  0  0
 68 69  1  0  0  0  0
 69 70  1  0  0  0  0
 68 71  1  0  0  0  0
 71 72  2  0  0  0  0
 64 73  1  0  0  0  0
 73 74  2  0  0  0  0
 74 75  1  0  0  0  0
 75 76  2  0  0  0  0
 76 77  1  0  0  0  0
 77 78  1  0  0  0  0
 76 79  1  0  0  0  0
 79 80  2  0  0  0  0
 63 81  1  0  0  0  0
 81 82  1  0  0  0  0
 82 83  1  0  0  0  0
 83 84  2  0  0  0  0
 84 85  1  0  0  0  0
 85 86  1  0  0  0  0
 86 87  2  0  0  0  0
 87 88  1  0  0  0  0
 88 89  2  0  0  0  0
 89 90  1  0  0  0  0
 90 91  1  0  0  0  0
 89 92  1  0  0  0  0
 92 93  2  0  0  0  0
 85 94  1  0  0  0  0
 94 95  2  0  0  0  0
 95 96  1  0  0  0  0
 96 97  2  0  0  0  0
 97 98  1  0  0  0  0
 98 99  1  0  0  0  0
 97100  1  0  0  0  0
100101  2  0  0  0  0
 84102  1  0  0  0  0
102103  1  0  0  0  0
 83104  1  0  0  0  0
104105  2  0  0  0  0
105106  1  0  0  0  0
106107  2  0  0  0  0
107108  1  0  0  0  0
108109  2  0  0  0  0
109110  1  0  0  0  0
110111  2  0  0  0  0
111112  1  0  0  0  0
112113  1  0  0  0  0
113114  1  0  0  0  0
111115  1  0  0  0  0
115116  1  0  0  0  0
116117  1  0  0  0  0
116118  1  0  0  0  0
116119  1  0  0  0  0
115120  2  0  0  0  0
107121  1  0  0  0  0
121122  2  0  0  0  0
122123  1  0  0  0  0
123124  1  0  0  0  0
124125  2  0  0  0  0
125126  1  0  0  0  0
126127  2  0  0  0  0
127128  1  0  0  0  0
128129  1  0  0  0  0
129130  1  0  0  0  0
127131  1  0  0  0  0
131132  2  0  0  0  0
131133  1  0  0  0  0
133134  1  0  0  0  0
133135  1  0  0  0  0
133136  1  0  0  0  0
123137  2  0  0  0  0
137138  1  0  0  0  0
122139  1  0  0  0  0
139140  2  0  0  0  0
140141  1  0  0  0  0
140142  1  0  0  0  0
142143  2  0  0  0  0
143144  1  0  0  0  0
144145  2  0  0  0  0
144146  1  0  0  0  0
146147  2  0  0  0  0
147148  1  0  0  0  0
148149  2  0  0  0  0
149150  1  0  0  0  0
150151  2  0  0  0  0
151152  1  0  0  0  0
152153  2  0  0  0  0
153154  1  0  0  0  0
154155  3  0  0  0  0
153156  1  0  0  0  0
156157  3  0  0  0  0
149158  1  0  0  0  0
158159  1  0  0  0  0
159160  1  0  0  0  0
160161  2  0  0  0  0
161162  1  0  0  0  0
162163  1  0  0  0  0
162164  1  0  0  0  0
 11  2  1  0  0  0  0
 23 17  1  0  0  0  0
 58 24  1  0  0  0  0
103 62  1  0  0  0  0
138104  1  0  0  0  0
152143  1  0  0  0  0
164158  1  0  0  0  0
 10  5  1  0  0  0  0
 22 18  1  0  0  0  0
 57 26  1  0  0  0  0
 72 65  1  0  0  0  0
 80 73  1  0  0  0  0
102 81  2  0  0  0  0
137106  1  0  0  0  0
151146  1  0  0  0  0
163159  1  0  0  0  0
 23  7  1  0  0  0  0
 40 28  1  0  0  0  0
 61 41  1  0  0  0  0
 93 86  1  0  0  0  0
101 94  1  0  0  0  0
120108  1  0  0  0  0
141121  1  0  0  0  0
164148  1  0  0  0  0
 52 44  1  0  0  0  0
132124  1  0  0  0  0
  1165  1  0  0  0  0
  6166  1  0  0  0  0
  9167  1  0  0  0  0
 17168  1  0  0  0  0
 18169  1  0  0  0  0
 19170  1  0  0  0  0
 20171  1  0  0  0  0
 21172  1  0  0  0  0
 22173  1  0  0  0  0
 22174  1  0  0  0  0
 23175  1  0  0  0  0
 25176  1  0  0  0  0
 29177  1  0  0  0  0
 30178  1  0  0  0  0
 33179  1  0  0  0  0
 33180  1  0  0  0  0
 34181  1  0  0  0  0
 34182  1  0  0  0  0
 34183  1  0  0  0  0
 40184  1  0  0  0  0
 45185  1  0  0  0  0
 46186  1  0  0  0  0
 49187  1  0  0  0  0
 49188  1  0  0  0  0
 50189  1  0  0  0  0
 50190  1  0  0  0  0
 50191  1  0  0  0  0
 52192  1  0  0  0  0
 59193  1  0  0  0  0
 66194  1  0  0  0  0
 67195  1  0  0  0  0
 70196  1  0  0  0  0
 70197  1  0  0  0  0
 70198  1  0  0  0  0
 71199  1  0  0  0  0
 72200  1  0  0  0  0
 74201  1  0  0  0  0
 75202  1  0  0  0  0
 78203  1  0  0  0  0
 78204  1  0  0  0  0
 78205  1  0  0  0  0
 79206  1  0  0  0  0
 80207  1  0  0  0  0
 87208  1  0  0  0  0
 88209  1  0  0  0  0
 91210  1  0  0  0  0
 91211  1  0  0  0  0
 91212  1  0  0  0  0
 92213  1  0  0  0  0
 93214  1  0  0  0  0
 95215  1  0  0  0  0
 96216  1  0  0  0  0
 99217  1  0  0  0  0
 99218  1  0  0  0  0
 99219  1  0  0  0  0
100220  1  0  0  0  0
101221  1  0  0  0  0
105222  1  0  0  0  0
109223  1  0  0  0  0
110224  1  0  0  0  0
113225  1  0  0  0  0
113226  1  0  0  0  0
114227  1  0  0  0  0
114228  1  0  0  0  0
114229  1  0  0  0  0
120230  1  0  0  0  0
125231  1  0  0  0  0
126232  1  0  0  0  0
129233  1  0  0  0  0
129234  1  0  0  0  0
130235  1  0  0  0  0
130236  1  0  0  0  0
130237  1  0  0  0  0
132238  1  0  0  0  0
139239  1  0  0  0  0
142240  1  0  0  0  0
147241  1  0  0  0  0
150242  1  0  0  0  0
158243  1  0  0  0  0
159244  1  0  0  0  0
160245  1  0  0  0  0
161246  1  0  0  0  0
162247  1  0  0  0  0
163248  1  0  0  0  0
163249  1  0  0  0  0
164250  1  0  0  0  0
M  END
