146

C         -2.21050       -6.06130       -3.58170
C         -3.45340       -5.91930       -4.11520
C         -4.17810       -7.08330       -4.69560
O         -3.95200       -8.25440       -4.49510
C         -5.16710       -6.49230       -5.62100
C         -5.95960       -7.16230       -6.55240
C         -6.71960       -6.33280       -7.34220
C         -6.70320       -4.93680       -7.21420
C         -5.94280       -4.26100       -6.29170
C         -5.15850       -5.08790       -5.48450
C         -4.21430       -4.72760       -4.43260
C         -4.18610       -3.53760       -3.75210
C         -3.47700       -3.34340       -2.55010
N         -2.97640       -3.14640       -1.53540
C         -4.89350       -2.38420       -4.14120
N         -5.39410       -1.39560       -4.44300
C         -7.65730       -4.73730       -8.36280
C         -7.02380       -4.28010       -9.69410
C         -8.07290       -4.62040      -10.72740
C         -8.10280       -5.94160      -10.84970
C         -7.07100       -6.51560       -9.90520
C         -6.01500       -5.40400       -9.96310
C         -7.68220       -6.29290       -8.50510
C         -1.27650       -5.02420       -3.33190
S         -0.28740       -5.07470       -1.89300
C          0.27310       -3.43910       -2.11100
C         -0.26950       -2.91040       -3.26900
S         -0.26480       -1.33720       -4.00520
C         -1.29990       -1.89200       -5.31160
C         -1.79310       -0.99000       -6.29630
C         -1.51950        0.36360       -6.43070
C         -2.25100        0.99400       -7.44580
C         -3.09220        0.12870       -8.09450
C         -4.01140        0.44250       -9.18810
O         -4.14000        1.53710       -9.67710
O         -4.68030       -0.65240       -9.57700
C         -5.64820       -0.48430      -10.61270
C         -6.99920       -0.07990      -10.03970
S         -2.98390       -1.47400       -7.47020
Cl        -0.39670        1.20300       -5.44810
C         -1.59400       -3.23080       -5.18600
C         -1.10830       -3.80840       -3.98620
Cl        -2.33450       -4.13980       -6.44020
C          1.11330       -2.84980       -1.11040
C          1.72030       -1.60570       -1.17540
F          1.65840       -0.85140       -2.28540
C          2.45450       -1.07100       -0.10810
F          2.99760        0.14370       -0.31200
C          2.65660       -1.73150        1.08820
C          2.10550       -3.04000        1.17090
N          2.24370       -3.76380        2.29290
C          1.75080       -4.97500        2.36430
C          1.96650       -5.68770        3.66490
C          3.14090       -6.66450        3.57470
C          1.07560       -5.54960        1.24960
N          0.89930       -4.82840        0.16970
C          1.37070       -3.58220        0.08720
C          0.54310       -6.94730        1.19560
C          1.35510       -7.78860        0.20770
C          3.37910       -1.11950        2.20490
C          3.14680        0.21750        2.51210
C          3.83680        0.77860        3.57290
N          3.79640        2.06350        4.05380
C          2.90380        3.09970        3.60480
C          1.56480        3.04160        4.33850
C          4.62810        2.14410        5.14160
C          5.25500        0.88710        5.35320
C          4.75060        0.01340        4.34120
C          4.97180       -1.32240        4.02010
C          4.28990       -1.87570        2.96090
C          6.16170        0.73330        6.39720
C          6.42490        1.80890        7.21180
C          5.78020        3.04780        7.02800
C          4.89000        3.22090        5.96600
C          6.09550        4.13090        7.92160
C          5.35500        5.21370        8.25600
C          6.02350        6.39470        8.87540
O          7.12760        6.42200        9.36880
C          5.07950        7.51440        8.70110
C          5.30440        8.85950        8.98690
C          4.24420        9.68090        8.68860
C          3.04370        9.20420        8.14300
C          2.80350        7.88040        7.86390
C          3.86930        7.02710        8.16320
C          3.96690        5.57580        8.03470
C          2.90460        4.71530        7.96380
C          1.56230        5.12150        7.82050
N          0.45470        5.38540        7.67170
C          3.01180        3.31370        8.09050
N          3.01320        2.17510        8.23470
C          2.43090       10.58060        8.08410
C          2.37510       11.28930        6.70800
C          3.50980       10.72650        5.88860
C          4.64520       11.17670        6.40570
C          4.29870       12.05300        7.58400
C          2.97080       12.65260        7.09420
C          3.76680       11.11160        8.69310
H         -1.91010       -7.06980       -3.31940
H         -5.94030       -8.23840       -6.62490
H         -5.92140       -3.18670       -6.21140
H         -8.58560       -4.21870       -8.13110
H         -6.64410       -3.26270       -9.68760
H         -8.70520       -3.89430      -11.20420
H         -8.76400       -6.53860      -11.45000
H         -6.74060       -7.53200      -10.10180
H         -5.23460       -5.48990       -9.20940
H         -5.55970       -5.32050      -10.94870
H         -8.62690       -6.81420       -8.36320
H         -2.17160        2.03680       -7.69060
H         -5.28930        0.27790      -11.31190
H         -5.70160       -1.45290      -11.11530
H         -7.32510       -0.80030       -9.29270
H         -6.92530        0.89910       -9.57270
H         -7.73520       -0.03500      -10.83730
H          2.18920       -4.93080        4.41780
H          1.06070       -6.21970        3.95960
H          2.94900       -7.44510        2.84320
H          3.30800       -7.13200        4.54170
H          4.04570       -6.13500        3.28650
H         -0.48830       -6.89950        0.84140
H          0.55720       -7.40910        2.18120
H          2.39770       -7.84770        0.51360
H          1.30880       -7.34050       -0.78090
H          0.95120       -8.79610        0.15690
H          2.42680        0.79090        1.95050
H          3.38510        4.06720        3.77190
H          2.75070        2.98190        2.52900
H          1.71570        3.12270        5.41280
H          0.92060        3.85420        4.01440
H          1.06560        2.09690        4.13780
H          5.66940       -1.91240        4.59450
H          4.45530       -2.90550        2.69120
H          6.64940       -0.21530        6.56070
H          7.11570        1.70640        8.03500
H          4.44610        4.18800        5.78340
H          7.09370        4.11680        8.34950
H          6.24230        9.18740        9.40680
H          1.87890        7.52490        7.43920
H          1.51750       10.71870        8.65900
H          1.39530       11.28560        6.23810
H          3.37700       10.03540        5.07680
H          5.65050       10.93650        6.11280
H          5.07040       12.74500        7.91060
H          2.41140       13.16480        7.87580
H          3.09760       13.31430        6.23870
H          3.72550       11.59810        9.66560
