218

C          1.62560        1.34650       -7.22620
C          0.75250        2.02900       -7.99660
C          1.03340        2.21830       -9.45210
O          2.09210        2.04310      -10.00750
C         -0.25920        2.59850      -10.04810
C         -0.54590        2.76310      -11.40190
C         -1.85300        3.09730      -11.66200
C         -2.81360        3.25260      -10.65180
C         -2.54560        3.10140       -9.31280
C         -1.21930        2.76680       -9.02580
C         -0.57130        2.56930       -7.73520
C         -1.04440        3.01310       -6.53000
C         -2.32550        3.56480       -6.32300
N         -3.35750        3.99720       -6.06510
C         -0.29360        3.04000       -5.33600
N          0.26800        3.13820       -4.33920
C         -3.91230        3.56730      -11.63480
C         -4.93160        2.44740      -11.96040
C         -4.21990        1.13750      -11.72800
C         -3.31190        0.99470      -12.68410
C         -3.39250        2.20590      -13.58040
C         -4.89780        2.50530      -13.49610
C         -2.84240        3.39870      -12.75950
C          1.39940        0.80460       -5.91110
C          0.19770        0.23590       -5.52230
F         -0.79870        0.09000       -6.41550
C         -0.02020       -0.24720       -4.23250
F         -1.20130       -0.83940       -3.98000
C          0.93980       -0.15610       -3.23910
C          2.16560        0.47630       -3.59240
N          3.07640        0.70540       -2.63650
C          4.22900        1.24100       -2.96110
C          5.18650        1.38080       -1.85710
C          6.47880        0.87780       -1.94190
C          7.33220        0.92130       -0.85450
C          6.92670        1.48640        0.35270
O          7.66590        1.57960        1.47150
C          8.95330        0.98970        1.50530
C          9.46140        1.09200        2.93330
C          5.62400        2.00600        0.41000
C          4.75960        1.94220       -0.65540
F          5.20170        2.56480        1.56140
C          4.52070        1.57430       -4.31970
N          3.62150        1.38420       -5.25990
C          2.42540        0.87030       -4.92820
C          5.79500        2.17100       -4.72910
C          6.41100        3.16420       -3.97460
C          7.60750        3.72820       -4.37560
C          8.24190        3.31440       -5.54520
O          9.40670        3.78140       -6.03970
C         10.16470        4.72170       -5.30300
C         10.92130        4.08140       -4.14350
C          7.59370        2.32730       -6.30440
F          8.17220        1.90690       -7.44640
C          6.39570        1.77340       -5.92320
C          0.71440       -0.64720       -1.90520
C          1.58970       -1.33530       -1.07330
N          2.80920       -1.86300       -1.44860
C          3.02690       -2.19290       -2.79490
C          2.01720       -2.80480       -3.53950
C          2.15010       -2.95710       -4.90100
C          3.29970       -2.51210       -5.54960
S          3.32790       -2.60600       -7.31200
C          4.49580       -1.28210       -7.74610
C          4.35680       -2.01830       -4.79580
C          4.22210       -1.86490       -3.43020
C          3.85570       -1.92690       -0.52310
C          3.98410       -0.96610        0.47960
C          5.00980       -1.04820        1.39500
C          5.93820       -2.08160        1.31960
S          7.24060       -2.08660        2.51420
C          7.77590       -3.82340        2.53670
C          5.82600       -3.03190        0.31310
C          4.78740       -2.96020       -0.59240
C          0.99730       -1.55080        0.19690
S          1.48570       -2.37920        1.62180
C         -0.06900       -2.05290        2.40360
C         -0.93140       -1.34430        1.55790
N         -2.23810       -0.94560        1.74770
C         -2.64640        0.18650        1.00510
C         -3.78650        0.14770        0.20840
C         -4.12670        1.22970       -0.57930
C         -3.33200        2.37050       -0.58160
S         -3.64900        3.76970       -1.60770
C         -4.54710        3.04310       -3.00810
C         -2.21810        2.43130        0.25310
C         -1.87270        1.34940        1.03140
C         -3.17640       -1.61150        2.53470
C         -4.28130       -0.91730        3.03780
C         -5.16060       -1.53430        3.89750
C         -4.94320       -2.84730        4.30560
S         -6.00810       -3.51250        5.54510
C         -4.91570       -4.70240        6.37540
C         -3.90820       -3.57350        3.73150
C         -3.04850       -2.96550        2.84060
C         -0.29540       -1.07180        0.31500
S         -0.84340       -0.36440       -1.16480
C         -0.25630       -2.58080        3.72480
C          0.42890       -3.72150        4.15190
F          1.33180       -4.32280        3.35240
C          0.22320       -4.33430        5.38320
F          1.00840       -5.38470        5.68110
C         -0.72460       -3.88710        6.29540
C         -1.40810       -2.69310        5.91680
N         -2.41400       -2.26350        6.67830
C         -2.98150       -1.09980        6.45120
C         -4.23380       -0.84350        7.14900
C         -5.17760        0.07370        6.69290
C         -6.39450        0.22340        7.32930
C         -6.71810       -0.53610        8.45190
O         -7.86640       -0.47190        9.14800
C         -8.87880        0.42870        8.73800
C        -10.04590        0.26960        9.69860
C         -5.75620       -1.45740        8.89910
C         -4.54810       -1.61790        8.27150
F         -6.04060       -2.20970        9.97920
C         -2.35830       -0.22380        5.49900
N         -1.54520       -0.73350        4.60020
C         -1.11470       -1.99620        4.71090
C         -2.54940        1.22270        5.50160
C         -2.49320        1.93720        4.31140
C         -2.66910        3.30670        4.27780
C         -2.88920        4.02350        5.45170
O         -3.06010        5.35660        5.56180
C         -3.06740        6.16850        4.40180
C         -4.39290        6.10660        3.64950
C         -2.91770        3.28920        6.65020
F         -3.11250        3.95520        7.80610
C         -2.75530        1.92600        6.69160
C         -0.97760       -4.44400        7.58320
C         -0.76930       -5.68430        8.10370
C         -0.74490       -5.80870        9.59800
O         -1.08970       -4.96790       10.39290
C         -0.17470       -7.13810        9.84720
C          0.00650       -7.82290        8.60080
C          0.53450       -9.06650        8.74170
S          0.83190       -9.43190       10.40400
C          0.22070       -7.87690       10.92070
Cl         0.17000       -7.45200       12.56020
C         -0.47650       -6.97800        7.52450
C         -0.78850       -7.43280        6.26870
C         -0.50050       -8.75180        5.86530
N         -0.26900       -9.82190        5.52210
C         -1.48560       -6.67510        5.31580
N         -2.08680       -6.08630        4.53410
H          2.60920        1.18120       -7.64940
H          0.21990        2.63310      -12.15030
H         -3.29180        3.21480       -8.54360
H         -4.38650        4.54030      -11.52260
H         -5.89740        2.56220      -11.47580
H         -4.40460        0.49650      -10.88600
H         -2.58720        0.21040      -12.80020
H         -2.95760        2.10060      -14.57070
H         -5.50730        1.73140      -13.95990
H         -5.17000        3.47950      -13.89980
H         -2.61670        4.26260      -13.38150
H          6.82200        0.42750       -2.86140
H          8.32190        0.50520       -0.95020
H          8.88860       -0.06330        1.20520
H          9.62390        1.52080        0.81520
H          9.47300        2.13080        3.25090
H         10.46600        0.68490        2.99780
H          8.80500        0.53120        3.59230
H          3.75920        2.33330       -0.56290
H          5.94170        3.52310       -3.07210
H          8.04070        4.50390       -3.76530
H          9.52710        5.54220       -4.95270
H         10.87310        5.12220       -6.03270
H         11.56450        3.28910       -4.51810
H         10.23480        3.65340       -3.41670
H         11.53500        4.83030       -3.65110
H          5.93520        1.02800       -6.54990
H          1.11330       -3.13100       -3.04760
H          1.35740       -3.40320       -5.48140
H          4.29090       -1.02580       -8.78080
H          5.52090       -1.62990       -7.65030
H          4.30340       -0.42780       -7.10320
H          5.28420       -1.73270       -5.26700
H          5.03430       -1.45110       -2.85130
H          3.28160       -0.14990        0.52880
H          5.10430       -0.31050        2.17670
H          6.90390       -4.46580        2.60840
H          8.36340       -4.05390        1.65240
H          8.39260       -3.93200        3.42340
H          6.53750       -3.83810        0.22990
H          4.69430       -3.71260       -1.36140
H         -4.39390       -0.74480        0.19110
H         -5.00550        1.17010       -1.20090
H         -4.08130        2.09940       -3.27470
H         -5.59610        2.90970       -2.75990
H         -4.44610        3.74630       -3.82980
H         -1.61230        3.32400        0.25580
H         -0.97660        1.38080        1.63410
H         -4.43060        0.11980        2.77930
H         -6.00860       -0.99720        4.29180
H         -4.80020       -5.59940        5.77410
H         -3.95600       -4.22780        6.55840
H         -5.40120       -4.94550        7.31520
H         -3.75230       -4.61070        3.97400
H         -2.26550       -3.55350        2.38900
H         -4.97250        0.66640        5.81610
H         -7.10100        0.93820        6.93910
H         -8.49760        1.45860        8.76640
H         -9.19340        0.19490        7.71180
H         -9.72290        0.48840       10.71250
H        -10.41460       -0.75170        9.66670
H        -10.84720        0.94910        9.42330
H         -3.84220       -2.34060        8.64690
H         -2.32560        1.39810        3.39660
H         -2.62830        3.80820        3.32420
H         -2.90590        7.17960        4.78470
H         -2.22960        5.90800        3.74470
H         -5.20660        6.38070        4.31610
H         -4.36980        6.80260        2.81580
H         -4.58230        5.10700        3.26580
H         -2.77660        1.42390        7.64570
H         -1.35520       -3.72170        8.30170
H          0.78110       -9.79080        7.99120
