
  xtb     02152215583D
 energy: -399.269428210079 gnorm: 0.000774383740 xtb: 6.4.1 (unknown)
234258  0     0  0            999 V2000
    7.8843   -2.5162    3.3816 C   0  0  0  0  0  0  0  0  0  0  0  0
    8.4924   -3.3392    2.4651 C   0  0  0  0  0  0  0  0  0  0  0  0
    7.8047   -4.2529    1.5558 C   0  0  0  0  0  0  0  0  0  0  0  0
    6.6251   -4.5777    1.5837 O   0  0  0  0  0  0  0  0  0  0  0  0
    8.8027   -4.7128    0.5823 C   0  0  0  0  0  0  0  0  0  0  0  0
    8.5870   -5.5493   -0.5114 C   0  0  0  0  0  0  0  0  0  0  0  0
    9.7153   -5.7913   -1.2576 C   0  0  0  0  0  0  0  0  0  0  0  0
   10.9635   -5.2388   -0.9414 C   0  0  0  0  0  0  0  0  0  0  0  0
   11.1884   -4.4129    0.1351 C   0  0  0  0  0  0  0  0  0  0  0  0
   10.0551   -4.1557    0.9115 C   0  0  0  0  0  0  0  0  0  0  0  0
    9.8971   -3.3257    2.1053 C   0  0  0  0  0  0  0  0  0  0  0  0
   10.9117   -2.6599    2.7399 C   0  0  0  0  0  0  0  0  0  0  0  0
   10.7952   -1.8702    3.9019 C   0  0  0  0  0  0  0  0  0  0  0  0
   10.8233   -1.2113    4.8427 N   0  0  0  0  0  0  0  0  0  0  0  0
   12.2604   -2.6708    2.3254 C   0  0  0  0  0  0  0  0  0  0  0  0
   13.3761   -2.6224    2.0579 N   0  0  0  0  0  0  0  0  0  0  0  0
   11.6424   -5.8978   -2.1162 C   0  0  0  0  0  0  0  0  0  0  0  0
   12.5022   -7.1417   -1.8081 C   0  0  0  0  0  0  0  0  0  0  0  0
   12.6299   -7.8335   -3.1461 C   0  0  0  0  0  0  0  0  0  0  0  0
   11.4482   -8.3590   -3.4430 C   0  0  0  0  0  0  0  0  0  0  0  0
   10.5017   -8.0312   -2.3107 C   0  0  0  0  0  0  0  0  0  0  0  0
   11.4811   -8.0645   -1.1303 C   0  0  0  0  0  0  0  0  0  0  0  0
   10.2508   -6.5162   -2.4669 C   0  0  0  0  0  0  0  0  0  0  0  0
    6.5213   -2.3024    3.6142 C   0  0  0  0  0  0  0  0  0  0  0  0
    5.2010   -3.1932    2.8730 S   0  0  0  0  0  0  0  0  0  0  0  0
    4.0177   -2.0379    3.4041 C   0  0  0  0  0  0  0  0  0  0  0  0
    4.6103   -1.0693    4.1819 C   0  0  0  0  0  0  0  0  0  0  0  0
    3.9701    0.3272    4.9800 S   0  0  0  0  0  0  0  0  0  0  0  0
    5.5793    0.7580    5.5217 C   0  0  0  0  0  0  0  0  0  0  0  0
    5.7396    1.9808    6.2574 C   0  0  0  0  0  0  0  0  0  0  0  0
    6.4559    2.2395    7.4075 C   0  0  0  0  0  0  0  0  0  0  0  0
    6.3662    3.5759    7.8344 C   0  0  0  0  0  0  0  0  0  0  0  0
    5.5731    4.3334    7.0154 C   0  0  0  0  0  0  0  0  0  0  0  0
    5.2464    5.7544    7.1631 C   0  0  0  0  0  0  0  0  0  0  0  0
    5.6628    6.4576    8.0491 O   0  0  0  0  0  0  0  0  0  0  0  0
    4.4156    6.1506    6.1924 O   0  0  0  0  0  0  0  0  0  0  0  0
    4.0156    7.5219    6.1978 C   0  0  0  0  0  0  0  0  0  0  0  0
    5.0607    8.4079    5.5361 C   0  0  0  0  0  0  0  0  0  0  0  0
    4.9249    3.4139    5.7068 S   0  0  0  0  0  0  0  0  0  0  0  0
    7.2929    1.0418    8.3013 Cl  0  0  0  0  0  0  0  0  0  0  0  0
    6.5361   -0.1339    5.1035 C   0  0  0  0  0  0  0  0  0  0  0  0
    6.0071   -1.2095    4.3392 C   0  0  0  0  0  0  0  0  0  0  0  0
    8.2049    0.1135    5.4220 Cl  0  0  0  0  0  0  0  0  0  0  0  0
    2.7148   -1.9611    2.8215 C   0  0  0  0  0  0  0  0  0  0  0  0
    2.2435   -0.8704    2.1091 C   0  0  0  0  0  0  0  0  0  0  0  0
    2.9178    0.3240    1.8983 N   0  0  0  0  0  0  0  0  0  0  0  0
    2.1568    1.5003    1.8631 C   0  0  0  0  0  0  0  0  0  0  0  0
    2.4278    2.5088    0.9392 C   0  0  0  0  0  0  0  0  0  0  0  0
    1.6054    3.6108    0.8591 C   0  0  0  0  0  0  0  0  0  0  0  0
    0.4979    3.7283    1.6956 C   0  0  0  0  0  0  0  0  0  0  0  0
   -0.5274    5.1495    1.4810 S   0  0  0  0  0  0  0  0  0  0  0  0
   -2.0858    4.6537    2.2752 C   0  0  0  0  0  0  0  0  0  0  0  0
    0.2549    2.7522    2.6518 C   0  0  0  0  0  0  0  0  0  0  0  0
    1.0806    1.6497    2.7342 C   0  0  0  0  0  0  0  0  0  0  0  0
    4.2942    0.3316    1.6442 C   0  0  0  0  0  0  0  0  0  0  0  0
    5.1141    1.3379    2.1504 C   0  0  0  0  0  0  0  0  0  0  0  0
    6.4863    1.2709    1.9990 C   0  0  0  0  0  0  0  0  0  0  0  0
    7.0637    0.2015    1.3271 C   0  0  0  0  0  0  0  0  0  0  0  0
    8.8021   -0.0473    1.1389 S   0  0  0  0  0  0  0  0  0  0  0  0
    9.5531    1.2843    2.1140 C   0  0  0  0  0  0  0  0  0  0  0  0
    6.2421   -0.7665    0.7542 C   0  0  0  0  0  0  0  0  0  0  0  0
    4.8763   -0.7006    0.9073 C   0  0  0  0  0  0  0  0  0  0  0  0
    0.9844   -1.1634    1.5368 C   0  0  0  0  0  0  0  0  0  0  0  0
   -0.0600   -0.2621    0.5164 S   0  0  0  0  0  0  0  0  0  0  0  0
   -1.1557   -1.6438    0.3951 C   0  0  0  0  0  0  0  0  0  0  0  0
   -0.7574   -2.7168    1.1821 C   0  0  0  0  0  0  0  0  0  0  0  0
   -1.4952   -3.8513    1.4261 N   0  0  0  0  0  0  0  0  0  0  0  0
   -2.8946   -3.8885    1.2832 C   0  0  0  0  0  0  0  0  0  0  0  0
   -3.4931   -5.0796    0.8683 C   0  0  0  0  0  0  0  0  0  0  0  0
   -4.8609   -5.1763    0.7692 C   0  0  0  0  0  0  0  0  0  0  0  0
   -5.6721   -4.0759    1.0522 C   0  0  0  0  0  0  0  0  0  0  0  0
   -7.4066   -4.3096    0.8400 S   0  0  0  0  0  0  0  0  0  0  0  0
   -8.1182   -2.6624    1.1005 C   0  0  0  0  0  0  0  0  0  0  0  0
   -5.0821   -2.8902    1.4689 C   0  0  0  0  0  0  0  0  0  0  0  0
   -3.7072   -2.8047    1.5994 C   0  0  0  0  0  0  0  0  0  0  0  0
   -0.8963   -4.9753    2.0346 C   0  0  0  0  0  0  0  0  0  0  0  0
    0.2931   -5.5120    1.5482 C   0  0  0  0  0  0  0  0  0  0  0  0
    0.8514   -6.6243    2.1395 C   0  0  0  0  0  0  0  0  0  0  0  0
    0.2357   -7.2258    3.2338 C   0  0  0  0  0  0  0  0  0  0  0  0
    1.0388   -8.6445    3.9046 S   0  0  0  0  0  0  0  0  0  0  0  0
   -0.0518   -9.1708    5.2578 C   0  0  0  0  0  0  0  0  0  0  0  0
   -0.9490   -6.6915    3.7262 C   0  0  0  0  0  0  0  0  0  0  0  0
   -1.5062   -5.5770    3.1318 C   0  0  0  0  0  0  0  0  0  0  0  0
    0.5019   -2.4369    1.7907 C   0  0  0  0  0  0  0  0  0  0  0  0
    1.6282   -3.3354    2.7592 S   0  0  0  0  0  0  0  0  0  0  0  0
   -2.2816   -1.3987   -0.4561 C   0  0  0  0  0  0  0  0  0  0  0  0
   -2.8147   -2.0936   -1.5344 C   0  0  0  0  0  0  0  0  0  0  0  0
   -2.4435   -3.3465   -1.9858 N   0  0  0  0  0  0  0  0  0  0  0  0
   -3.4231   -4.1272   -2.6307 C   0  0  0  0  0  0  0  0  0  0  0  0
   -4.7332   -4.1276   -2.1630 C   0  0  0  0  0  0  0  0  0  0  0  0
   -5.7096   -4.8893   -2.7728 C   0  0  0  0  0  0  0  0  0  0  0  0
   -5.3892   -5.6682   -3.8749 C   0  0  0  0  0  0  0  0  0  0  0  0
   -6.5427   -6.6940   -4.7267 S   0  0  0  0  0  0  0  0  0  0  0  0
   -8.1065   -6.4030   -3.8523 C   0  0  0  0  0  0  0  0  0  0  0  0
   -4.0821   -5.6570   -4.3618 C   0  0  0  0  0  0  0  0  0  0  0  0
   -3.1110   -4.8941   -3.7534 C   0  0  0  0  0  0  0  0  0  0  0  0
   -1.1300   -3.8170   -1.8859 C   0  0  0  0  0  0  0  0  0  0  0  0
   -0.0432   -2.9457   -1.9255 C   0  0  0  0  0  0  0  0  0  0  0  0
    1.2479   -3.4172   -1.7791 C   0  0  0  0  0  0  0  0  0  0  0  0
    1.4813   -4.7764   -1.6238 C   0  0  0  0  0  0  0  0  0  0  0  0
    3.0928   -5.4608   -1.3570 S   0  0  0  0  0  0  0  0  0  0  0  0
    3.9325   -4.1188   -0.4653 C   0  0  0  0  0  0  0  0  0  0  0  0
    0.4030   -5.6596   -1.6576 C   0  0  0  0  0  0  0  0  0  0  0  0
   -0.8849   -5.1867   -1.7652 C   0  0  0  0  0  0  0  0  0  0  0  0
   -3.8111   -1.3172   -2.1828 C   0  0  0  0  0  0  0  0  0  0  0  0
   -4.7800   -1.5208   -3.5964 S   0  0  0  0  0  0  0  0  0  0  0  0
   -5.5053    0.0642   -3.3791 C   0  0  0  0  0  0  0  0  0  0  0  0
   -5.0048    0.7114   -2.2551 C   0  0  0  0  0  0  0  0  0  0  0  0
   -5.2999    2.0390   -1.8686 N   0  0  0  0  0  0  0  0  0  0  0  0
   -6.0161    2.2570   -0.6876 C   0  0  0  0  0  0  0  0  0  0  0  0
   -6.5042    3.5402   -0.4252 C   0  0  0  0  0  0  0  0  0  0  0  0
   -7.2553    3.7932    0.7016 C   0  0  0  0  0  0  0  0  0  0  0  0
   -7.5576    2.7637    1.5861 C   0  0  0  0  0  0  0  0  0  0  0  0
   -8.5322    3.0133    3.0380 S   0  0  0  0  0  0  0  0  0  0  0  0
   -9.7463    4.2338    2.4548 C   0  0  0  0  0  0  0  0  0  0  0  0
   -7.0693    1.4878    1.3367 C   0  0  0  0  0  0  0  0  0  0  0  0
   -6.3076    1.2334    0.2156 C   0  0  0  0  0  0  0  0  0  0  0  0
   -4.2843    2.9583   -2.2350 C   0  0  0  0  0  0  0  0  0  0  0  0
   -3.5729    3.6791   -1.2764 C   0  0  0  0  0  0  0  0  0  0  0  0
   -2.5717    4.5427   -1.6579 C   0  0  0  0  0  0  0  0  0  0  0  0
   -2.2513    4.7014   -3.0057 C   0  0  0  0  0  0  0  0  0  0  0  0
   -0.9450    5.8296   -3.3674 S   0  0  0  0  0  0  0  0  0  0  0  0
   -0.8086    5.7790   -5.1776 C   0  0  0  0  0  0  0  0  0  0  0  0
   -2.9505    3.9787   -3.9623 C   0  0  0  0  0  0  0  0  0  0  0  0
   -3.9558    3.1114   -3.5766 C   0  0  0  0  0  0  0  0  0  0  0  0
   -4.0272   -0.0680   -1.6170 C   0  0  0  0  0  0  0  0  0  0  0  0
   -2.9879    0.2102   -0.2721 S   0  0  0  0  0  0  0  0  0  0  0  0
   -6.3038    0.5863   -4.4267 C   0  0  0  0  0  0  0  0  0  0  0  0
   -7.1929    1.6135   -4.3824 C   0  0  0  0  0  0  0  0  0  0  0  0
   -7.4829    2.4040   -5.6113 C   0  0  0  0  0  0  0  0  0  0  0  0
   -7.1962    2.1066   -6.7487 O   0  0  0  0  0  0  0  0  0  0  0  0
   -8.1196    3.6447   -5.1282 C   0  0  0  0  0  0  0  0  0  0  0  0
   -8.4510    4.7721   -5.8773 C   0  0  0  0  0  0  0  0  0  0  0  0
   -9.0113    5.7883   -5.1411 C   0  0  0  0  0  0  0  0  0  0  0  0
   -9.2190    5.7014   -3.7574 C   0  0  0  0  0  0  0  0  0  0  0  0
   -8.9017    4.5950   -3.0056 C   0  0  0  0  0  0  0  0  0  0  0  0
   -8.3432    3.5452   -3.7387 C   0  0  0  0  0  0  0  0  0  0  0  0
   -7.9112    2.2256   -3.2931 C   0  0  0  0  0  0  0  0  0  0  0  0
   -8.3593    1.5736   -2.1713 C   0  0  0  0  0  0  0  0  0  0  0  0
   -8.0647    0.2227   -1.9099 C   0  0  0  0  0  0  0  0  0  0  0  0
   -7.8717   -0.8883   -1.6906 N   0  0  0  0  0  0  0  0  0  0  0  0
   -9.2435    2.1424   -1.2384 C   0  0  0  0  0  0  0  0  0  0  0  0
   -9.9818    2.5638   -0.4658 N   0  0  0  0  0  0  0  0  0  0  0  0
   -9.8117    7.0865   -3.6792 C   0  0  0  0  0  0  0  0  0  0  0  0
  -11.3476    7.1706   -3.5527 C   0  0  0  0  0  0  0  0  0  0  0  0
  -11.6692    8.5847   -3.9796 C   0  0  0  0  0  0  0  0  0  0  0  0
  -11.4776    8.6638   -5.2902 C   0  0  0  0  0  0  0  0  0  0  0  0
  -11.0226    7.3047   -5.7710 C   0  0  0  0  0  0  0  0  0  0  0  0
  -11.8041    6.4073   -4.8027 C   0  0  0  0  0  0  0  0  0  0  0  0
   -9.5853    7.1810   -5.2222 C   0  0  0  0  0  0  0  0  0  0  0  0
    8.5302   -1.8501    3.9378 H   0  0  0  0  0  0  0  0  0  0  0  0
    7.6069   -5.9476   -0.7234 H   0  0  0  0  0  0  0  0  0  0  0  0
   12.1543   -3.9919    0.3567 H   0  0  0  0  0  0  0  0  0  0  0  0
   12.1090   -5.2241   -2.8323 H   0  0  0  0  0  0  0  0  0  0  0  0
   13.4252   -6.9354   -1.2732 H   0  0  0  0  0  0  0  0  0  0  0  0
   13.5218   -7.8220   -3.7447 H   0  0  0  0  0  0  0  0  0  0  0  0
   11.1558   -8.8743   -4.3392 H   0  0  0  0  0  0  0  0  0  0  0  0
    9.6023   -8.6362   -2.2337 H   0  0  0  0  0  0  0  0  0  0  0  0
   11.0719   -7.6685   -0.2027 H   0  0  0  0  0  0  0  0  0  0  0  0
   11.8807   -9.0620   -0.9556 H   0  0  0  0  0  0  0  0  0  0  0  0
    9.7897   -6.2574   -3.4182 H   0  0  0  0  0  0  0  0  0  0  0  0
    6.8514    3.9659    8.7100 H   0  0  0  0  0  0  0  0  0  0  0  0
    3.0741    7.5410    5.6457 H   0  0  0  0  0  0  0  0  0  0  0  0
    3.8517    7.8374    7.2334 H   0  0  0  0  0  0  0  0  0  0  0  0
    4.6983    9.4310    5.4992 H   0  0  0  0  0  0  0  0  0  0  0  0
    5.9854    8.3827    6.1076 H   0  0  0  0  0  0  0  0  0  0  0  0
    5.2588    8.0635    4.5239 H   0  0  0  0  0  0  0  0  0  0  0  0
    3.2690    2.4084    0.2700 H   0  0  0  0  0  0  0  0  0  0  0  0
    1.7963    4.3830    0.1298 H   0  0  0  0  0  0  0  0  0  0  0  0
   -2.3613    3.6596    1.9358 H   0  0  0  0  0  0  0  0  0  0  0  0
   -1.9883    4.6875    3.3565 H   0  0  0  0  0  0  0  0  0  0  0  0
   -2.8278    5.3780    1.9534 H   0  0  0  0  0  0  0  0  0  0  0  0
   -0.5709    2.8386    3.3392 H   0  0  0  0  0  0  0  0  0  0  0  0
    0.8916    0.8919    3.4804 H   0  0  0  0  0  0  0  0  0  0  0  0
    4.6746    2.1640    2.6899 H   0  0  0  0  0  0  0  0  0  0  0  0
    7.0939    2.0515    2.4271 H   0  0  0  0  0  0  0  0  0  0  0  0
    9.2194    1.2185    3.1451 H   0  0  0  0  0  0  0  0  0  0  0  0
   10.6244    1.1145    2.0637 H   0  0  0  0  0  0  0  0  0  0  0  0
    9.3117    2.2486    1.6765 H   0  0  0  0  0  0  0  0  0  0  0  0
    6.6892   -1.5779    0.1998 H   0  0  0  0  0  0  0  0  0  0  0  0
    4.2492   -1.4612    0.4693 H   0  0  0  0  0  0  0  0  0  0  0  0
   -2.8715   -5.9303    0.6341 H   0  0  0  0  0  0  0  0  0  0  0  0
   -5.3214   -6.0987    0.4517 H   0  0  0  0  0  0  0  0  0  0  0  0
   -9.1895   -2.7878    0.9764 H   0  0  0  0  0  0  0  0  0  0  0  0
   -7.7459   -1.9739    0.3466 H   0  0  0  0  0  0  0  0  0  0  0  0
   -7.9058   -2.3176    2.1083 H   0  0  0  0  0  0  0  0  0  0  0  0
   -5.6800   -2.0260    1.7112 H   0  0  0  0  0  0  0  0  0  0  0  0
   -3.2720   -1.8915    1.9757 H   0  0  0  0  0  0  0  0  0  0  0  0
    0.7651   -5.0648    0.6913 H   0  0  0  0  0  0  0  0  0  0  0  0
    1.7706   -7.0374    1.7545 H   0  0  0  0  0  0  0  0  0  0  0  0
    0.4116  -10.0589    5.6758 H   0  0  0  0  0  0  0  0  0  0  0  0
   -1.0353   -9.4174    4.8686 H   0  0  0  0  0  0  0  0  0  0  0  0
   -0.1079   -8.3944    6.0152 H   0  0  0  0  0  0  0  0  0  0  0  0
   -1.4475   -7.1281    4.5763 H   0  0  0  0  0  0  0  0  0  0  0  0
   -2.4264   -5.1683    3.5228 H   0  0  0  0  0  0  0  0  0  0  0  0
   -4.9949   -3.5238   -1.3099 H   0  0  0  0  0  0  0  0  0  0  0  0
   -6.7076   -4.8617   -2.3685 H   0  0  0  0  0  0  0  0  0  0  0  0
   -8.3792   -5.3540   -3.9212 H   0  0  0  0  0  0  0  0  0  0  0  0
   -8.8450   -7.0115   -4.3651 H   0  0  0  0  0  0  0  0  0  0  0  0
   -8.0201   -6.7213   -2.8175 H   0  0  0  0  0  0  0  0  0  0  0  0
   -3.8412   -6.2508   -5.2300 H   0  0  0  0  0  0  0  0  0  0  0  0
   -2.1060   -4.8860   -4.1476 H   0  0  0  0  0  0  0  0  0  0  0  0
   -0.2023   -1.8909   -2.0899 H   0  0  0  0  0  0  0  0  0  0  0  0
    2.0672   -2.7154   -1.8006 H   0  0  0  0  0  0  0  0  0  0  0  0
    3.2406   -3.6921    0.2547 H   0  0  0  0  0  0  0  0  0  0  0  0
    4.2915   -3.3680   -1.1644 H   0  0  0  0  0  0  0  0  0  0  0  0
    4.7703   -4.5665    0.0613 H   0  0  0  0  0  0  0  0  0  0  0  0
    0.5884   -6.7177   -1.5569 H   0  0  0  0  0  0  0  0  0  0  0  0
   -1.7136   -5.8774   -1.7464 H   0  0  0  0  0  0  0  0  0  0  0  0
   -6.2853    4.3382   -1.1202 H   0  0  0  0  0  0  0  0  0  0  0  0
   -7.6147    4.7940    0.8831 H   0  0  0  0  0  0  0  0  0  0  0  0
  -10.0804    3.9359    1.4654 H   0  0  0  0  0  0  0  0  0  0  0  0
   -9.3136    5.2303    2.4483 H   0  0  0  0  0  0  0  0  0  0  0  0
  -10.5710    4.1970    3.1592 H   0  0  0  0  0  0  0  0  0  0  0  0
   -7.2994    0.6931    2.0294 H   0  0  0  0  0  0  0  0  0  0  0  0
   -5.9472    0.2326    0.0377 H   0  0  0  0  0  0  0  0  0  0  0  0
   -3.8061    3.5476   -0.2304 H   0  0  0  0  0  0  0  0  0  0  0  0
   -2.0103    5.0931   -0.9188 H   0  0  0  0  0  0  0  0  0  0  0  0
   -0.0110    6.4712   -5.4289 H   0  0  0  0  0  0  0  0  0  0  0  0
   -0.5430    4.7775   -5.5032 H   0  0  0  0  0  0  0  0  0  0  0  0
   -1.7387    6.1092   -5.6308 H   0  0  0  0  0  0  0  0  0  0  0  0
   -2.7266    4.0751   -5.0122 H   0  0  0  0  0  0  0  0  0  0  0  0
   -4.4893    2.5497   -4.3284 H   0  0  0  0  0  0  0  0  0  0  0  0
   -6.0853    0.1984   -5.4172 H   0  0  0  0  0  0  0  0  0  0  0  0
   -8.2687    4.8063   -6.9400 H   0  0  0  0  0  0  0  0  0  0  0  0
   -9.0512    4.5349   -1.9398 H   0  0  0  0  0  0  0  0  0  0  0  0
   -9.2913    7.7911   -3.0329 H   0  0  0  0  0  0  0  0  0  0  0  0
  -11.7439    6.8454   -2.5946 H   0  0  0  0  0  0  0  0  0  0  0  0
  -11.9412    9.3700   -3.2991 H   0  0  0  0  0  0  0  0  0  0  0  0
  -11.5575    9.5282   -5.9229 H   0  0  0  0  0  0  0  0  0  0  0  0
  -11.1233    7.1028   -6.8339 H   0  0  0  0  0  0  0  0  0  0  0  0
  -12.8797    6.4755   -4.9562 H   0  0  0  0  0  0  0  0  0  0  0  0
  -11.4996    5.3625   -4.8206 H   0  0  0  0  0  0  0  0  0  0  0  0
   -8.9163    7.9497   -5.6049 H   0  0  0  0  0  0  0  0  0  0  0  0
  1  2  2  0  0  0  0
  2  3  1  0  0  0  0
  3  4  2  0  0  0  0
  3  5  1  0  0  0  0
  5  6  2  0  0  0  0
  6  7  1  0  0  0  0
  7  8  2  0  0  0  0
  8  9  1  0  0  0  0
  9 10  2  0  0  0  0
 10 11  1  0  0  0  0
 11 12  2  0  0  0  0
 12 13  1  0  0  0  0
 13 14  3  0  0  0  0
 12 15  1  0  0  0  0
 15 16  3  0  0  0  0
  8 17  1  0  0  0  0
 17 18  1  0  0  0  0
 18 19  1  0  0  0  0
 19 20  2  0  0  0  0
 20 21  1  0  0  0  0
 21 22  1  0  0  0  0
 21 23  1  0  0  0  0
  1 24  1  0  0  0  0
 24 25  1  0  0  0  0
 25 26  1  0  0  0  0
 26 27  2  0  0  0  0
 27 28  1  0  0  0  0
 28 29  1  0  0  0  0
 29 30  1  0  0  0  0
 30 31  2  0  0  0  0
 31 32  1  0  0  0  0
 32 33  2  0  0  0  0
 33 34  1  0  0  0  0
 34 35  2  0  0  0  0
 34 36  1  0  0  0  0
 36 37  1  0  0  0  0
 37 38  1  0  0  0  0
 33 39  1  0  0  0  0
 31 40  1  0  0  0  0
 29 41  2  0  0  0  0
 41 42  1  0  0  0  0
 41 43  1  0  0  0  0
 26 44  1  0  0  0  0
 44 45  2  0  0  0  0
 45 46  1  0  0  0  0
 46 47  1  0  0  0  0
 47 48  2  0  0  0  0
 48 49  1  0  0  0  0
 49 50  2  0  0  0  0
 50 51  1  0  0  0  0
 51 52  1  0  0  0  0
 50 53  1  0  0  0  0
 53 54  2  0  0  0  0
 46 55  1  0  0  0  0
 55 56  2  0  0  0  0
 56 57  1  0  0  0  0
 57 58  2  0  0  0  0
 58 59  1  0  0  0  0
 59 60  1  0  0  0  0
 58 61  1  0  0  0  0
 61 62  2  0  0  0  0
 45 63  1  0  0  0  0
 63 64  1  0  0  0  0
 64 65  1  0  0  0  0
 65 66  2  0  0  0  0
 66 67  1  0  0  0  0
 67 68  1  0  0  0  0
 68 69  2  0  0  0  0
 69 70  1  0  0  0  0
 70 71  2  0  0  0  0
 71 72  1  0  0  0  0
 72 73  1  0  0  0  0
 71 74  1  0  0  0  0
 74 75  2  0  0  0  0
 67 76  1  0  0  0  0
 76 77  2  0  0  0  0
 77 78  1  0  0  0  0
 78 79  2  0  0  0  0
 79 80  1  0  0  0  0
 80 81  1  0  0  0  0
 79 82  1  0  0  0  0
 82 83  2  0  0  0  0
 66 84  1  0  0  0  0
 84 85  1  0  0  0  0
 65 86  1  0  0  0  0
 86 87  2  0  0  0  0
 87 88  1  0  0  0  0
 88 89  1  0  0  0  0
 89 90  2  0  0  0  0
 90 91  1  0  0  0  0
 91 92  2  0  0  0  0
 92 93  1  0  0  0  0
 93 94  1  0  0  0  0
 92 95  1  0  0  0  0
 95 96  2  0  0  0  0
 88 97  1  0  0  0  0
 97 98  2  0  0  0  0
 98 99  1  0  0  0  0
 99100  2  0  0  0  0
100101  1  0  0  0  0
101102  1  0  0  0  0
100103  1  0  0  0  0
103104  2  0  0  0  0
 87105  1  0  0  0  0
105106  1  0  0  0  0
106107  1  0  0  0  0
107108  2  0  0  0  0
108109  1  0  0  0  0
109110  1  0  0  0  0
110111  2  0  0  0  0
111112  1  0  0  0  0
112113  2  0  0  0  0
113114  1  0  0  0  0
114115  1  0  0  0  0
113116  1  0  0  0  0
116117  2  0  0  0  0
109118  1  0  0  0  0
118119  2  0  0  0  0
119120  1  0  0  0  0
120121  2  0  0  0  0
121122  1  0  0  0  0
122123  1  0  0  0  0
121124  1  0  0  0  0
124125  2  0  0  0  0
108126  1  0  0  0  0
126127  1  0  0  0  0
107128  1  0  0  0  0
128129  2  0  0  0  0
129130  1  0  0  0  0
130131  2  0  0  0  0
130132  1  0  0  0  0
132133  2  0  0  0  0
133134  1  0  0  0  0
134135  2  0  0  0  0
135136  1  0  0  0  0
136137  2  0  0  0  0
137138  1  0  0  0  0
138139  2  0  0  0  0
139140  1  0  0  0  0
140141  3  0  0  0  0
139142  1  0  0  0  0
142143  3  0  0  0  0
135144  1  0  0  0  0
144145  1  0  0  0  0
145146  1  0  0  0  0
146147  2  0  0  0  0
147148  1  0  0  0  0
148149  1  0  0  0  0
148150  1  0  0  0  0
 11  2  1  0  0  0  0
 23 17  1  0  0  0  0
 42 24  2  0  0  0  0
 85 44  1  0  0  0  0
127 86  1  0  0  0  0
138129  1  0  0  0  0
150144  1  0  0  0  0
 10  5  1  0  0  0  0
 22 18  1  0  0  0  0
 42 27  1  0  0  0  0
 54 47  1  0  0  0  0
 62 55  1  0  0  0  0
 84 63  2  0  0  0  0
 96 89  1  0  0  0  0
104 97  1  0  0  0  0
126105  2  0  0  0  0
137132  1  0  0  0  0
149145  1  0  0  0  0
 23  7  1  0  0  0  0
 39 30  1  0  0  0  0
 75 68  1  0  0  0  0
 83 76  1  0  0  0  0
117110  1  0  0  0  0
125118  1  0  0  0  0
150134  1  0  0  0  0
  1151  1  0  0  0  0
  6152  1  0  0  0  0
  9153  1  0  0  0  0
 17154  1  0  0  0  0
 18155  1  0  0  0  0
 19156  1  0  0  0  0
 20157  1  0  0  0  0
 21158  1  0  0  0  0
 22159  1  0  0  0  0
 22160  1  0  0  0  0
 23161  1  0  0  0  0
 32162  1  0  0  0  0
 37163  1  0  0  0  0
 37164  1  0  0  0  0
 38165  1  0  0  0  0
 38166  1  0  0  0  0
 38167  1  0  0  0  0
 48168  1  0  0  0  0
 49169  1  0  0  0  0
 52170  1  0  0  0  0
 52171  1  0  0  0  0
 52172  1  0  0  0  0
 53173  1  0  0  0  0
 54174  1  0  0  0  0
 56175  1  0  0  0  0
 57176  1  0  0  0  0
 60177  1  0  0  0  0
 60178  1  0  0  0  0
 60179  1  0  0  0  0
 61180  1  0  0  0  0
 62181  1  0  0  0  0
 69182  1  0  0  0  0
 70183  1  0  0  0  0
 73184  1  0  0  0  0
 73185  1  0  0  0  0
 73186  1  0  0  0  0
 74187  1  0  0  0  0
 75188  1  0  0  0  0
 77189  1  0  0  0  0
 78190  1  0  0  0  0
 81191  1  0  0  0  0
 81192  1  0  0  0  0
 81193  1  0  0  0  0
 82194  1  0  0  0  0
 83195  1  0  0  0  0
 90196  1  0  0  0  0
 91197  1  0  0  0  0
 94198  1  0  0  0  0
 94199  1  0  0  0  0
 94200  1  0  0  0  0
 95201  1  0  0  0  0
 96202  1  0  0  0  0
 98203  1  0  0  0  0
 99204  1  0  0  0  0
102205  1  0  0  0  0
102206  1  0  0  0  0
102207  1  0  0  0  0
103208  1  0  0  0  0
104209  1  0  0  0  0
111210  1  0  0  0  0
112211  1  0  0  0  0
115212  1  0  0  0  0
115213  1  0  0  0  0
115214  1  0  0  0  0
116215  1  0  0  0  0
117216  1  0  0  0  0
119217  1  0  0  0  0
120218  1  0  0  0  0
123219  1  0  0  0  0
123220  1  0  0  0  0
123221  1  0  0  0  0
124222  1  0  0  0  0
125223  1  0  0  0  0
128224  1  0  0  0  0
133225  1  0  0  0  0
136226  1  0  0  0  0
144227  1  0  0  0  0
145228  1  0  0  0  0
146229  1  0  0  0  0
147230  1  0  0  0  0
148231  1  0  0  0  0
149232  1  0  0  0  0
149233  1  0  0  0  0
150234  1  0  0  0  0
M  END
