286

C         -3.24250       10.37180       -0.74250
C         -4.03630       10.66700        0.31710
C         -4.63360       12.02120        0.47780
O         -4.30960       13.03050       -0.10560
C         -5.73070       11.84570        1.44980
C         -6.66060       12.80260        1.85410
C         -7.57720       12.34280        2.76880
C         -7.58580       11.02180        3.23850
C         -6.67580       10.06720        2.85320
C         -5.72240       10.52070        1.93730
C         -4.57240        9.82630        1.37010
C         -3.95390        8.73030        1.91250
C         -2.65640        8.31860        1.54030
N         -1.57570        8.00320        1.31350
C         -4.49260        7.95010        2.95440
N         -4.89960        7.26310        3.77940
C         -8.77870       11.26130        4.12950
C         -8.48640       11.42290        5.63640
C         -9.72090       12.11040        6.17320
C         -9.70810       13.36260        5.73460
C         -8.46460       13.54260        4.89380
C         -7.50620       12.60310        5.63710
C         -8.76490       12.73560        3.61240
C         -2.89910        9.07560       -1.21790
C         -1.74740        8.71220       -1.86040
C         -1.65120        7.32730       -2.12150
C         -0.53790        6.61380       -2.61730
C          0.75430        7.23980       -2.78750
C          1.35400        8.12590       -1.93070
C          2.66070        8.43670       -2.33800
S          3.94260        9.41140       -1.71290
C          4.99320        8.94680       -3.03210
Si         6.75680        9.61870       -3.07090
C          7.73440        8.78640       -1.65260
C          7.90860        7.28330       -1.84800
C          7.49430        9.21020       -4.78470
C          8.91500        9.73740       -4.95350
C          6.65400       11.50420       -2.76460
C          5.82970       12.23760       -3.81840
C          4.37570        8.09050       -3.89600
C          3.05840        7.79560       -3.50900
S          1.79830        6.78840       -4.12450
C         -0.71270        5.24840       -2.80020
C         -1.89210        4.55990       -2.42410
C         -2.97190        5.25460       -1.83830
C         -4.09280        4.57220       -1.22740
S         -3.81360        3.10390       -0.29390
C         -5.46260        3.07270        0.20870
C         -6.23270        2.24470        1.04190
C         -7.52610        2.66510        1.13810
Si        -8.91960        1.98860        2.21620
C        -10.29410        1.34760        1.04060
C        -11.67780        1.27830        1.67910
C         -8.16000        0.62550        3.31860
C         -9.17760       -0.09610        4.19450
C         -9.58740        3.45380        3.25010
C         -8.50830        4.15850        4.06810
S         -7.81470        4.10390        0.18270
C         -6.16930        4.13900       -0.33830
C         -5.39460        4.98980       -1.14370
C         -2.82830        6.63380       -1.74430
S         -3.98870        7.71030       -1.02510
C         -1.76760        3.16670       -2.59100
C         -0.52760        2.76950       -3.01310
S          0.52400        4.13300       -3.32060
C          0.00730        1.45720       -2.95890
C         -0.68740        0.27870       -2.68600
N         -2.03070        0.12050       -2.99160
C         -2.47090        0.62710       -4.22760
C         -1.66290        0.49750       -5.35790
C         -2.06280        1.02050       -6.56570
C         -3.28340        1.68400       -6.68170
S         -3.68510        2.31270       -8.28070
C         -5.26600        3.16960       -8.03240
C         -4.09820        1.80380       -5.56500
C         -3.69260        1.28320       -4.35110
C         -2.94990       -0.36780       -2.06170
C         -4.07560       -1.06120       -2.50310
C         -5.05380       -1.44840       -1.61300
C         -4.92200       -1.14080       -0.26650
S         -6.16630       -1.56560        0.91940
C         -7.69080       -1.57260       -0.06440
C         -3.77500       -0.50130        0.18970
C         -2.78990       -0.12630       -0.69810
C          0.18510       -0.70860       -2.17870
S         -0.00310       -2.27460       -1.46520
C          1.73330       -2.37820       -1.15600
C          2.41980       -1.28750       -1.68910
N          3.80190       -1.12740       -1.76690
C          4.23200        0.21520       -1.67570
C          4.96140        0.83180       -2.69250
C          5.20590        2.18600       -2.64420
C          4.72170        2.95690       -1.59000
S          4.98760        4.70020       -1.68180
C          3.68410        5.36930       -0.61080
C          4.05600        2.33640       -0.54130
C          3.81720        0.97660       -0.58580
C          4.58490       -2.06630       -2.44920
C          4.01400       -3.07080       -3.23220
C          4.81070       -3.96750       -3.90850
C          6.19650       -3.86590       -3.84780
S          7.13290       -5.05810       -4.75660
C          8.74180       -4.24490       -4.97910
C          6.77240       -2.87060       -3.06990
C          5.97460       -1.99650       -2.36210
C          1.52110       -0.32690       -2.19620
S          1.73980        1.26610       -2.82690
C          2.25570       -3.46720       -0.41940
C          1.55350       -4.55300        0.09640
N          0.16070       -4.71340        0.08820
C         -0.61080       -3.87420        0.90660
C         -0.02450       -3.00160        1.82350
C         -0.80740       -2.22460        2.64970
C         -2.19220       -2.31390        2.59540
S         -3.12460       -1.31600        3.72470
C         -4.54840       -2.38250        4.09740
C         -2.78640       -3.14800        1.65680
C         -2.00290       -3.90720        0.81300
C         -0.23720       -6.05680       -0.10020
C         -1.00880       -6.74080        0.83320
C         -1.26760       -8.08700        0.67940
C         -0.73940       -8.77870       -0.40070
S         -0.95610      -10.51380       -0.63100
C         -1.48890      -11.07490        1.01430
C          0.00350       -8.09290       -1.35720
C          0.24890       -6.74530       -1.21070
C          2.40770       -5.46860        0.74050
S          2.14130       -7.00180        1.47750
C          3.82150       -7.04980        2.01590
C          4.51490       -5.86620        1.65560
N          5.78130       -5.53860        2.08980
C          6.69800       -4.94510        1.21450
C          6.83530       -5.42140       -0.08950
C          7.82860       -4.92800       -0.90570
C          8.69150       -3.93660       -0.44470
S          9.98330       -3.40990       -1.53270
C         11.10500       -2.46990       -0.46240
C          8.51200       -3.40860        0.82610
C          7.52550       -3.91220        1.64800
C          6.08120       -5.61110        3.46300
C          5.09570       -5.35060        4.41390
C          5.39340       -5.42190        5.75680
C          6.68020       -5.74410        6.17540
S          6.98070       -5.84450        7.90950
C          8.31270       -7.07920        7.98510
C          7.67260       -5.97120        5.22980
C          7.37200       -5.91640        3.88550
C          3.72600       -5.03920        0.84420
S          3.96250       -3.52230        0.02870
C          4.42350       -8.16120        2.61550
C          3.97150       -9.46200        2.67210
C          2.71750       -9.98070        2.11060
O          1.69440       -9.36590        1.85810
C          2.90130      -11.43520        1.96320
C          2.04930      -12.33260        1.32450
C          2.49040      -13.63410        1.35100
C          3.68920      -14.01510        1.96660
C          4.54270      -13.13700        2.59270
C          4.11410      -11.80710        2.57450
C          4.74590      -10.60170        3.11140
C          5.83540      -10.59730        3.94620
C          6.35880       -9.47710        4.61550
N          6.83560       -8.65380        5.26020
C          6.54850      -11.74880        4.33690
N          7.18870      -12.63490        4.69040
C          3.51130      -15.46710        1.59660
C          4.35500      -15.98540        0.41300
C          3.63780      -17.24410       -0.01920
C          2.50340      -16.88150       -0.60420
C          2.43420      -15.37160       -0.57680
C          3.92520      -15.03710       -0.71380
C          2.17470      -15.04120        0.90840
H         -2.86590       11.21470       -1.31280
H         -6.62750       13.80730        1.46280
H         -6.69320        9.05090        3.21140
H         -9.65380       10.64640        3.92830
H         -8.17420       10.51170        6.13910
H        -10.47930       11.61630        6.75180
H        -10.45360       14.12350        5.87350
H         -8.13360       14.56330        4.72230
H         -7.28530       12.95370        6.64390
H         -6.57540       12.40750        5.10800
H         -9.63250       13.10670        3.06990
H         -0.97150        9.41730       -2.09750
H          0.89820        8.47860       -1.02370
H          7.21640        8.96190       -0.70830
H          8.71690        9.24990       -1.55440
H          6.94390        6.79100       -1.94280
H          8.48270        7.07660       -2.74740
H          8.43310        6.84200       -1.00260
H          7.49880        8.13010       -4.93380
H          6.86510        9.62750       -5.57170
H          9.57430        9.30970       -4.20230
H          8.93870       10.81910       -4.84860
H          9.30950        9.48310       -5.93600
H          6.20970       11.68310       -1.78420
H          7.65520       11.93520       -2.73190
H          4.81800       11.84030       -3.85490
H          6.27420       12.12360       -4.80390
H          5.77000       13.30070       -3.59280
H          4.85410        7.68570       -4.76760
H         -5.85120        1.38360        1.55690
H        -10.03050        0.35810        0.66510
H        -10.34660        2.00140        0.16800
H        -12.00030        2.26500        2.00010
H        -12.41030        0.89570        0.97000
H        -11.67310        0.62480        2.54740
H         -7.64320       -0.11180        2.70410
H         -7.39750        1.07090        3.95900
H         -8.68630       -0.83020        4.83090
H         -9.91000       -0.61800        3.58340
H         -9.70620        0.60690        4.83350
H        -10.05000        4.18080        2.57950
H        -10.37340        3.10900        3.92330
H         -8.05930        3.47620        4.78520
H         -7.71940        4.53580        3.42200
H         -8.92830        4.99950        4.61670
H         -5.78390        5.84860       -1.65920
H         -2.54210        2.47490       -2.33240
H         -0.71770       -0.01870       -5.28300
H         -1.43640        0.91830       -7.43830
H         -5.51800        3.60020       -8.99650
H         -5.14800        3.95870       -7.29550
H         -6.03300        2.46050       -7.73470
H         -5.04880        2.30930       -5.61820
H         -4.33800        1.39100       -3.49140
H         -4.18400       -1.28760       -3.55330
H         -5.91490       -1.98490       -1.97930
H         -7.73420       -2.45680       -0.69380
H         -7.73740       -0.66250       -0.65480
H         -8.50530       -1.59570        0.65300
H         -3.66970       -0.27330        1.23830
H         -1.91330        0.39380       -0.34280
H          5.29330        0.25430       -3.54190
H          5.74040        2.67150       -3.44600
H          2.73030        4.93220       -0.89140
H          3.67060        6.43920       -0.79270
H          3.91380        5.18230        0.43390
H          3.70380        2.90300        0.30560
H          3.27150        0.49860        0.21480
H          2.94110       -3.14220       -3.32550
H          4.36450       -4.74440       -4.51030
H          8.58490       -3.23580       -5.34700
H          9.30130       -4.23900       -4.04810
H          9.26880       -4.83540       -5.72200
H          7.84300       -2.77290       -3.00340
H          6.43130       -1.24330       -1.73820
H          1.05000       -2.94700        1.91090
H         -0.34900       -1.55960        3.36560
H         -5.26840       -2.35130        3.28580
H         -4.99370       -1.97880        5.00110
H         -4.19540       -3.39380        4.27190
H         -3.86040       -3.20640        1.57930
H         -2.46880       -4.54450        0.07680
H         -1.38200       -6.22600        1.70550
H         -1.85870       -8.58760        1.42810
H         -2.51240      -10.76470        1.20560
H         -0.80690      -10.67510        1.75970
H         -1.43760      -12.15960        0.99430
H          0.40030       -8.63170       -2.20410
H          0.84670       -6.21840       -1.94010
H          6.18330       -6.20500       -0.44570
H          7.95920       -5.33240       -1.89680
H         10.64830       -1.52770       -0.17300
H         11.36580       -3.06760        0.40600
H         11.98990       -2.27920       -1.06180
H          9.13510       -2.60850        1.19200
H          7.39930       -3.50770        2.64100
H          4.09550       -5.09820        4.09430
H          4.63010       -5.23090        6.49510
H          8.30080       -7.47450        8.99590
H          8.09310       -7.86420        7.26840
H          9.27410       -6.61430        7.78490
H          8.67840       -6.21040        5.53300
H          8.13990       -6.11870        3.15330
H          5.43110       -7.98600        2.98020
H          1.14420      -11.99830        0.84480
H          5.46780      -13.44430        3.05070
H          3.46890      -16.16720        2.42880
H          5.41880      -16.07350        0.61650
H          3.99130      -18.23710        0.18810
H          1.72000      -17.51130       -0.98330
H          1.74850      -14.89900       -1.27490
H          4.16370      -13.99140       -0.52950
H          4.32700      -15.33730       -1.68020
H          1.24130      -15.46000        1.28060
