
  xtb     02062215403D
 energy: -413.892124760224 gnorm: 0.000589600101 xtb: 6.4.1 (unknown)
234257  0     0  0            999 V2000
    5.7170   -5.8945   -1.8018 C   0  0  0  0  0  0  0  0  0  0  0  0
    6.9122   -6.3237   -1.3409 C   0  0  0  0  0  0  0  0  0  0  0  0
    7.6060   -5.8768   -0.1033 C   0  0  0  0  0  0  0  0  0  0  0  0
    7.3023   -4.9588    0.6265 O   0  0  0  0  0  0  0  0  0  0  0  0
    8.8152   -6.7115   -0.0001 C   0  0  0  0  0  0  0  0  0  0  0  0
    9.7378   -6.7147    1.0443 C   0  0  0  0  0  0  0  0  0  0  0  0
   10.7632   -7.6141    0.8844 C   0  0  0  0  0  0  0  0  0  0  0  0
   10.8719   -8.4441   -0.2407 C   0  0  0  0  0  0  0  0  0  0  0  0
    9.9777   -8.4429   -1.2832 C   0  0  0  0  0  0  0  0  0  0  0  0
    8.9199   -7.5385   -1.1376 C   0  0  0  0  0  0  0  0  0  0  0  0
    7.7927   -7.2684   -2.0224 C   0  0  0  0  0  0  0  0  0  0  0  0
    7.6125   -7.7969   -3.2714 C   0  0  0  0  0  0  0  0  0  0  0  0
    6.5387   -7.5151   -4.1450 C   0  0  0  0  0  0  0  0  0  0  0  0
    5.7080   -7.3510   -4.9209 N   0  0  0  0  0  0  0  0  0  0  0  0
    8.5039   -8.7021   -3.8889 C   0  0  0  0  0  0  0  0  0  0  0  0
    9.1804   -9.4408   -4.4492 N   0  0  0  0  0  0  0  0  0  0  0  0
   12.1251   -9.1078    0.2716 C   0  0  0  0  0  0  0  0  0  0  0  0
   11.9893  -10.5282    0.8741 C   0  0  0  0  0  0  0  0  0  0  0  0
   10.5759  -10.6418    1.3897 C   0  0  0  0  0  0  0  0  0  0  0  0
   10.4692   -9.8588    2.4549 C   0  0  0  0  0  0  0  0  0  0  0  0
   11.8090   -9.2020    2.6793 C   0  0  0  0  0  0  0  0  0  0  0  0
   12.7440  -10.3226    2.1972 C   0  0  0  0  0  0  0  0  0  0  0  0
   12.0020   -8.1859    1.5258 C   0  0  0  0  0  0  0  0  0  0  0  0
    4.7550   -5.0334   -1.1670 C   0  0  0  0  0  0  0  0  0  0  0  0
    4.4404   -5.0072    0.1818 C   0  0  0  0  0  0  0  0  0  0  0  0
    4.9790   -5.8959    1.0232 F   0  0  0  0  0  0  0  0  0  0  0  0
    3.4801   -4.1256    0.7061 C   0  0  0  0  0  0  0  0  0  0  0  0
    3.2640   -4.1340    2.0309 F   0  0  0  0  0  0  0  0  0  0  0  0
    2.7388   -3.2905   -0.1003 C   0  0  0  0  0  0  0  0  0  0  0  0
    2.9958   -3.3394   -1.4972 C   0  0  0  0  0  0  0  0  0  0  0  0
    2.2751   -2.5603   -2.3121 N   0  0  0  0  0  0  0  0  0  0  0  0
    2.5543   -2.5205   -3.5937 C   0  0  0  0  0  0  0  0  0  0  0  0
    1.6240   -1.7091   -4.3825 C   0  0  0  0  0  0  0  0  0  0  0  0
    1.0797   -0.5690   -3.7980 C   0  0  0  0  0  0  0  0  0  0  0  0
    0.1198    0.1877   -4.4408 C   0  0  0  0  0  0  0  0  0  0  0  0
   -0.3528   -0.1874   -5.6968 C   0  0  0  0  0  0  0  0  0  0  0  0
   -1.3417    0.4115   -6.3923 O   0  0  0  0  0  0  0  0  0  0  0  0
   -2.0481    1.4981   -5.8167 C   0  0  0  0  0  0  0  0  0  0  0  0
   -1.3140    2.8254   -5.9715 C   0  0  0  0  0  0  0  0  0  0  0  0
    0.2271   -1.3252   -6.2830 C   0  0  0  0  0  0  0  0  0  0  0  0
    1.1871   -2.0817   -5.6534 C   0  0  0  0  0  0  0  0  0  0  0  0
   -0.2023   -1.7096   -7.5050 F   0  0  0  0  0  0  0  0  0  0  0  0
    3.6730   -3.2554   -4.1054 C   0  0  0  0  0  0  0  0  0  0  0  0
    4.3312   -4.0841   -3.3232 N   0  0  0  0  0  0  0  0  0  0  0  0
    4.0113   -4.1685   -2.0241 C   0  0  0  0  0  0  0  0  0  0  0  0
    4.1786   -3.0992   -5.4680 C   0  0  0  0  0  0  0  0  0  0  0  0
    4.1667   -1.8624   -6.1069 C   0  0  0  0  0  0  0  0  0  0  0  0
    4.6537   -1.7165   -7.3913 C   0  0  0  0  0  0  0  0  0  0  0  0
    5.1733   -2.8058   -8.0873 C   0  0  0  0  0  0  0  0  0  0  0  0
    5.6728   -2.7933   -9.3402 O   0  0  0  0  0  0  0  0  0  0  0  0
    5.5578   -1.6305  -10.1373 C   0  0  0  0  0  0  0  0  0  0  0  0
    4.1426   -1.4235  -10.6677 C   0  0  0  0  0  0  0  0  0  0  0  0
    5.2117   -4.0377   -7.4115 C   0  0  0  0  0  0  0  0  0  0  0  0
    5.7329   -5.0978   -8.0545 F   0  0  0  0  0  0  0  0  0  0  0  0
    4.7383   -4.1936   -6.1314 C   0  0  0  0  0  0  0  0  0  0  0  0
    1.7418   -2.3438    0.3675 C   0  0  0  0  0  0  0  0  0  0  0  0
    1.9526   -1.2070    1.1219 C   0  0  0  0  0  0  0  0  0  0  0  0
    3.1571   -0.8450    1.6967 N   0  0  0  0  0  0  0  0  0  0  0  0
    3.1399   -0.1468    2.9082 C   0  0  0  0  0  0  0  0  0  0  0  0
    2.1754   -0.4437    3.8730 C   0  0  0  0  0  0  0  0  0  0  0  0
    2.1111    0.2837    5.0383 C   0  0  0  0  0  0  0  0  0  0  0  0
    3.0081    1.3238    5.2707 C   0  0  0  0  0  0  0  0  0  0  0  0
    2.7863    2.2193    6.7763 S   0  0  0  0  0  0  0  0  0  0  0  0
    4.1248    3.4487    6.7571 C   0  0  0  0  0  0  0  0  0  0  0  0
    3.9953    1.5966    4.3340 C   0  0  0  0  0  0  0  0  0  0  0  0
    4.0598    0.8656    3.1631 C   0  0  0  0  0  0  0  0  0  0  0  0
    4.3586   -1.1345    1.0326 C   0  0  0  0  0  0  0  0  0  0  0  0
    4.4565   -0.9583   -0.3483 C   0  0  0  0  0  0  0  0  0  0  0  0
    5.6069   -1.3168   -1.0139 C   0  0  0  0  0  0  0  0  0  0  0  0
    6.6924   -1.8407   -0.3144 C   0  0  0  0  0  0  0  0  0  0  0  0
    8.0947   -2.3023   -1.2796 S   0  0  0  0  0  0  0  0  0  0  0  0
    9.3726   -2.6523   -0.0386 C   0  0  0  0  0  0  0  0  0  0  0  0
    6.6150   -1.9757    1.0650 C   0  0  0  0  0  0  0  0  0  0  0  0
    5.4552   -1.6287    1.7304 C   0  0  0  0  0  0  0  0  0  0  0  0
    0.7873   -0.3982    1.1464 C   0  0  0  0  0  0  0  0  0  0  0  0
    0.4463    1.1758    1.7847 S   0  0  0  0  0  0  0  0  0  0  0  0
   -1.1093    1.1457    1.0018 C   0  0  0  0  0  0  0  0  0  0  0  0
   -1.4058   -0.0671    0.4022 C   0  0  0  0  0  0  0  0  0  0  0  0
   -2.7009   -0.3666    0.0118 N   0  0  0  0  0  0  0  0  0  0  0  0
   -3.7225    0.1226    0.8594 C   0  0  0  0  0  0  0  0  0  0  0  0
   -4.7990    0.8467    0.3595 C   0  0  0  0  0  0  0  0  0  0  0  0
   -5.7069    1.4301    1.2225 C   0  0  0  0  0  0  0  0  0  0  0  0
   -5.5580    1.2930    2.5956 C   0  0  0  0  0  0  0  0  0  0  0  0
   -6.6443    2.0409    3.7755 S   0  0  0  0  0  0  0  0  0  0  0  0
   -7.2460    3.5145    2.9033 C   0  0  0  0  0  0  0  0  0  0  0  0
   -4.5199    0.5112    3.0958 C   0  0  0  0  0  0  0  0  0  0  0  0
   -3.6119   -0.0669    2.2372 C   0  0  0  0  0  0  0  0  0  0  0  0
   -2.9895   -1.1218   -1.1181 C   0  0  0  0  0  0  0  0  0  0  0  0
   -4.1896   -1.8317   -1.2119 C   0  0  0  0  0  0  0  0  0  0  0  0
   -4.4728   -2.5672   -2.3391 C   0  0  0  0  0  0  0  0  0  0  0  0
   -3.5633   -2.6292   -3.3949 C   0  0  0  0  0  0  0  0  0  0  0  0
   -4.0326   -3.6022   -4.7901 S   0  0  0  0  0  0  0  0  0  0  0  0
   -2.6970   -3.3293   -5.9869 C   0  0  0  0  0  0  0  0  0  0  0  0
   -2.3645   -1.9377   -3.2990 C   0  0  0  0  0  0  0  0  0  0  0  0
   -2.0879   -1.1817   -2.1775 C   0  0  0  0  0  0  0  0  0  0  0  0
   -0.2818   -0.9306    0.4392 C   0  0  0  0  0  0  0  0  0  0  0  0
    0.1291   -2.4311   -0.3081 S   0  0  0  0  0  0  0  0  0  0  0  0
   -1.9810    2.2983    0.9253 C   0  0  0  0  0  0  0  0  0  0  0  0
   -2.4036    2.7632   -0.3095 C   0  0  0  0  0  0  0  0  0  0  0  0
   -1.9017    2.2111   -1.4330 F   0  0  0  0  0  0  0  0  0  0  0  0
   -3.3213    3.8054   -0.4481 C   0  0  0  0  0  0  0  0  0  0  0  0
   -3.5554    4.2725   -1.6842 F   0  0  0  0  0  0  0  0  0  0  0  0
   -3.9232    4.3908    0.6545 C   0  0  0  0  0  0  0  0  0  0  0  0
   -3.4739    3.9616    1.9363 C   0  0  0  0  0  0  0  0  0  0  0  0
   -4.0933    4.4317    3.0278 N   0  0  0  0  0  0  0  0  0  0  0  0
   -3.7254    4.0114    4.2193 C   0  0  0  0  0  0  0  0  0  0  0  0
   -4.5731    4.4388    5.3283 C   0  0  0  0  0  0  0  0  0  0  0  0
   -5.2378    5.6600    5.2459 C   0  0  0  0  0  0  0  0  0  0  0  0
   -6.0790    6.0904    6.2527 C   0  0  0  0  0  0  0  0  0  0  0  0
   -6.3046    5.3030    7.3797 C   0  0  0  0  0  0  0  0  0  0  0  0
   -7.1099    5.5981    8.4216 O   0  0  0  0  0  0  0  0  0  0  0  0
   -7.7769    6.8451    8.4703 C   0  0  0  0  0  0  0  0  0  0  0  0
   -6.8580    7.9827    8.9043 C   0  0  0  0  0  0  0  0  0  0  0  0
   -5.6486    4.0617    7.4310 C   0  0  0  0  0  0  0  0  0  0  0  0
   -4.8038    3.6259    6.4402 C   0  0  0  0  0  0  0  0  0  0  0  0
   -5.8615    3.2664    8.4990 F   0  0  0  0  0  0  0  0  0  0  0  0
   -2.5878    3.1468    4.3530 C   0  0  0  0  0  0  0  0  0  0  0  0
   -2.0359    2.6136    3.2882 N   0  0  0  0  0  0  0  0  0  0  0  0
   -2.4801    2.9611    2.0728 C   0  0  0  0  0  0  0  0  0  0  0  0
   -1.9680    2.8154    5.6355 C   0  0  0  0  0  0  0  0  0  0  0  0
   -1.7884    3.7628    6.6377 C   0  0  0  0  0  0  0  0  0  0  0  0
   -1.1748    3.4308    7.8306 C   0  0  0  0  0  0  0  0  0  0  0  0
   -0.7418    2.1292    8.0781 C   0  0  0  0  0  0  0  0  0  0  0  0
   -0.1823    1.6669    9.2122 O   0  0  0  0  0  0  0  0  0  0  0  0
    0.1506    2.5604   10.2561 C   0  0  0  0  0  0  0  0  0  0  0  0
    1.4155    3.3572    9.9552 C   0  0  0  0  0  0  0  0  0  0  0  0
   -0.9292    1.1910    7.0507 C   0  0  0  0  0  0  0  0  0  0  0  0
   -0.5309   -0.0801    7.2609 F   0  0  0  0  0  0  0  0  0  0  0  0
   -1.5023    1.5175    5.8466 C   0  0  0  0  0  0  0  0  0  0  0  0
   -4.9530    5.3959    0.6005 C   0  0  0  0  0  0  0  0  0  0  0  0
   -5.9769    5.4638   -0.2825 C   0  0  0  0  0  0  0  0  0  0  0  0
   -6.3362    4.4372   -1.3026 C   0  0  0  0  0  0  0  0  0  0  0  0
   -5.9417    3.2943   -1.3661 O   0  0  0  0  0  0  0  0  0  0  0  0
   -7.3662    5.0628   -2.1489 C   0  0  0  0  0  0  0  0  0  0  0  0
   -7.9364    4.5276   -3.3016 C   0  0  0  0  0  0  0  0  0  0  0  0
   -8.8675    5.3443   -3.8959 C   0  0  0  0  0  0  0  0  0  0  0  0
   -9.2135    6.6010   -3.3781 C   0  0  0  0  0  0  0  0  0  0  0  0
   -8.6714    7.1337   -2.2334 C   0  0  0  0  0  0  0  0  0  0  0  0
   -7.7193    6.3186   -1.6119 C   0  0  0  0  0  0  0  0  0  0  0  0
   -6.9554    6.5373   -0.3889 C   0  0  0  0  0  0  0  0  0  0  0  0
   -7.1727    7.5368    0.5222 C   0  0  0  0  0  0  0  0  0  0  0  0
   -6.5119    7.6767    1.7602 C   0  0  0  0  0  0  0  0  0  0  0  0
   -6.0492    7.8615    2.7955 N   0  0  0  0  0  0  0  0  0  0  0  0
   -8.1500    8.5449    0.3795 C   0  0  0  0  0  0  0  0  0  0  0  0
   -8.9199    9.3952    0.3316 N   0  0  0  0  0  0  0  0  0  0  0  0
  -10.1958    6.8756   -4.4888 C   0  0  0  0  0  0  0  0  0  0  0  0
   -9.7580    7.8419   -5.6173 C   0  0  0  0  0  0  0  0  0  0  0  0
   -8.2526    7.7692   -5.6851 C   0  0  0  0  0  0  0  0  0  0  0  0
   -7.9259    6.5801   -6.1733 C   0  0  0  0  0  0  0  0  0  0  0  0
   -9.2048    5.8270   -6.4452 C   0  0  0  0  0  0  0  0  0  0  0  0
  -10.1254    6.9913   -6.8439 C   0  0  0  0  0  0  0  0  0  0  0  0
   -9.8115    5.4759   -5.0639 C   0  0  0  0  0  0  0  0  0  0  0  0
    5.4219   -6.1705   -2.8049 H   0  0  0  0  0  0  0  0  0  0  0  0
    9.6148   -6.0638    1.8961 H   0  0  0  0  0  0  0  0  0  0  0  0
   10.0760   -9.0893   -2.1390 H   0  0  0  0  0  0  0  0  0  0  0  0
   13.0097   -9.0042   -0.3534 H   0  0  0  0  0  0  0  0  0  0  0  0
   12.3286  -11.3287    0.2225 H   0  0  0  0  0  0  0  0  0  0  0  0
    9.8074  -11.2178    0.9084 H   0  0  0  0  0  0  0  0  0  0  0  0
    9.5934   -9.6493    3.0406 H   0  0  0  0  0  0  0  0  0  0  0  0
   11.9842   -8.7960    3.6721 H   0  0  0  0  0  0  0  0  0  0  0  0
   12.7138  -11.2011    2.8398 H   0  0  0  0  0  0  0  0  0  0  0  0
   13.7756   -9.9999    2.0631 H   0  0  0  0  0  0  0  0  0  0  0  0
   12.8081   -7.4820    1.7234 H   0  0  0  0  0  0  0  0  0  0  0  0
    1.4178   -0.2801   -2.8152 H   0  0  0  0  0  0  0  0  0  0  0  0
   -0.2801    1.0558   -3.9428 H   0  0  0  0  0  0  0  0  0  0  0  0
   -2.9885    1.5293   -6.3735 H   0  0  0  0  0  0  0  0  0  0  0  0
   -2.2742    1.2926   -4.7641 H   0  0  0  0  0  0  0  0  0  0  0  0
   -1.9202    3.6220   -5.5498 H   0  0  0  0  0  0  0  0  0  0  0  0
   -0.3550    2.8071   -5.4600 H   0  0  0  0  0  0  0  0  0  0  0  0
   -1.1387    3.0316   -7.0245 H   0  0  0  0  0  0  0  0  0  0  0  0
    1.5629   -2.9661   -6.1429 H   0  0  0  0  0  0  0  0  0  0  0  0
    3.7910   -0.9923   -5.5905 H   0  0  0  0  0  0  0  0  0  0  0  0
    4.6292   -0.7390   -7.8452 H   0  0  0  0  0  0  0  0  0  0  0  0
    6.2443   -1.8099  -10.9688 H   0  0  0  0  0  0  0  0  0  0  0  0
    5.9056   -0.7480   -9.5863 H   0  0  0  0  0  0  0  0  0  0  0  0
    3.8310   -2.2984  -11.2325 H   0  0  0  0  0  0  0  0  0  0  0  0
    3.4365   -1.2712   -9.8549 H   0  0  0  0  0  0  0  0  0  0  0  0
    4.1208   -0.5559  -11.3212 H   0  0  0  0  0  0  0  0  0  0  0  0
    4.7925   -5.1605   -5.6559 H   0  0  0  0  0  0  0  0  0  0  0  0
    1.4850   -1.2563    3.7060 H   0  0  0  0  0  0  0  0  0  0  0  0
    1.3738    0.0463    5.7863 H   0  0  0  0  0  0  0  0  0  0  0  0
    4.0228    4.0104    7.6806 H   0  0  0  0  0  0  0  0  0  0  0  0
    4.0065    4.1136    5.9066 H   0  0  0  0  0  0  0  0  0  0  0  0
    5.0887    2.9487    6.7361 H   0  0  0  0  0  0  0  0  0  0  0  0
    4.7156    2.3829    4.4932 H   0  0  0  0  0  0  0  0  0  0  0  0
    4.8219    1.0906    2.4314 H   0  0  0  0  0  0  0  0  0  0  0  0
    3.6204   -0.5455   -0.8936 H   0  0  0  0  0  0  0  0  0  0  0  0
    5.6816   -1.1942   -2.0845 H   0  0  0  0  0  0  0  0  0  0  0  0
   10.2647   -2.9151   -0.5989 H   0  0  0  0  0  0  0  0  0  0  0  0
    9.0590   -3.4884    0.5782 H   0  0  0  0  0  0  0  0  0  0  0  0
    9.5547   -1.7636    0.5585 H   0  0  0  0  0  0  0  0  0  0  0  0
    7.4365   -2.3799    1.6307 H   0  0  0  0  0  0  0  0  0  0  0  0
    5.3873   -1.7600    2.7999 H   0  0  0  0  0  0  0  0  0  0  0  0
   -4.9181    0.9838   -0.7038 H   0  0  0  0  0  0  0  0  0  0  0  0
   -6.5160    2.0063    0.8052 H   0  0  0  0  0  0  0  0  0  0  0  0
   -7.9221    3.2353    2.1004 H   0  0  0  0  0  0  0  0  0  0  0  0
   -6.3934    4.0775    2.5336 H   0  0  0  0  0  0  0  0  0  0  0  0
   -7.7779    4.0974    3.6488 H   0  0  0  0  0  0  0  0  0  0  0  0
   -4.4301    0.3746    4.1626 H   0  0  0  0  0  0  0  0  0  0  0  0
   -2.7936   -0.6517    2.6299 H   0  0  0  0  0  0  0  0  0  0  0  0
   -4.8940   -1.8028   -0.3946 H   0  0  0  0  0  0  0  0  0  0  0  0
   -5.4013   -3.1119   -2.4145 H   0  0  0  0  0  0  0  0  0  0  0  0
   -2.9752   -3.8941   -6.8712 H   0  0  0  0  0  0  0  0  0  0  0  0
   -1.7578   -3.7062   -5.5922 H   0  0  0  0  0  0  0  0  0  0  0  0
   -2.6290   -2.2743   -6.2340 H   0  0  0  0  0  0  0  0  0  0  0  0
   -1.6347   -1.9718   -4.0906 H   0  0  0  0  0  0  0  0  0  0  0  0
   -1.1688   -0.6208   -2.1330 H   0  0  0  0  0  0  0  0  0  0  0  0
   -5.0885    6.2855    4.3801 H   0  0  0  0  0  0  0  0  0  0  0  0
   -6.5636    7.0465    6.1412 H   0  0  0  0  0  0  0  0  0  0  0  0
   -8.5629    6.6979    9.2158 H   0  0  0  0  0  0  0  0  0  0  0  0
   -8.2499    7.0678    7.5066 H   0  0  0  0  0  0  0  0  0  0  0  0
   -6.0572    8.1354    8.1850 H   0  0  0  0  0  0  0  0  0  0  0  0
   -6.4152    7.7492    9.8693 H   0  0  0  0  0  0  0  0  0  0  0  0
   -7.4321    8.9008    8.9926 H   0  0  0  0  0  0  0  0  0  0  0  0
   -4.3607    2.6477    6.5281 H   0  0  0  0  0  0  0  0  0  0  0  0
   -2.1134    4.7799    6.4786 H   0  0  0  0  0  0  0  0  0  0  0  0
   -1.0461    4.1986    8.5759 H   0  0  0  0  0  0  0  0  0  0  0  0
   -0.6927    3.2249   10.4806 H   0  0  0  0  0  0  0  0  0  0  0  0
    0.3172    1.9109   11.1194 H   0  0  0  0  0  0  0  0  0  0  0  0
    1.2756    3.9957    9.0864 H   0  0  0  0  0  0  0  0  0  0  0  0
    1.6746    3.9719   10.8128 H   0  0  0  0  0  0  0  0  0  0  0  0
    2.2328    2.6727    9.7440 H   0  0  0  0  0  0  0  0  0  0  0  0
   -1.6089    0.7718    5.0758 H   0  0  0  0  0  0  0  0  0  0  0  0
   -4.8875    6.1307    1.3920 H   0  0  0  0  0  0  0  0  0  0  0  0
   -7.6406    3.5563   -3.6659 H   0  0  0  0  0  0  0  0  0  0  0  0
   -8.9493    8.1001   -1.8469 H   0  0  0  0  0  0  0  0  0  0  0  0
  -11.2275    7.0362   -4.1825 H   0  0  0  0  0  0  0  0  0  0  0  0
  -10.1882    8.8374   -5.5507 H   0  0  0  0  0  0  0  0  0  0  0  0
   -7.5991    8.5441   -5.3291 H   0  0  0  0  0  0  0  0  0  0  0  0
   -6.9450    6.1625   -6.3058 H   0  0  0  0  0  0  0  0  0  0  0  0
   -9.1316    4.9882   -7.1324 H   0  0  0  0  0  0  0  0  0  0  0  0
   -9.8316    7.4578   -7.7829 H   0  0  0  0  0  0  0  0  0  0  0  0
  -11.1789    6.7180   -6.8828 H   0  0  0  0  0  0  0  0  0  0  0  0
  -10.5922    4.7211   -5.1334 H   0  0  0  0  0  0  0  0  0  0  0  0
  1  2  2  0  0  0  0
  2  3  1  0  0  0  0
  3  4  2  0  0  0  0
  3  5  1  0  0  0  0
  5  6  2  0  0  0  0
  6  7  1  0  0  0  0
  7  8  2  0  0  0  0
  8  9  1  0  0  0  0
  9 10  2  0  0  0  0
 10 11  1  0  0  0  0
 11 12  2  0  0  0  0
 12 13  1  0  0  0  0
 13 14  3  0  0  0  0
 12 15  1  0  0  0  0
 15 16  3  0  0  0  0
  8 17  1  0  0  0  0
 17 18  1  0  0  0  0
 18 19  1  0  0  0  0
 19 20  2  0  0  0  0
 20 21  1  0  0  0  0
 21 22  1  0  0  0  0
 21 23  1  0  0  0  0
  1 24  1  0  0  0  0
 24 25  2  0  0  0  0
 25 26  1  0  0  0  0
 25 27  1  0  0  0  0
 27 28  1  0  0  0  0
 27 29  2  0  0  0  0
 29 30  1  0  0  0  0
 30 31  2  0  0  0  0
 31 32  1  0  0  0  0
 32 33  1  0  0  0  0
 33 34  2  0  0  0  0
 34 35  1  0  0  0  0
 35 36  2  0  0  0  0
 36 37  1  0  0  0  0
 37 38  1  0  0  0  0
 38 39  1  0  0  0  0
 36 40  1  0  0  0  0
 40 41  2  0  0  0  0
 40 42  1  0  0  0  0
 32 43  2  0  0  0  0
 43 44  1  0  0  0  0
 44 45  2  0  0  0  0
 43 46  1  0  0  0  0
 46 47  2  0  0  0  0
 47 48  1  0  0  0  0
 48 49  2  0  0  0  0
 49 50  1  0  0  0  0
 50 51  1  0  0  0  0
 51 52  1  0  0  0  0
 49 53  1  0  0  0  0
 53 54  1  0  0  0  0
 53 55  2  0  0  0  0
 29 56  1  0  0  0  0
 56 57  2  0  0  0  0
 57 58  1  0  0  0  0
 58 59  1  0  0  0  0
 59 60  2  0  0  0  0
 60 61  1  0  0  0  0
 61 62  2  0  0  0  0
 62 63  1  0  0  0  0
 63 64  1  0  0  0  0
 62 65  1  0  0  0  0
 65 66  2  0  0  0  0
 58 67  1  0  0  0  0
 67 68  2  0  0  0  0
 68 69  1  0  0  0  0
 69 70  2  0  0  0  0
 70 71  1  0  0  0  0
 71 72  1  0  0  0  0
 70 73  1  0  0  0  0
 73 74  2  0  0  0  0
 57 75  1  0  0  0  0
 75 76  1  0  0  0  0
 76 77  1  0  0  0  0
 77 78  2  0  0  0  0
 78 79  1  0  0  0  0
 79 80  1  0  0  0  0
 80 81  2  0  0  0  0
 81 82  1  0  0  0  0
 82 83  2  0  0  0  0
 83 84  1  0  0  0  0
 84 85  1  0  0  0  0
 83 86  1  0  0  0  0
 86 87  2  0  0  0  0
 79 88  1  0  0  0  0
 88 89  2  0  0  0  0
 89 90  1  0  0  0  0
 90 91  2  0  0  0  0
 91 92  1  0  0  0  0
 92 93  1  0  0  0  0
 91 94  1  0  0  0  0
 94 95  2  0  0  0  0
 78 96  1  0  0  0  0
 96 97  1  0  0  0  0
 77 98  1  0  0  0  0
 98 99  2  0  0  0  0
 99100  1  0  0  0  0
 99101  1  0  0  0  0
101102  1  0  0  0  0
101103  2  0  0  0  0
103104  1  0  0  0  0
104105  2  0  0  0  0
105106  1  0  0  0  0
106107  1  0  0  0  0
107108  2  0  0  0  0
108109  1  0  0  0  0
109110  2  0  0  0  0
110111  1  0  0  0  0
111112  1  0  0  0  0
112113  1  0  0  0  0
110114  1  0  0  0  0
114115  2  0  0  0  0
114116  1  0  0  0  0
106117  2  0  0  0  0
117118  1  0  0  0  0
118119  2  0  0  0  0
117120  1  0  0  0  0
120121  2  0  0  0  0
121122  1  0  0  0  0
122123  2  0  0  0  0
123124  1  0  0  0  0
124125  1  0  0  0  0
125126  1  0  0  0  0
123127  1  0  0  0  0
127128  1  0  0  0  0
127129  2  0  0  0  0
103130  1  0  0  0  0
130131  2  0  0  0  0
131132  1  0  0  0  0
132133  2  0  0  0  0
132134  1  0  0  0  0
134135  2  0  0  0  0
135136  1  0  0  0  0
136137  2  0  0  0  0
137138  1  0  0  0  0
138139  2  0  0  0  0
139140  1  0  0  0  0
140141  2  0  0  0  0
141142  1  0  0  0  0
142143  3  0  0  0  0
141144  1  0  0  0  0
144145  3  0  0  0  0
137146  1  0  0  0  0
146147  1  0  0  0  0
147148  1  0  0  0  0
148149  2  0  0  0  0
149150  1  0  0  0  0
150151  1  0  0  0  0
150152  1  0  0  0  0
 11  2  1  0  0  0  0
 23 17  1  0  0  0  0
 45 24  1  0  0  0  0
 55 46  1  0  0  0  0
 97 56  1  0  0  0  0
119 98  1  0  0  0  0
129120  1  0  0  0  0
140131  1  0  0  0  0
152146  1  0  0  0  0
 10  5  1  0  0  0  0
 22 18  1  0  0  0  0
 45 30  1  0  0  0  0
 66 59  1  0  0  0  0
 74 67  1  0  0  0  0
 96 75  2  0  0  0  0
119104  1  0  0  0  0
139134  1  0  0  0  0
151147  1  0  0  0  0
 23  7  1  0  0  0  0
 41 33  1  0  0  0  0
 87 80  1  0  0  0  0
 95 88  1  0  0  0  0
115107  1  0  0  0  0
152136  1  0  0  0  0
  1153  1  0  0  0  0
  6154  1  0  0  0  0
  9155  1  0  0  0  0
 17156  1  0  0  0  0
 18157  1  0  0  0  0
 19158  1  0  0  0  0
 20159  1  0  0  0  0
 21160  1  0  0  0  0
 22161  1  0  0  0  0
 22162  1  0  0  0  0
 23163  1  0  0  0  0
 34164  1  0  0  0  0
 35165  1  0  0  0  0
 38166  1  0  0  0  0
 38167  1  0  0  0  0
 39168  1  0  0  0  0
 39169  1  0  0  0  0
 39170  1  0  0  0  0
 41171  1  0  0  0  0
 47172  1  0  0  0  0
 48173  1  0  0  0  0
 51174  1  0  0  0  0
 51175  1  0  0  0  0
 52176  1  0  0  0  0
 52177  1  0  0  0  0
 52178  1  0  0  0  0
 55179  1  0  0  0  0
 60180  1  0  0  0  0
 61181  1  0  0  0  0
 64182  1  0  0  0  0
 64183  1  0  0  0  0
 64184  1  0  0  0  0
 65185  1  0  0  0  0
 66186  1  0  0  0  0
 68187  1  0  0  0  0
 69188  1  0  0  0  0
 72189  1  0  0  0  0
 72190  1  0  0  0  0
 72191  1  0  0  0  0
 73192  1  0  0  0  0
 74193  1  0  0  0  0
 81194  1  0  0  0  0
 82195  1  0  0  0  0
 85196  1  0  0  0  0
 85197  1  0  0  0  0
 85198  1  0  0  0  0
 86199  1  0  0  0  0
 87200  1  0  0  0  0
 89201  1  0  0  0  0
 90202  1  0  0  0  0
 93203  1  0  0  0  0
 93204  1  0  0  0  0
 93205  1  0  0  0  0
 94206  1  0  0  0  0
 95207  1  0  0  0  0
108208  1  0  0  0  0
109209  1  0  0  0  0
112210  1  0  0  0  0
112211  1  0  0  0  0
113212  1  0  0  0  0
113213  1  0  0  0  0
113214  1  0  0  0  0
115215  1  0  0  0  0
121216  1  0  0  0  0
122217  1  0  0  0  0
125218  1  0  0  0  0
125219  1  0  0  0  0
126220  1  0  0  0  0
126221  1  0  0  0  0
126222  1  0  0  0  0
129223  1  0  0  0  0
130224  1  0  0  0  0
135225  1  0  0  0  0
138226  1  0  0  0  0
146227  1  0  0  0  0
147228  1  0  0  0  0
148229  1  0  0  0  0
149230  1  0  0  0  0
150231  1  0  0  0  0
151232  1  0  0  0  0
151233  1  0  0  0  0
152234  1  0  0  0  0
M  END
