
  xtb     02082217313D
 energy: -371.135272489646 gnorm: 0.000556843362 xtb: 6.4.1 (unknown)
214236  0     0  0            999 V2000
   -3.5684   -2.4647    6.5283 C   0  0  0  0  0  0  0  0  0  0  0  0
   -3.2824   -3.7229    6.9139 C   0  0  0  0  0  0  0  0  0  0  0  0
   -3.7919   -4.2784    8.2066 C   0  0  0  0  0  0  0  0  0  0  0  0
   -4.2887   -3.6470    9.1097 O   0  0  0  0  0  0  0  0  0  0  0  0
   -3.5902   -5.7348    8.1094 C   0  0  0  0  0  0  0  0  0  0  0  0
   -4.0569   -6.7201    8.9780 C   0  0  0  0  0  0  0  0  0  0  0  0
   -3.7408   -8.0011    8.5931 C   0  0  0  0  0  0  0  0  0  0  0  0
   -3.0205   -8.2914    7.4247 C   0  0  0  0  0  0  0  0  0  0  0  0
   -2.5510   -7.3339    6.5587 C   0  0  0  0  0  0  0  0  0  0  0  0
   -2.8511   -6.0248    6.9425 C   0  0  0  0  0  0  0  0  0  0  0  0
   -2.5181   -4.7765    6.2714 C   0  0  0  0  0  0  0  0  0  0  0  0
   -1.4636   -4.6226    5.4136 C   0  0  0  0  0  0  0  0  0  0  0  0
   -0.5099   -5.6379    5.1891 C   0  0  0  0  0  0  0  0  0  0  0  0
    0.3634   -6.3690    5.0383 N   0  0  0  0  0  0  0  0  0  0  0  0
   -1.0510   -3.4351    4.7775 C   0  0  0  0  0  0  0  0  0  0  0  0
   -0.6082   -2.5411    4.2078 N   0  0  0  0  0  0  0  0  0  0  0  0
   -3.0998   -9.7795    7.6495 C   0  0  0  0  0  0  0  0  0  0  0  0
   -4.1187  -10.5804    6.8021 C   0  0  0  0  0  0  0  0  0  0  0  0
   -5.2184   -9.6160    6.4326 C   0  0  0  0  0  0  0  0  0  0  0  0
   -5.9035   -9.3428    7.5349 C   0  0  0  0  0  0  0  0  0  0  0  0
   -5.2785  -10.1160    8.6701 C   0  0  0  0  0  0  0  0  0  0  0  0
   -4.8165  -11.3744    7.9179 C   0  0  0  0  0  0  0  0  0  0  0  0
   -3.9037   -9.4581    8.9488 C   0  0  0  0  0  0  0  0  0  0  0  0
   -3.4342   -1.9465    5.1856 C   0  0  0  0  0  0  0  0  0  0  0  0
   -3.9776   -2.5966    4.0906 C   0  0  0  0  0  0  0  0  0  0  0  0
   -4.7190   -3.7067    4.2790 F   0  0  0  0  0  0  0  0  0  0  0  0
   -3.8211   -2.1370    2.7825 C   0  0  0  0  0  0  0  0  0  0  0  0
   -4.5759   -2.7254    1.8366 F   0  0  0  0  0  0  0  0  0  0  0  0
   -2.9842   -1.0691    2.4652 C   0  0  0  0  0  0  0  0  0  0  0  0
   -2.5923   -0.2697    3.5886 C   0  0  0  0  0  0  0  0  0  0  0  0
   -2.1631    0.9742    3.4072 N   0  0  0  0  0  0  0  0  0  0  0  0
   -1.7229    1.7102    4.4108 C   0  0  0  0  0  0  0  0  0  0  0  0
   -1.6393    3.1501    4.2027 C   0  0  0  0  0  0  0  0  0  0  0  0
   -1.4449    4.0577    5.2448 C   0  0  0  0  0  0  0  0  0  0  0  0
   -1.3676    5.4161    5.0128 C   0  0  0  0  0  0  0  0  0  0  0  0
   -1.5292    5.9413    3.7325 C   0  0  0  0  0  0  0  0  0  0  0  0
   -1.4780    7.2416    3.3825 O   0  0  0  0  0  0  0  0  0  0  0  0
   -1.0005    8.2002    4.3083 C   0  0  0  0  0  0  0  0  0  0  0  0
    0.5103    8.1163    4.4970 C   0  0  0  0  0  0  0  0  0  0  0  0
   -1.8175    5.0243    2.7096 C   0  0  0  0  0  0  0  0  0  0  0  0
   -1.8557    3.6711    2.9215 C   0  0  0  0  0  0  0  0  0  0  0  0
   -2.0708    5.5003    1.4734 F   0  0  0  0  0  0  0  0  0  0  0  0
   -1.4816    1.0360    5.6604 C   0  0  0  0  0  0  0  0  0  0  0  0
   -2.1032   -0.0959    5.8975 N   0  0  0  0  0  0  0  0  0  0  0  0
   -2.7581   -0.7302    4.9225 C   0  0  0  0  0  0  0  0  0  0  0  0
   -0.5403    1.4626    6.6932 C   0  0  0  0  0  0  0  0  0  0  0  0
   -0.7577    1.0927    8.0172 C   0  0  0  0  0  0  0  0  0  0  0  0
    0.1386    1.4288    9.0138 C   0  0  0  0  0  0  0  0  0  0  0  0
    1.3041    2.1303    8.7152 C   0  0  0  0  0  0  0  0  0  0  0  0
    2.2509    2.5089    9.5983 O   0  0  0  0  0  0  0  0  0  0  0  0
    2.0938    2.1711   10.9639 C   0  0  0  0  0  0  0  0  0  0  0  0
    3.3077    2.7024   11.7086 C   0  0  0  0  0  0  0  0  0  0  0  0
    1.5183    2.4767    7.3713 C   0  0  0  0  0  0  0  0  0  0  0  0
    2.6488    3.1424    7.0543 F   0  0  0  0  0  0  0  0  0  0  0  0
    0.6280    2.1601    6.3748 C   0  0  0  0  0  0  0  0  0  0  0  0
   -2.5179   -0.7235    1.1626 C   0  0  0  0  0  0  0  0  0  0  0  0
   -2.5205   -1.4305   -0.0447 C   0  0  0  0  0  0  0  0  0  0  0  0
   -3.0342   -2.6875   -0.3303 N   0  0  0  0  0  0  0  0  0  0  0  0
   -3.7050   -2.7914   -1.5638 C   0  0  0  0  0  0  0  0  0  0  0  0
   -4.6303   -1.8100   -1.9221 C   0  0  0  0  0  0  0  0  0  0  0  0
   -5.2652   -1.8649   -3.1410 C   0  0  0  0  0  0  0  0  0  0  0  0
   -4.9997   -2.9070   -4.0268 C   0  0  0  0  0  0  0  0  0  0  0  0
   -5.8894   -2.8913   -5.5495 S   0  0  0  0  0  0  0  0  0  0  0  0
   -5.0729   -4.1721   -6.5442 C   0  0  0  0  0  0  0  0  0  0  0  0
   -4.0886   -3.8922   -3.6704 C   0  0  0  0  0  0  0  0  0  0  0  0
   -3.4414   -3.8291   -2.4520 C   0  0  0  0  0  0  0  0  0  0  0  0
   -2.7406   -3.8352    0.4036 C   0  0  0  0  0  0  0  0  0  0  0  0
   -3.6140   -4.9264    0.3513 C   0  0  0  0  0  0  0  0  0  0  0  0
   -3.3392   -6.0745    1.0551 C   0  0  0  0  0  0  0  0  0  0  0  0
   -2.1787   -6.1689    1.8169 C   0  0  0  0  0  0  0  0  0  0  0  0
   -1.8824   -7.6857    2.6870 S   0  0  0  0  0  0  0  0  0  0  0  0
   -0.1063   -7.9424    2.3857 C   0  0  0  0  0  0  0  0  0  0  0  0
   -1.3151   -5.0864    1.8884 C   0  0  0  0  0  0  0  0  0  0  0  0
   -1.5975   -3.9239    1.1950 C   0  0  0  0  0  0  0  0  0  0  0  0
   -1.8811   -0.6874   -1.0682 C   0  0  0  0  0  0  0  0  0  0  0  0
   -1.5624   -1.0059   -2.7396 S   0  0  0  0  0  0  0  0  0  0  0  0
   -0.6752    0.4899   -2.8550 C   0  0  0  0  0  0  0  0  0  0  0  0
   -0.6765    1.2220   -1.6775 C   0  0  0  0  0  0  0  0  0  0  0  0
   -0.1709    2.5113   -1.6048 N   0  0  0  0  0  0  0  0  0  0  0  0
   -0.4056    3.3525   -2.7136 C   0  0  0  0  0  0  0  0  0  0  0  0
   -1.6766    3.4010   -3.2863 C   0  0  0  0  0  0  0  0  0  0  0  0
   -1.8963    4.1406   -4.4251 C   0  0  0  0  0  0  0  0  0  0  0  0
   -0.8517    4.8443   -5.0237 C   0  0  0  0  0  0  0  0  0  0  0  0
   -1.2470    5.7006   -6.5122 S   0  0  0  0  0  0  0  0  0  0  0  0
    0.3009    6.5065   -7.0013 C   0  0  0  0  0  0  0  0  0  0  0  0
    0.4061    4.8302   -4.4351 C   0  0  0  0  0  0  0  0  0  0  0  0
    0.6222    4.0972   -3.2821 C   0  0  0  0  0  0  0  0  0  0  0  0
    0.3869    2.9971   -0.4251 C   0  0  0  0  0  0  0  0  0  0  0  0
    0.3030    4.3519   -0.1011 C   0  0  0  0  0  0  0  0  0  0  0  0
    0.8202    4.8133    1.0889 C   0  0  0  0  0  0  0  0  0  0  0  0
    1.4122    3.9344    1.9901 C   0  0  0  0  0  0  0  0  0  0  0  0
    1.9464    4.5909    3.5471 S   0  0  0  0  0  0  0  0  0  0  0  0
    3.3817    3.5478    3.9472 C   0  0  0  0  0  0  0  0  0  0  0  0
    1.5231    2.5913    1.6622 C   0  0  0  0  0  0  0  0  0  0  0  0
    1.0337    2.1315    0.4565 C   0  0  0  0  0  0  0  0  0  0  0  0
   -1.3642    0.5284   -0.6559 C   0  0  0  0  0  0  0  0  0  0  0  0
   -1.6795    0.8184    1.0188 S   0  0  0  0  0  0  0  0  0  0  0  0
    0.0240    0.8961   -4.0417 C   0  0  0  0  0  0  0  0  0  0  0  0
    1.7346    1.1320   -3.9670 S   0  0  0  0  0  0  0  0  0  0  0  0
    1.7650    1.7486   -5.5962 C   0  0  0  0  0  0  0  0  0  0  0  0
    0.4838    1.7385   -6.1575 C   0  0  0  0  0  0  0  0  0  0  0  0
    0.1497    2.2612   -7.4930 C   0  0  0  0  0  0  0  0  0  0  0  0
    0.9897    2.5481   -8.3331 O   0  0  0  0  0  0  0  0  0  0  0  0
   -1.2851    2.4270   -7.7036 C   0  0  0  0  0  0  0  0  0  0  0  0
   -1.8331    3.1315   -8.7476 C   0  0  0  0  0  0  0  0  0  0  0  0
   -1.1485    3.8192   -9.8705 C   0  0  0  0  0  0  0  0  0  0  0  0
   -0.9288    2.8579  -11.0423 C   0  0  0  0  0  0  0  0  0  0  0  0
   -3.5585    3.1430   -8.6473 S   0  0  0  0  0  0  0  0  0  0  0  0
   -3.5565    2.1915   -7.2021 C   0  0  0  0  0  0  0  0  0  0  0  0
   -4.8341    1.7732   -6.5721 C   0  0  0  0  0  0  0  0  0  0  0  0
   -5.2312    0.3729   -7.0485 C   0  0  0  0  0  0  0  0  0  0  0  0
   -2.2746    1.8937   -6.8143 C   0  0  0  0  0  0  0  0  0  0  0  0
   -1.9305    1.1660   -5.5964 C   0  0  0  0  0  0  0  0  0  0  0  0
   -2.7417    0.6010   -4.8824 O   0  0  0  0  0  0  0  0  0  0  0  0
   -0.4946    1.2207   -5.2843 C   0  0  0  0  0  0  0  0  0  0  0  0
    2.9065    2.2725   -6.2359 C   0  0  0  0  0  0  0  0  0  0  0  0
    4.2205    2.1496   -5.8941 C   0  0  0  0  0  0  0  0  0  0  0  0
    4.7812    1.2508   -4.8692 C   0  0  0  0  0  0  0  0  0  0  0  0
    4.1960    0.7290   -3.9395 O   0  0  0  0  0  0  0  0  0  0  0  0
    6.2057    1.0946   -5.2127 C   0  0  0  0  0  0  0  0  0  0  0  0
    7.1254    0.2378   -4.6108 C   0  0  0  0  0  0  0  0  0  0  0  0
    8.3815    0.2877   -5.1659 C   0  0  0  0  0  0  0  0  0  0  0  0
    8.7046    1.1265   -6.2419 C   0  0  0  0  0  0  0  0  0  0  0  0
    7.8100    1.9807   -6.8422 C   0  0  0  0  0  0  0  0  0  0  0  0
    6.5255    1.9465   -6.2915 C   0  0  0  0  0  0  0  0  0  0  0  0
    5.3292    2.6960   -6.6558 C   0  0  0  0  0  0  0  0  0  0  0  0
    5.2658    3.7895   -7.4769 C   0  0  0  0  0  0  0  0  0  0  0  0
    6.3629    4.3082   -8.1948 C   0  0  0  0  0  0  0  0  0  0  0  0
    7.2203    4.7657   -8.8055 N   0  0  0  0  0  0  0  0  0  0  0  0
    4.1128    4.5892   -7.6229 C   0  0  0  0  0  0  0  0  0  0  0  0
    3.2349    5.3216   -7.7283 N   0  0  0  0  0  0  0  0  0  0  0  0
   10.1349    0.6497   -6.2874 C   0  0  0  0  0  0  0  0  0  0  0  0
   11.1972    1.5917   -5.6823 C   0  0  0  0  0  0  0  0  0  0  0  0
   12.3817    0.6864   -5.4315 C   0  0  0  0  0  0  0  0  0  0  0  0
   12.0760   -0.1053   -4.4115 C   0  0  0  0  0  0  0  0  0  0  0  0
   10.6793    0.2512   -3.9558 C   0  0  0  0  0  0  0  0  0  0  0  0
   10.6833    1.7575   -4.2463 C   0  0  0  0  0  0  0  0  0  0  0  0
    9.7750   -0.2833   -5.0867 C   0  0  0  0  0  0  0  0  0  0  0  0
   -3.9823   -1.7960    7.2743 H   0  0  0  0  0  0  0  0  0  0  0  0
   -4.6176   -6.4616    9.8626 H   0  0  0  0  0  0  0  0  0  0  0  0
   -2.0290   -7.5642    5.6437 H   0  0  0  0  0  0  0  0  0  0  0  0
   -2.1477  -10.2958    7.7529 H   0  0  0  0  0  0  0  0  0  0  0  0
   -3.6798  -11.1435    5.9831 H   0  0  0  0  0  0  0  0  0  0  0  0
   -5.3424   -9.1989    5.4506 H   0  0  0  0  0  0  0  0  0  0  0  0
   -6.7179   -8.6529    7.6572 H   0  0  0  0  0  0  0  0  0  0  0  0
   -5.8972  -10.2593    9.5522 H   0  0  0  0  0  0  0  0  0  0  0  0
   -4.1373  -12.0005    8.4953 H   0  0  0  0  0  0  0  0  0  0  0  0
   -5.6479  -11.9744    7.5512 H   0  0  0  0  0  0  0  0  0  0  0  0
   -3.4798   -9.7693    9.9016 H   0  0  0  0  0  0  0  0  0  0  0  0
   -1.3568    3.7095    6.2608 H   0  0  0  0  0  0  0  0  0  0  0  0
   -1.1855    6.0701    5.8500 H   0  0  0  0  0  0  0  0  0  0  0  0
   -1.5235    8.1055    5.2674 H   0  0  0  0  0  0  0  0  0  0  0  0
   -1.2725    9.1603    3.8617 H   0  0  0  0  0  0  0  0  0  0  0  0
    1.0104    8.2820    3.5465 H   0  0  0  0  0  0  0  0  0  0  0  0
    0.8028    7.1360    4.8656 H   0  0  0  0  0  0  0  0  0  0  0  0
    0.8345    8.8754    5.2031 H   0  0  0  0  0  0  0  0  0  0  0  0
   -2.0557    3.0150    2.0935 H   0  0  0  0  0  0  0  0  0  0  0  0
   -1.6500    0.5385    8.2597 H   0  0  0  0  0  0  0  0  0  0  0  0
   -0.0731    1.1349   10.0291 H   0  0  0  0  0  0  0  0  0  0  0  0
    1.1746    2.6254   11.3585 H   0  0  0  0  0  0  0  0  0  0  0  0
    2.0248    1.0805   11.0751 H   0  0  0  0  0  0  0  0  0  0  0  0
    3.3788    3.7788   11.5808 H   0  0  0  0  0  0  0  0  0  0  0  0
    4.2124    2.2475   11.3150 H   0  0  0  0  0  0  0  0  0  0  0  0
    3.2219    2.4719   12.7665 H   0  0  0  0  0  0  0  0  0  0  0  0
    0.8391    2.4559    5.3599 H   0  0  0  0  0  0  0  0  0  0  0  0
   -4.8425   -1.0044   -1.2354 H   0  0  0  0  0  0  0  0  0  0  0  0
   -5.9753   -1.1034   -3.4229 H   0  0  0  0  0  0  0  0  0  0  0  0
   -5.2700   -5.1562   -6.1289 H   0  0  0  0  0  0  0  0  0  0  0  0
   -4.0072   -3.9701   -6.5950 H   0  0  0  0  0  0  0  0  0  0  0  0
   -5.5117   -4.0980   -7.5344 H   0  0  0  0  0  0  0  0  0  0  0  0
   -3.8641   -4.7109   -4.3349 H   0  0  0  0  0  0  0  0  0  0  0  0
   -2.7183   -4.5873   -2.1905 H   0  0  0  0  0  0  0  0  0  0  0  0
   -4.5204   -4.8520   -0.2286 H   0  0  0  0  0  0  0  0  0  0  0  0
   -4.0195   -6.9112    1.0240 H   0  0  0  0  0  0  0  0  0  0  0  0
    0.1283   -7.6191    1.3768 H   0  0  0  0  0  0  0  0  0  0  0  0
    0.0682   -9.0083    2.4913 H   0  0  0  0  0  0  0  0  0  0  0  0
    0.4772   -7.3977    3.1238 H   0  0  0  0  0  0  0  0  0  0  0  0
   -0.4137   -5.1416    2.4799 H   0  0  0  0  0  0  0  0  0  0  0  0
   -0.9200   -3.0864    1.2681 H   0  0  0  0  0  0  0  0  0  0  0  0
   -2.4849    2.8423   -2.8396 H   0  0  0  0  0  0  0  0  0  0  0  0
   -2.8796    4.1829   -4.8683 H   0  0  0  0  0  0  0  0  0  0  0  0
    0.6166    7.1983   -6.2259 H   0  0  0  0  0  0  0  0  0  0  0  0
    0.0659    7.0555   -7.9079 H   0  0  0  0  0  0  0  0  0  0  0  0
    1.0683    5.7672   -7.2098 H   0  0  0  0  0  0  0  0  0  0  0  0
    1.2289    5.3728   -4.8727 H   0  0  0  0  0  0  0  0  0  0  0  0
    1.6023    4.0835   -2.8281 H   0  0  0  0  0  0  0  0  0  0  0  0
   -0.1866    5.0370   -0.7754 H   0  0  0  0  0  0  0  0  0  0  0  0
    0.7473    5.8600    1.3402 H   0  0  0  0  0  0  0  0  0  0  0  0
    4.0564    3.5295    3.0969 H   0  0  0  0  0  0  0  0  0  0  0  0
    3.0675    2.5442    4.2162 H   0  0  0  0  0  0  0  0  0  0  0  0
    3.8589    4.0150    4.8022 H   0  0  0  0  0  0  0  0  0  0  0  0
    1.9912    1.8924    2.3374 H   0  0  0  0  0  0  0  0  0  0  0  0
    1.1540    1.0913    0.1956 H   0  0  0  0  0  0  0  0  0  0  0  0
   -0.1772    4.1778   -9.5253 H   0  0  0  0  0  0  0  0  0  0  0  0
   -1.7514    4.6681  -10.1982 H   0  0  0  0  0  0  0  0  0  0  0  0
   -0.2842    2.0398  -10.7318 H   0  0  0  0  0  0  0  0  0  0  0  0
   -1.8774    2.4513  -11.3872 H   0  0  0  0  0  0  0  0  0  0  0  0
   -0.4517    3.3821  -11.8655 H   0  0  0  0  0  0  0  0  0  0  0  0
   -5.6203    2.4872   -6.8243 H   0  0  0  0  0  0  0  0  0  0  0  0
   -4.7003    1.7448   -5.4888 H   0  0  0  0  0  0  0  0  0  0  0  0
   -5.3285    0.3498   -8.1318 H   0  0  0  0  0  0  0  0  0  0  0  0
   -6.1787    0.0813   -6.6049 H   0  0  0  0  0  0  0  0  0  0  0  0
   -4.4762   -0.3459   -6.7430 H   0  0  0  0  0  0  0  0  0  0  0  0
    2.6780    2.7809   -7.1672 H   0  0  0  0  0  0  0  0  0  0  0  0
    6.8359   -0.3980   -3.7890 H   0  0  0  0  0  0  0  0  0  0  0  0
    8.0645    2.6136   -7.6764 H   0  0  0  0  0  0  0  0  0  0  0  0
   10.4527    0.1952   -7.2238 H   0  0  0  0  0  0  0  0  0  0  0  0
   11.3839    2.4951   -6.2562 H   0  0  0  0  0  0  0  0  0  0  0  0
   13.2689    0.6776   -6.0369 H   0  0  0  0  0  0  0  0  0  0  0  0
   12.6564   -0.9074   -3.9947 H   0  0  0  0  0  0  0  0  0  0  0  0
   10.3944   -0.0663   -2.9564 H   0  0  0  0  0  0  0  0  0  0  0  0
    9.7033    2.2260   -4.1768 H   0  0  0  0  0  0  0  0  0  0  0  0
   11.3896    2.2958   -3.6165 H   0  0  0  0  0  0  0  0  0  0  0  0
    9.8542   -1.3605   -5.2216 H   0  0  0  0  0  0  0  0  0  0  0  0
  1  2  2  0  0  0  0
  2  3  1  0  0  0  0
  3  4  2  0  0  0  0
  3  5  1  0  0  0  0
  5  6  2  0  0  0  0
  6  7  1  0  0  0  0
  7  8  2  0  0  0  0
  8  9  1  0  0  0  0
  9 10  2  0  0  0  0
 10 11  1  0  0  0  0
 11 12  2  0  0  0  0
 12 13  1  0  0  0  0
 13 14  3  0  0  0  0
 12 15  1  0  0  0  0
 15 16  3  0  0  0  0
  8 17  1  0  0  0  0
 17 18  1  0  0  0  0
 18 19  1  0  0  0  0
 19 20  2  0  0  0  0
 20 21  1  0  0  0  0
 21 22  1  0  0  0  0
 21 23  1  0  0  0  0
  1 24  1  0  0  0  0
 24 25  2  0  0  0  0
 25 26  1  0  0  0  0
 25 27  1  0  0  0  0
 27 28  1  0  0  0  0
 27 29  2  0  0  0  0
 29 30  1  0  0  0  0
 30 31  2  0  0  0  0
 31 32  1  0  0  0  0
 32 33  1  0  0  0  0
 33 34  2  0  0  0  0
 34 35  1  0  0  0  0
 35 36  2  0  0  0  0
 36 37  1  0  0  0  0
 37 38  1  0  0  0  0
 38 39  1  0  0  0  0
 36 40  1  0  0  0  0
 40 41  2  0  0  0  0
 40 42  1  0  0  0  0
 32 43  2  0  0  0  0
 43 44  1  0  0  0  0
 44 45  2  0  0  0  0
 43 46  1  0  0  0  0
 46 47  2  0  0  0  0
 47 48  1  0  0  0  0
 48 49  2  0  0  0  0
 49 50  1  0  0  0  0
 50 51  1  0  0  0  0
 51 52  1  0  0  0  0
 49 53  1  0  0  0  0
 53 54  1  0  0  0  0
 53 55  2  0  0  0  0
 29 56  1  0  0  0  0
 56 57  2  0  0  0  0
 57 58  1  0  0  0  0
 58 59  1  0  0  0  0
 59 60  2  0  0  0  0
 60 61  1  0  0  0  0
 61 62  2  0  0  0  0
 62 63  1  0  0  0  0
 63 64  1  0  0  0  0
 62 65  1  0  0  0  0
 65 66  2  0  0  0  0
 58 67  1  0  0  0  0
 67 68  2  0  0  0  0
 68 69  1  0  0  0  0
 69 70  2  0  0  0  0
 70 71  1  0  0  0  0
 71 72  1  0  0  0  0
 70 73  1  0  0  0  0
 73 74  2  0  0  0  0
 57 75  1  0  0  0  0
 75 76  1  0  0  0  0
 76 77  1  0  0  0  0
 77 78  2  0  0  0  0
 78 79  1  0  0  0  0
 79 80  1  0  0  0  0
 80 81  2  0  0  0  0
 81 82  1  0  0  0  0
 82 83  2  0  0  0  0
 83 84  1  0  0  0  0
 84 85  1  0  0  0  0
 83 86  1  0  0  0  0
 86 87  2  0  0  0  0
 79 88  1  0  0  0  0
 88 89  2  0  0  0  0
 89 90  1  0  0  0  0
 90 91  2  0  0  0  0
 91 92  1  0  0  0  0
 92 93  1  0  0  0  0
 91 94  1  0  0  0  0
 94 95  2  0  0  0  0
 78 96  1  0  0  0  0
 96 97  1  0  0  0  0
 77 98  1  0  0  0  0
 98 99  1  0  0  0  0
 99100  1  0  0  0  0
100101  2  0  0  0  0
101102  1  0  0  0  0
102103  2  0  0  0  0
102104  1  0  0  0  0
104105  2  0  0  0  0
105106  1  0  0  0  0
106107  1  0  0  0  0
105108  1  0  0  0  0
108109  1  0  0  0  0
109110  1  0  0  0  0
110111  1  0  0  0  0
109112  2  0  0  0  0
112113  1  0  0  0  0
113114  2  0  0  0  0
113115  1  0  0  0  0
100116  1  0  0  0  0
116117  2  0  0  0  0
117118  1  0  0  0  0
118119  2  0  0  0  0
118120  1  0  0  0  0
120121  2  0  0  0  0
121122  1  0  0  0  0
122123  2  0  0  0  0
123124  1  0  0  0  0
124125  2  0  0  0  0
125126  1  0  0  0  0
126127  2  0  0  0  0
127128  1  0  0  0  0
128129  3  0  0  0  0
127130  1  0  0  0  0
130131  3  0  0  0  0
123132  1  0  0  0  0
132133  1  0  0  0  0
133134  1  0  0  0  0
134135  2  0  0  0  0
135136  1  0  0  0  0
136137  1  0  0  0  0
136138  1  0  0  0  0
 11  2  1  0  0  0  0
 23 17  1  0  0  0  0
 45 24  1  0  0  0  0
 55 46  1  0  0  0  0
 97 56  1  0  0  0  0
115 98  2  0  0  0  0
126117  1  0  0  0  0
138132  1  0  0  0  0
 10  5  1  0  0  0  0
 22 18  1  0  0  0  0
 45 30  1  0  0  0  0
 66 59  1  0  0  0  0
 74 67  1  0  0  0  0
 96 75  2  0  0  0  0
115101  1  0  0  0  0
125120  1  0  0  0  0
137133  1  0  0  0  0
 23  7  1  0  0  0  0
 41 33  1  0  0  0  0
 87 80  1  0  0  0  0
 95 88  1  0  0  0  0
112104  1  0  0  0  0
138122  1  0  0  0  0
  1139  1  0  0  0  0
  6140  1  0  0  0  0
  9141  1  0  0  0  0
 17142  1  0  0  0  0
 18143  1  0  0  0  0
 19144  1  0  0  0  0
 20145  1  0  0  0  0
 21146  1  0  0  0  0
 22147  1  0  0  0  0
 22148  1  0  0  0  0
 23149  1  0  0  0  0
 34150  1  0  0  0  0
 35151  1  0  0  0  0
 38152  1  0  0  0  0
 38153  1  0  0  0  0
 39154  1  0  0  0  0
 39155  1  0  0  0  0
 39156  1  0  0  0  0
 41157  1  0  0  0  0
 47158  1  0  0  0  0
 48159  1  0  0  0  0
 51160  1  0  0  0  0
 51161  1  0  0  0  0
 52162  1  0  0  0  0
 52163  1  0  0  0  0
 52164  1  0  0  0  0
 55165  1  0  0  0  0
 60166  1  0  0  0  0
 61167  1  0  0  0  0
 64168  1  0  0  0  0
 64169  1  0  0  0  0
 64170  1  0  0  0  0
 65171  1  0  0  0  0
 66172  1  0  0  0  0
 68173  1  0  0  0  0
 69174  1  0  0  0  0
 72175  1  0  0  0  0
 72176  1  0  0  0  0
 72177  1  0  0  0  0
 73178  1  0  0  0  0
 74179  1  0  0  0  0
 81180  1  0  0  0  0
 82181  1  0  0  0  0
 85182  1  0  0  0  0
 85183  1  0  0  0  0
 85184  1  0  0  0  0
 86185  1  0  0  0  0
 87186  1  0  0  0  0
 89187  1  0  0  0  0
 90188  1  0  0  0  0
 93189  1  0  0  0  0
 93190  1  0  0  0  0
 93191  1  0  0  0  0
 94192  1  0  0  0  0
 95193  1  0  0  0  0
106194  1  0  0  0  0
106195  1  0  0  0  0
107196  1  0  0  0  0
107197  1  0  0  0  0
107198  1  0  0  0  0
110199  1  0  0  0  0
110200  1  0  0  0  0
111201  1  0  0  0  0
111202  1  0  0  0  0
111203  1  0  0  0  0
116204  1  0  0  0  0
121205  1  0  0  0  0
124206  1  0  0  0  0
132207  1  0  0  0  0
133208  1  0  0  0  0
134209  1  0  0  0  0
135210  1  0  0  0  0
136211  1  0  0  0  0
137212  1  0  0  0  0
137213  1  0  0  0  0
138214  1  0  0  0  0
M  END
