
  xtb     02072214403D
 energy: -362.686787124175 gnorm: 0.000417127515 xtb: 6.4.1 (unknown)
214236  0     0  0            999 V2000
    4.2056   -6.4889    0.6344 C   0  0  0  0  0  0  0  0  0  0  0  0
    3.9697   -7.5166    1.4844 C   0  0  0  0  0  0  0  0  0  0  0  0
    2.9470   -7.4977    2.5697 C   0  0  0  0  0  0  0  0  0  0  0  0
    2.2111   -6.5851    2.8703 O   0  0  0  0  0  0  0  0  0  0  0  0
    3.1173   -8.7684    3.2965 C   0  0  0  0  0  0  0  0  0  0  0  0
    2.3697   -9.2079    4.3874 C   0  0  0  0  0  0  0  0  0  0  0  0
    2.7594  -10.4309    4.8767 C   0  0  0  0  0  0  0  0  0  0  0  0
    3.8254  -11.1598    4.3304 C   0  0  0  0  0  0  0  0  0  0  0  0
    4.5770  -10.7345    3.2622 C   0  0  0  0  0  0  0  0  0  0  0  0
    4.1912   -9.4938    2.7408 C   0  0  0  0  0  0  0  0  0  0  0  0
    4.7492   -8.7347    1.6270 C   0  0  0  0  0  0  0  0  0  0  0  0
    5.7972   -9.1251    0.8356 C   0  0  0  0  0  0  0  0  0  0  0  0
    6.3233   -8.3960   -0.2506 C   0  0  0  0  0  0  0  0  0  0  0  0
    6.8261   -7.8815   -1.1463 N   0  0  0  0  0  0  0  0  0  0  0  0
    6.5207  -10.3258    0.9984 C   0  0  0  0  0  0  0  0  0  0  0  0
    7.1586  -11.2779    1.0711 N   0  0  0  0  0  0  0  0  0  0  0  0
    3.6604  -12.2914    5.3141 C   0  0  0  0  0  0  0  0  0  0  0  0
    2.9711  -13.5675    4.7865 C   0  0  0  0  0  0  0  0  0  0  0  0
    2.5214  -14.2807    6.0412 C   0  0  0  0  0  0  0  0  0  0  0  0
    1.5108  -13.5922    6.5564 C   0  0  0  0  0  0  0  0  0  0  0  0
    1.2604  -12.4021    5.6585 C   0  0  0  0  0  0  0  0  0  0  0  0
    1.6250  -13.0150    4.3002 C   0  0  0  0  0  0  0  0  0  0  0  0
    2.4707  -11.4804    5.9209 C   0  0  0  0  0  0  0  0  0  0  0  0
    3.3365   -5.3639    0.4188 C   0  0  0  0  0  0  0  0  0  0  0  0
    1.9538   -5.4515    0.3236 C   0  0  0  0  0  0  0  0  0  0  0  0
    1.3459   -6.6412    0.3997 F   0  0  0  0  0  0  0  0  0  0  0  0
    1.1565   -4.3421    0.0387 C   0  0  0  0  0  0  0  0  0  0  0  0
   -0.1794   -4.5074    0.0362 F   0  0  0  0  0  0  0  0  0  0  0  0
    1.6938   -3.0840   -0.2066 C   0  0  0  0  0  0  0  0  0  0  0  0
    3.0978   -2.9473   -0.0189 C   0  0  0  0  0  0  0  0  0  0  0  0
    3.6376   -1.7269   -0.0815 N   0  0  0  0  0  0  0  0  0  0  0  0
    4.9357   -1.5786    0.0557 C   0  0  0  0  0  0  0  0  0  0  0  0
    5.4301   -0.1991    0.0876 C   0  0  0  0  0  0  0  0  0  0  0  0
    6.3755    0.2180    1.0162 C   0  0  0  0  0  0  0  0  0  0  0  0
    6.7878    1.5388    1.0107 C   0  0  0  0  0  0  0  0  0  0  0  0
    6.2827    2.4322    0.0872 C   0  0  0  0  0  0  0  0  0  0  0  0
    5.3326    2.0200   -0.8511 C   0  0  0  0  0  0  0  0  0  0  0  0
    4.9236    2.9640   -1.7392 O   0  0  0  0  0  0  0  0  0  0  0  0
    4.2064    2.5643   -2.8924 C   0  0  0  0  0  0  0  0  0  0  0  0
    2.6994    2.4742   -2.6726 C   0  0  0  0  0  0  0  0  0  0  0  0
    4.8974    0.7028   -0.8296 C   0  0  0  0  0  0  0  0  0  0  0  0
    5.7741   -2.7326    0.1552 C   0  0  0  0  0  0  0  0  0  0  0  0
    5.2461   -3.9315    0.2739 N   0  0  0  0  0  0  0  0  0  0  0  0
    3.9136   -4.0758    0.2322 C   0  0  0  0  0  0  0  0  0  0  0  0
    7.2376   -2.6744    0.0978 C   0  0  0  0  0  0  0  0  0  0  0  0
    7.9801   -3.5542    0.8855 C   0  0  0  0  0  0  0  0  0  0  0  0
    9.3574   -3.5188    0.8321 C   0  0  0  0  0  0  0  0  0  0  0  0
   10.0171   -2.6370   -0.0092 C   0  0  0  0  0  0  0  0  0  0  0  0
    9.2847   -1.7748   -0.8207 C   0  0  0  0  0  0  0  0  0  0  0  0
    9.8047   -0.8664   -1.6878 O   0  0  0  0  0  0  0  0  0  0  0  0
   11.1985   -0.8361   -1.9272 C   0  0  0  0  0  0  0  0  0  0  0  0
   11.6683   -1.9821   -2.8185 C   0  0  0  0  0  0  0  0  0  0  0  0
    7.8921   -1.7992   -0.7566 C   0  0  0  0  0  0  0  0  0  0  0  0
    0.9249   -1.9506   -0.6097 C   0  0  0  0  0  0  0  0  0  0  0  0
   -0.2226   -1.9283   -1.4047 C   0  0  0  0  0  0  0  0  0  0  0  0
   -0.6274   -2.9737   -2.2041 N   0  0  0  0  0  0  0  0  0  0  0  0
   -1.9784   -3.1509   -2.5185 C   0  0  0  0  0  0  0  0  0  0  0  0
   -2.9693   -2.8719   -1.5764 C   0  0  0  0  0  0  0  0  0  0  0  0
   -4.2966   -3.0297   -1.9037 C   0  0  0  0  0  0  0  0  0  0  0  0
   -4.6657   -3.4777   -3.1710 C   0  0  0  0  0  0  0  0  0  0  0  0
   -6.3967   -3.6337   -3.4723 S   0  0  0  0  0  0  0  0  0  0  0  0
   -6.4939   -4.2688   -5.1704 C   0  0  0  0  0  0  0  0  0  0  0  0
   -3.6806   -3.7754   -4.1038 C   0  0  0  0  0  0  0  0  0  0  0  0
   -2.3490   -3.6104   -3.7788 C   0  0  0  0  0  0  0  0  0  0  0  0
    0.3435   -3.8799   -2.6720 C   0  0  0  0  0  0  0  0  0  0  0  0
    0.1086   -5.2544   -2.6540 C   0  0  0  0  0  0  0  0  0  0  0  0
    1.1384   -6.1352   -2.9043 C   0  0  0  0  0  0  0  0  0  0  0  0
    2.4214   -5.6661   -3.1796 C   0  0  0  0  0  0  0  0  0  0  0  0
    3.7120   -6.8617   -3.2977 S   0  0  0  0  0  0  0  0  0  0  0  0
    5.2213   -5.8690   -3.1205 C   0  0  0  0  0  0  0  0  0  0  0  0
    2.6261   -4.2983   -3.3236 C   0  0  0  0  0  0  0  0  0  0  0  0
    1.5934   -3.4173   -3.0789 C   0  0  0  0  0  0  0  0  0  0  0  0
   -0.7963   -0.6341   -1.3976 C   0  0  0  0  0  0  0  0  0  0  0  0
   -2.2286    0.0500   -2.0815 S   0  0  0  0  0  0  0  0  0  0  0  0
   -1.8607    1.6011   -1.3318 C   0  0  0  0  0  0  0  0  0  0  0  0
   -0.6118    1.6076   -0.7012 C   0  0  0  0  0  0  0  0  0  0  0  0
    0.0314    2.7241   -0.2310 N   0  0  0  0  0  0  0  0  0  0  0  0
    1.0097    2.6121    0.7720 C   0  0  0  0  0  0  0  0  0  0  0  0
    0.8291    1.7484    1.8519 C   0  0  0  0  0  0  0  0  0  0  0  0
    1.8219    1.6070    2.7961 C   0  0  0  0  0  0  0  0  0  0  0  0
    3.0094    2.3269    2.6866 C   0  0  0  0  0  0  0  0  0  0  0  0
    4.2386    2.0327    3.9173 S   0  0  0  0  0  0  0  0  0  0  0  0
    5.3373    3.4720    3.7673 C   0  0  0  0  0  0  0  0  0  0  0  0
    3.1738    3.2193    1.6361 C   0  0  0  0  0  0  0  0  0  0  0  0
    2.1787    3.3628    0.6906 C   0  0  0  0  0  0  0  0  0  0  0  0
   -0.2556    3.9895   -0.7658 C   0  0  0  0  0  0  0  0  0  0  0  0
   -0.3914    5.0967    0.0671 C   0  0  0  0  0  0  0  0  0  0  0  0
   -0.7431    6.3311   -0.4494 C   0  0  0  0  0  0  0  0  0  0  0  0
   -0.9545    6.4833   -1.8131 C   0  0  0  0  0  0  0  0  0  0  0  0
   -1.3833    8.0004   -2.5931 S   0  0  0  0  0  0  0  0  0  0  0  0
   -2.0390    9.0174   -1.2422 C   0  0  0  0  0  0  0  0  0  0  0  0
   -0.7739    5.3840   -2.6557 C   0  0  0  0  0  0  0  0  0  0  0  0
   -0.4311    4.1564   -2.1421 C   0  0  0  0  0  0  0  0  0  0  0  0
   -0.0480    0.3082   -0.7037 C   0  0  0  0  0  0  0  0  0  0  0  0
    1.4334   -0.3594   -0.0931 S   0  0  0  0  0  0  0  0  0  0  0  0
   -2.8057    2.6503   -1.4226 C   0  0  0  0  0  0  0  0  0  0  0  0
   -3.7699    2.8688   -2.8504 S   0  0  0  0  0  0  0  0  0  0  0  0
   -4.5071    4.3166   -2.2043 C   0  0  0  0  0  0  0  0  0  0  0  0
   -3.9839    4.6163   -0.9590 C   0  0  0  0  0  0  0  0  0  0  0  0
   -4.1830    5.8989   -0.2563 C   0  0  0  0  0  0  0  0  0  0  0  0
   -4.4505    6.9352   -0.8404 O   0  0  0  0  0  0  0  0  0  0  0  0
   -3.8473    5.8295    1.1664 C   0  0  0  0  0  0  0  0  0  0  0  0
   -4.1600    6.7856    2.0953 C   0  0  0  0  0  0  0  0  0  0  0  0
   -4.9467    8.0365    1.9298 C   0  0  0  0  0  0  0  0  0  0  0  0
   -4.1286    9.2735    2.3024 C   0  0  0  0  0  0  0  0  0  0  0  0
   -3.5278    6.3596    3.6537 S   0  0  0  0  0  0  0  0  0  0  0  0
   -2.8281    4.8954    3.0499 C   0  0  0  0  0  0  0  0  0  0  0  0
   -2.0728    3.9991    3.9644 C   0  0  0  0  0  0  0  0  0  0  0  0
   -2.9669    2.8699    4.4836 C   0  0  0  0  0  0  0  0  0  0  0  0
   -3.1030    4.7354    1.7165 C   0  0  0  0  0  0  0  0  0  0  0  0
   -2.6535    3.5942    0.9173 C   0  0  0  0  0  0  0  0  0  0  0  0
   -2.0559    2.6398    1.3932 O   0  0  0  0  0  0  0  0  0  0  0  0
   -3.0736    3.6491   -0.4835 C   0  0  0  0  0  0  0  0  0  0  0  0
   -5.5246    4.9669   -2.9416 C   0  0  0  0  0  0  0  0  0  0  0  0
   -6.5683    5.6729   -2.4209 C   0  0  0  0  0  0  0  0  0  0  0  0
   -7.0253    5.6344   -1.0107 C   0  0  0  0  0  0  0  0  0  0  0  0
   -6.4549    5.1783   -0.0376 O   0  0  0  0  0  0  0  0  0  0  0  0
   -8.3776    6.2148   -1.0155 C   0  0  0  0  0  0  0  0  0  0  0  0
   -9.2368    6.3257    0.0761 C   0  0  0  0  0  0  0  0  0  0  0  0
  -10.4372    6.9258   -0.2161 C   0  0  0  0  0  0  0  0  0  0  0  0
  -10.7667    7.3723   -1.5035 C   0  0  0  0  0  0  0  0  0  0  0  0
   -9.9304    7.2657   -2.5893 C   0  0  0  0  0  0  0  0  0  0  0  0
   -8.6981    6.6678   -2.3113 C   0  0  0  0  0  0  0  0  0  0  0  0
   -7.5678    6.3891   -3.1911 C   0  0  0  0  0  0  0  0  0  0  0  0
   -7.4386    6.8030   -4.4900 C   0  0  0  0  0  0  0  0  0  0  0  0
   -6.3072    6.5754   -5.3034 C   0  0  0  0  0  0  0  0  0  0  0  0
   -5.4294    6.4377   -6.0304 N   0  0  0  0  0  0  0  0  0  0  0  0
   -8.4130    7.5457   -5.1887 C   0  0  0  0  0  0  0  0  0  0  0  0
   -9.1648    8.1484   -5.8132 N   0  0  0  0  0  0  0  0  0  0  0  0
  -12.1211    7.8731   -1.0692 C   0  0  0  0  0  0  0  0  0  0  0  0
  -12.2939    9.4000   -0.8753 C   0  0  0  0  0  0  0  0  0  0  0  0
  -10.9279    9.9459   -0.5408 C   0  0  0  0  0  0  0  0  0  0  0  0
  -10.6128    9.5285    0.6780 C   0  0  0  0  0  0  0  0  0  0  0  0
  -11.7600    8.6927    1.1897 C   0  0  0  0  0  0  0  0  0  0  0  0
  -12.9403    9.4135    0.5191 C   0  0  0  0  0  0  0  0  0  0  0  0
  -11.7519    7.3809    0.3658 C   0  0  0  0  0  0  0  0  0  0  0  0
    5.1369   -6.4432    0.0854 H   0  0  0  0  0  0  0  0  0  0  0  0
    1.5621   -8.6101    4.7798 H   0  0  0  0  0  0  0  0  0  0  0  0
    5.3991  -11.3028    2.8607 H   0  0  0  0  0  0  0  0  0  0  0  0
    4.5226  -12.5023    5.9438 H   0  0  0  0  0  0  0  0  0  0  0  0
    3.5616  -14.1444    4.0800 H   0  0  0  0  0  0  0  0  0  0  0  0
    3.0046  -15.1525    6.4417 H   0  0  0  0  0  0  0  0  0  0  0  0
    0.9813  -13.7741    7.4733 H   0  0  0  0  0  0  0  0  0  0  0  0
    0.2916  -11.9178    5.7464 H   0  0  0  0  0  0  0  0  0  0  0  0
    0.9368  -13.8066    4.0083 H   0  0  0  0  0  0  0  0  0  0  0  0
    1.7077  -12.2892    3.4935 H   0  0  0  0  0  0  0  0  0  0  0  0
    2.5380  -11.1512    6.9563 H   0  0  0  0  0  0  0  0  0  0  0  0
    6.7699   -0.4764    1.7414 H   0  0  0  0  0  0  0  0  0  0  0  0
    7.5270    1.8676    1.7266 H   0  0  0  0  0  0  0  0  0  0  0  0
    6.6179    3.4579    0.0579 H   0  0  0  0  0  0  0  0  0  0  0  0
    4.6004    1.6118   -3.2672 H   0  0  0  0  0  0  0  0  0  0  0  0
    4.4216    3.3404   -3.6337 H   0  0  0  0  0  0  0  0  0  0  0  0
    2.4639    1.8070   -1.8468 H   0  0  0  0  0  0  0  0  0  0  0  0
    2.2973    3.4585   -2.4482 H   0  0  0  0  0  0  0  0  0  0  0  0
    2.2251    2.1030   -3.5779 H   0  0  0  0  0  0  0  0  0  0  0  0
    4.1546    0.3366   -1.5186 H   0  0  0  0  0  0  0  0  0  0  0  0
    7.4634   -4.2446    1.5326 H   0  0  0  0  0  0  0  0  0  0  0  0
    9.9369   -4.1899    1.4486 H   0  0  0  0  0  0  0  0  0  0  0  0
   11.0953   -2.6377   -0.0225 H   0  0  0  0  0  0  0  0  0  0  0  0
   11.7543   -0.8218   -0.9816 H   0  0  0  0  0  0  0  0  0  0  0  0
   11.3621    0.1190   -2.4342 H   0  0  0  0  0  0  0  0  0  0  0  0
   12.7321   -1.8811   -3.0144 H   0  0  0  0  0  0  0  0  0  0  0  0
   11.4854   -2.9442   -2.3463 H   0  0  0  0  0  0  0  0  0  0  0  0
   11.1311   -1.9574   -3.7632 H   0  0  0  0  0  0  0  0  0  0  0  0
    7.3443   -1.1317   -1.4026 H   0  0  0  0  0  0  0  0  0  0  0  0
   -2.6891   -2.5545   -0.5840 H   0  0  0  0  0  0  0  0  0  0  0  0
   -5.0662   -2.8162   -1.1782 H   0  0  0  0  0  0  0  0  0  0  0  0
   -7.5530   -4.3896   -5.3760 H   0  0  0  0  0  0  0  0  0  0  0  0
   -5.9942   -5.2308   -5.2366 H   0  0  0  0  0  0  0  0  0  0  0  0
   -6.0645   -3.5498   -5.8620 H   0  0  0  0  0  0  0  0  0  0  0  0
   -3.9337   -4.1289   -5.0901 H   0  0  0  0  0  0  0  0  0  0  0  0
   -1.5865   -3.8348   -4.5102 H   0  0  0  0  0  0  0  0  0  0  0  0
   -0.8677   -5.6245   -2.3807 H   0  0  0  0  0  0  0  0  0  0  0  0
    0.9710   -7.1990   -2.8410 H   0  0  0  0  0  0  0  0  0  0  0  0
    5.1066   -5.1737   -2.2941 H   0  0  0  0  0  0  0  0  0  0  0  0
    6.0115   -6.5784   -2.8919 H   0  0  0  0  0  0  0  0  0  0  0  0
    5.4424   -5.3485   -4.0480 H   0  0  0  0  0  0  0  0  0  0  0  0
    3.5886   -3.9104   -3.6166 H   0  0  0  0  0  0  0  0  0  0  0  0
    1.7680   -2.3549   -3.1667 H   0  0  0  0  0  0  0  0  0  0  0  0
   -0.1051    1.2194    1.9519 H   0  0  0  0  0  0  0  0  0  0  0  0
    1.6883    0.9375    3.6316 H   0  0  0  0  0  0  0  0  0  0  0  0
    4.7497    4.3834    3.8214 H   0  0  0  0  0  0  0  0  0  0  0  0
    5.8999    3.4178    2.8406 H   0  0  0  0  0  0  0  0  0  0  0  0
    6.0133    3.4154    4.6147 H   0  0  0  0  0  0  0  0  0  0  0  0
    4.0780    3.7952    1.5291 H   0  0  0  0  0  0  0  0  0  0  0  0
    2.3198    4.0559   -0.1246 H   0  0  0  0  0  0  0  0  0  0  0  0
   -0.2192    4.9874    1.1277 H   0  0  0  0  0  0  0  0  0  0  0  0
   -0.8547    7.1655    0.2245 H   0  0  0  0  0  0  0  0  0  0  0  0
   -1.2553    9.2565   -0.5290 H   0  0  0  0  0  0  0  0  0  0  0  0
   -2.8689    8.4903   -0.7810 H   0  0  0  0  0  0  0  0  0  0  0  0
   -2.3969    9.9278   -1.7128 H   0  0  0  0  0  0  0  0  0  0  0  0
   -0.9115    5.5134   -3.7181 H   0  0  0  0  0  0  0  0  0  0  0  0
   -0.3045    3.3125   -2.8035 H   0  0  0  0  0  0  0  0  0  0  0  0
   -5.8318    7.9881    2.5711 H   0  0  0  0  0  0  0  0  0  0  0  0
   -5.2750    8.1022    0.8918 H   0  0  0  0  0  0  0  0  0  0  0  0
   -3.8084    9.2186    3.3411 H   0  0  0  0  0  0  0  0  0  0  0  0
   -4.7275   10.1705    2.1691 H   0  0  0  0  0  0  0  0  0  0  0  0
   -3.2472    9.3512    1.6701 H   0  0  0  0  0  0  0  0  0  0  0  0
   -1.6859    4.5785    4.8054 H   0  0  0  0  0  0  0  0  0  0  0  0
   -1.2370    3.5559    3.4177 H   0  0  0  0  0  0  0  0  0  0  0  0
   -3.8328    3.2744    5.0033 H   0  0  0  0  0  0  0  0  0  0  0  0
   -3.3061    2.2591    3.6515 H   0  0  0  0  0  0  0  0  0  0  0  0
   -2.4063    2.2418    5.1705 H   0  0  0  0  0  0  0  0  0  0  0  0
   -5.4844    4.8191   -4.0141 H   0  0  0  0  0  0  0  0  0  0  0  0
   -8.9452    5.9613    1.0488 H   0  0  0  0  0  0  0  0  0  0  0  0
  -10.2008    7.6071   -3.5747 H   0  0  0  0  0  0  0  0  0  0  0  0
  -12.9784    7.4169   -1.5600 H   0  0  0  0  0  0  0  0  0  0  0  0
  -12.8266    9.8994   -1.6800 H   0  0  0  0  0  0  0  0  0  0  0  0
  -10.3256   10.5129   -1.2262 H   0  0  0  0  0  0  0  0  0  0  0  0
   -9.6937    9.6772    1.2142 H   0  0  0  0  0  0  0  0  0  0  0  0
  -11.8074    8.5492    2.2661 H   0  0  0  0  0  0  0  0  0  0  0  0
  -13.0915   10.4211    0.9033 H   0  0  0  0  0  0  0  0  0  0  0  0
  -13.8746    8.8562    0.5700 H   0  0  0  0  0  0  0  0  0  0  0  0
  -12.3700    6.6055    0.8145 H   0  0  0  0  0  0  0  0  0  0  0  0
  1  2  2  0  0  0  0
  2  3  1  0  0  0  0
  3  4  2  0  0  0  0
  3  5  1  0  0  0  0
  5  6  2  0  0  0  0
  6  7  1  0  0  0  0
  7  8  2  0  0  0  0
  8  9  1  0  0  0  0
  9 10  2  0  0  0  0
 10 11  1  0  0  0  0
 11 12  2  0  0  0  0
 12 13  1  0  0  0  0
 13 14  3  0  0  0  0
 12 15  1  0  0  0  0
 15 16  3  0  0  0  0
  8 17  1  0  0  0  0
 17 18  1  0  0  0  0
 18 19  1  0  0  0  0
 19 20  2  0  0  0  0
 20 21  1  0  0  0  0
 21 22  1  0  0  0  0
 21 23  1  0  0  0  0
  1 24  1  0  0  0  0
 24 25  2  0  0  0  0
 25 26  1  0  0  0  0
 25 27  1  0  0  0  0
 27 28  1  0  0  0  0
 27 29  2  0  0  0  0
 29 30  1  0  0  0  0
 30 31  2  0  0  0  0
 31 32  1  0  0  0  0
 32 33  1  0  0  0  0
 33 34  2  0  0  0  0
 34 35  1  0  0  0  0
 35 36  2  0  0  0  0
 36 37  1  0  0  0  0
 37 38  1  0  0  0  0
 38 39  1  0  0  0  0
 39 40  1  0  0  0  0
 37 41  2  0  0  0  0
 32 42  2  0  0  0  0
 42 43  1  0  0  0  0
 43 44  2  0  0  0  0
 42 45  1  0  0  0  0
 45 46  2  0  0  0  0
 46 47  1  0  0  0  0
 47 48  2  0  0  0  0
 48 49  1  0  0  0  0
 49 50  1  0  0  0  0
 50 51  1  0  0  0  0
 51 52  1  0  0  0  0
 49 53  2  0  0  0  0
 29 54  1  0  0  0  0
 54 55  2  0  0  0  0
 55 56  1  0  0  0  0
 56 57  1  0  0  0  0
 57 58  2  0  0  0  0
 58 59  1  0  0  0  0
 59 60  2  0  0  0  0
 60 61  1  0  0  0  0
 61 62  1  0  0  0  0
 60 63  1  0  0  0  0
 63 64  2  0  0  0  0
 56 65  1  0  0  0  0
 65 66  2  0  0  0  0
 66 67  1  0  0  0  0
 67 68  2  0  0  0  0
 68 69  1  0  0  0  0
 69 70  1  0  0  0  0
 68 71  1  0  0  0  0
 71 72  2  0  0  0  0
 55 73  1  0  0  0  0
 73 74  1  0  0  0  0
 74 75  1  0  0  0  0
 75 76  2  0  0  0  0
 76 77  1  0  0  0  0
 77 78  1  0  0  0  0
 78 79  2  0  0  0  0
 79 80  1  0  0  0  0
 80 81  2  0  0  0  0
 81 82  1  0  0  0  0
 82 83  1  0  0  0  0
 81 84  1  0  0  0  0
 84 85  2  0  0  0  0
 77 86  1  0  0  0  0
 86 87  2  0  0  0  0
 87 88  1  0  0  0  0
 88 89  2  0  0  0  0
 89 90  1  0  0  0  0
 90 91  1  0  0  0  0
 89 92  1  0  0  0  0
 92 93  2  0  0  0  0
 76 94  1  0  0  0  0
 94 95  1  0  0  0  0
 75 96  1  0  0  0  0
 96 97  1  0  0  0  0
 97 98  1  0  0  0  0
 98 99  2  0  0  0  0
 99100  1  0  0  0  0
100101  2  0  0  0  0
100102  1  0  0  0  0
102103  2  0  0  0  0
103104  1  0  0  0  0
104105  1  0  0  0  0
103106  1  0  0  0  0
106107  1  0  0  0  0
107108  1  0  0  0  0
108109  1  0  0  0  0
107110  2  0  0  0  0
110111  1  0  0  0  0
111112  2  0  0  0  0
111113  1  0  0  0  0
 98114  1  0  0  0  0
114115  2  0  0  0  0
115116  1  0  0  0  0
116117  2  0  0  0  0
116118  1  0  0  0  0
118119  2  0  0  0  0
119120  1  0  0  0  0
120121  2  0  0  0  0
121122  1  0  0  0  0
122123  2  0  0  0  0
123124  1  0  0  0  0
124125  2  0  0  0  0
125126  1  0  0  0  0
126127  3  0  0  0  0
125128  1  0  0  0  0
128129  3  0  0  0  0
121130  1  0  0  0  0
130131  1  0  0  0  0
131132  1  0  0  0  0
132133  2  0  0  0  0
133134  1  0  0  0  0
134135  1  0  0  0  0
134136  1  0  0  0  0
 11  2  1  0  0  0  0
 23 17  1  0  0  0  0
 44 24  1  0  0  0  0
 53 45  1  0  0  0  0
 95 54  1  0  0  0  0
113 96  2  0  0  0  0
124115  1  0  0  0  0
136130  1  0  0  0  0
 10  5  1  0  0  0  0
 22 18  1  0  0  0  0
 44 30  1  0  0  0  0
 64 57  1  0  0  0  0
 72 65  1  0  0  0  0
 94 73  2  0  0  0  0
113 99  1  0  0  0  0
123118  1  0  0  0  0
135131  1  0  0  0  0
 23  7  1  0  0  0  0
 41 33  1  0  0  0  0
 85 78  1  0  0  0  0
 93 86  1  0  0  0  0
110102  1  0  0  0  0
136120  1  0  0  0  0
  1137  1  0  0  0  0
  6138  1  0  0  0  0
  9139  1  0  0  0  0
 17140  1  0  0  0  0
 18141  1  0  0  0  0
 19142  1  0  0  0  0
 20143  1  0  0  0  0
 21144  1  0  0  0  0
 22145  1  0  0  0  0
 22146  1  0  0  0  0
 23147  1  0  0  0  0
 34148  1  0  0  0  0
 35149  1  0  0  0  0
 36150  1  0  0  0  0
 39151  1  0  0  0  0
 39152  1  0  0  0  0
 40153  1  0  0  0  0
 40154  1  0  0  0  0
 40155  1  0  0  0  0
 41156  1  0  0  0  0
 46157  1  0  0  0  0
 47158  1  0  0  0  0
 48159  1  0  0  0  0
 51160  1  0  0  0  0
 51161  1  0  0  0  0
 52162  1  0  0  0  0
 52163  1  0  0  0  0
 52164  1  0  0  0  0
 53165  1  0  0  0  0
 58166  1  0  0  0  0
 59167  1  0  0  0  0
 62168  1  0  0  0  0
 62169  1  0  0  0  0
 62170  1  0  0  0  0
 63171  1  0  0  0  0
 64172  1  0  0  0  0
 66173  1  0  0  0  0
 67174  1  0  0  0  0
 70175  1  0  0  0  0
 70176  1  0  0  0  0
 70177  1  0  0  0  0
 71178  1  0  0  0  0
 72179  1  0  0  0  0
 79180  1  0  0  0  0
 80181  1  0  0  0  0
 83182  1  0  0  0  0
 83183  1  0  0  0  0
 83184  1  0  0  0  0
 84185  1  0  0  0  0
 85186  1  0  0  0  0
 87187  1  0  0  0  0
 88188  1  0  0  0  0
 91189  1  0  0  0  0
 91190  1  0  0  0  0
 91191  1  0  0  0  0
 92192  1  0  0  0  0
 93193  1  0  0  0  0
104194  1  0  0  0  0
104195  1  0  0  0  0
105196  1  0  0  0  0
105197  1  0  0  0  0
105198  1  0  0  0  0
108199  1  0  0  0  0
108200  1  0  0  0  0
109201  1  0  0  0  0
109202  1  0  0  0  0
109203  1  0  0  0  0
114204  1  0  0  0  0
119205  1  0  0  0  0
122206  1  0  0  0  0
130207  1  0  0  0  0
131208  1  0  0  0  0
132209  1  0  0  0  0
133210  1  0  0  0  0
134211  1  0  0  0  0
135212  1  0  0  0  0
135213  1  0  0  0  0
136214  1  0  0  0  0
M  END
