
  xtb     02082215593D
 energy: -433.857635172850 gnorm: 0.000557743228 xtb: 6.4.1 (unknown)
256281  0     0  0            999 V2000
    7.0963    4.2757   -3.5913 C   0  0  0  0  0  0  0  0  0  0  0  0
    7.7675    4.1394   -2.4248 C   0  0  0  0  0  0  0  0  0  0  0  0
    8.3573    5.3470   -1.7692 C   0  0  0  0  0  0  0  0  0  0  0  0
    8.6562    6.3890   -2.3026 O   0  0  0  0  0  0  0  0  0  0  0  0
    8.3770    5.0127   -0.3325 C   0  0  0  0  0  0  0  0  0  0  0  0
    8.5975    5.8854    0.7330 C   0  0  0  0  0  0  0  0  0  0  0  0
    8.4618    5.3049    1.9712 C   0  0  0  0  0  0  0  0  0  0  0  0
    8.1366    3.9519    2.1465 C   0  0  0  0  0  0  0  0  0  0  0  0
    7.9369    3.0743    1.1083 C   0  0  0  0  0  0  0  0  0  0  0  0
    8.0570    3.6481   -0.1600 C   0  0  0  0  0  0  0  0  0  0  0  0
    7.8417    3.0480   -1.4705 C   0  0  0  0  0  0  0  0  0  0  0  0
    7.9152    1.7151   -1.7790 C   0  0  0  0  0  0  0  0  0  0  0  0
    7.7786    1.2324   -3.0957 C   0  0  0  0  0  0  0  0  0  0  0  0
    7.6513    0.8018   -4.1522 N   0  0  0  0  0  0  0  0  0  0  0  0
    8.0314    0.6908   -0.8218 C   0  0  0  0  0  0  0  0  0  0  0  0
    8.0840   -0.1843   -0.0797 N   0  0  0  0  0  0  0  0  0  0  0  0
    8.1287    4.0666    3.6502 C   0  0  0  0  0  0  0  0  0  0  0  0
    9.3569    3.5027    4.3939 C   0  0  0  0  0  0  0  0  0  0  0  0
    9.2987    4.1711    5.7484 C   0  0  0  0  0  0  0  0  0  0  0  0
    9.6160    5.4487    5.5818 C   0  0  0  0  0  0  0  0  0  0  0  0
    9.8936    5.6658    4.1116 C   0  0  0  0  0  0  0  0  0  0  0  0
   10.4993    4.3024    3.7538 C   0  0  0  0  0  0  0  0  0  0  0  0
    8.4999    5.5716    3.4554 C   0  0  0  0  0  0  0  0  0  0  0  0
    6.0163    3.4594   -4.0677 C   0  0  0  0  0  0  0  0  0  0  0  0
    5.5468    3.5517   -5.3729 C   0  0  0  0  0  0  0  0  0  0  0  0
    6.2327    4.2939   -6.2531 F   0  0  0  0  0  0  0  0  0  0  0  0
    4.3243    2.9957   -5.7978 C   0  0  0  0  0  0  0  0  0  0  0  0
    3.8875    3.2847   -7.0302 F   0  0  0  0  0  0  0  0  0  0  0  0
    3.5646    2.2344   -4.9429 C   0  0  0  0  0  0  0  0  0  0  0  0
    4.1424    1.9336   -3.6800 C   0  0  0  0  0  0  0  0  0  0  0  0
    3.6315    0.9491   -2.9402 N   0  0  0  0  0  0  0  0  0  0  0  0
    4.0079    0.7620   -1.7002 C   0  0  0  0  0  0  0  0  0  0  0  0
    3.6191   -0.5471   -1.1632 C   0  0  0  0  0  0  0  0  0  0  0  0
    3.7961   -1.6343   -2.0179 C   0  0  0  0  0  0  0  0  0  0  0  0
    3.4556   -2.9186   -1.6442 C   0  0  0  0  0  0  0  0  0  0  0  0
    2.9115   -3.1670   -0.3877 C   0  0  0  0  0  0  0  0  0  0  0  0
    2.5187   -4.3601    0.1010 O   0  0  0  0  0  0  0  0  0  0  0  0
    2.6453   -5.5305   -0.6882 C   0  0  0  0  0  0  0  0  0  0  0  0
    4.0644   -6.0858   -0.6793 C   0  0  0  0  0  0  0  0  0  0  0  0
    2.7178   -2.0569    0.4498 C   0  0  0  0  0  0  0  0  0  0  0  0
    3.0411   -0.7711    0.0850 C   0  0  0  0  0  0  0  0  0  0  0  0
    2.1693   -2.2705    1.6650 F   0  0  0  0  0  0  0  0  0  0  0  0
    4.7564    1.8217   -1.0777 C   0  0  0  0  0  0  0  0  0  0  0  0
    5.3889    2.6747   -1.8501 N   0  0  0  0  0  0  0  0  0  0  0  0
    5.2430    2.6610   -3.1789 C   0  0  0  0  0  0  0  0  0  0  0  0
    4.8033    2.1082    0.3558 C   0  0  0  0  0  0  0  0  0  0  0  0
    4.9768    1.1365    1.3347 C   0  0  0  0  0  0  0  0  0  0  0  0
    4.9157    1.4633    2.6763 C   0  0  0  0  0  0  0  0  0  0  0  0
    4.7121    2.7788    3.0874 C   0  0  0  0  0  0  0  0  0  0  0  0
    4.5958    3.1915    4.3633 O   0  0  0  0  0  0  0  0  0  0  0  0
    4.3666    2.2199    5.3737 C   0  0  0  0  0  0  0  0  0  0  0  0
    3.9710    2.9625    6.6391 C   0  0  0  0  0  0  0  0  0  0  0  0
    4.6486    3.7588    2.0856 C   0  0  0  0  0  0  0  0  0  0  0  0
    4.5377    5.0550    2.4478 F   0  0  0  0  0  0  0  0  0  0  0  0
    4.6793    3.4419    0.7513 C   0  0  0  0  0  0  0  0  0  0  0  0
    2.1461    1.8741   -4.9747 C   0  0  0  0  0  0  0  0  0  0  0  0
    1.3034    2.5289   -4.0937 C   0  0  0  0  0  0  0  0  0  0  0  0
    1.6246    3.7010   -3.4125 N   0  0  0  0  0  0  0  0  0  0  0  0
    2.3382    4.7036   -4.0918 C   0  0  0  0  0  0  0  0  0  0  0  0
    3.4326    5.3383   -3.5105 C   0  0  0  0  0  0  0  0  0  0  0  0
    4.1437    6.2975   -4.2053 C   0  0  0  0  0  0  0  0  0  0  0  0
    3.7752    6.6374   -5.5005 C   0  0  0  0  0  0  0  0  0  0  0  0
    4.6082    7.8509   -6.4713 S   0  0  0  0  0  0  0  0  0  0  0  0
    6.2343    7.9920   -5.6757 C   0  0  0  0  0  0  0  0  0  0  0  0
    2.6693    6.0165   -6.0796 C   0  0  0  0  0  0  0  0  0  0  0  0
    1.9584    5.0645   -5.3851 C   0  0  0  0  0  0  0  0  0  0  0  0
    1.4387    3.7753   -2.0270 C   0  0  0  0  0  0  0  0  0  0  0  0
    1.2901    5.0156   -1.4077 C   0  0  0  0  0  0  0  0  0  0  0  0
    1.1785    5.1196   -0.0353 C   0  0  0  0  0  0  0  0  0  0  0  0
    1.1958    3.9775    0.7547 C   0  0  0  0  0  0  0  0  0  0  0  0
    1.1026    3.9850    2.5161 S   0  0  0  0  0  0  0  0  0  0  0  0
    1.2941    5.7377    2.9537 C   0  0  0  0  0  0  0  0  0  0  0  0
    1.2888    2.7325    0.1402 C   0  0  0  0  0  0  0  0  0  0  0  0
    1.4087    2.6298   -1.2279 C   0  0  0  0  0  0  0  0  0  0  0  0
    0.1102    1.8043   -3.8956 C   0  0  0  0  0  0  0  0  0  0  0  0
   -1.2103    2.0143   -2.8128 S   0  0  0  0  0  0  0  0  0  0  0  0
   -1.7525    0.3774   -3.1410 C   0  0  0  0  0  0  0  0  0  0  0  0
   -0.9397   -0.2797   -4.0642 C   0  0  0  0  0  0  0  0  0  0  0  0
   -1.0103   -1.6380   -4.3813 N   0  0  0  0  0  0  0  0  0  0  0  0
   -1.1492   -1.9926   -5.7252 C   0  0  0  0  0  0  0  0  0  0  0  0
   -0.5468   -3.1344   -6.2473 C   0  0  0  0  0  0  0  0  0  0  0  0
   -0.7662   -3.5114   -7.5566 C   0  0  0  0  0  0  0  0  0  0  0  0
   -1.5797   -2.7412   -8.3762 C   0  0  0  0  0  0  0  0  0  0  0  0
   -1.9809   -3.1687  -10.0430 S   0  0  0  0  0  0  0  0  0  0  0  0
   -1.5025   -4.9176  -10.1517 C   0  0  0  0  0  0  0  0  0  0  0  0
   -2.1260   -1.5597   -7.8809 C   0  0  0  0  0  0  0  0  0  0  0  0
   -1.9170   -1.1903   -6.5709 C   0  0  0  0  0  0  0  0  0  0  0  0
   -0.9143   -2.5845   -3.3562 C   0  0  0  0  0  0  0  0  0  0  0  0
   -0.3109   -2.2546   -2.1418 C   0  0  0  0  0  0  0  0  0  0  0  0
   -0.3306   -3.1308   -1.0738 C   0  0  0  0  0  0  0  0  0  0  0  0
   -0.8994   -4.3892   -1.2158 C   0  0  0  0  0  0  0  0  0  0  0  0
   -0.9808   -5.5978    0.0639 S   0  0  0  0  0  0  0  0  0  0  0  0
   -0.4457   -4.7155    1.5555 C   0  0  0  0  0  0  0  0  0  0  0  0
   -1.4413   -4.7505   -2.4480 C   0  0  0  0  0  0  0  0  0  0  0  0
   -1.4764   -3.8575   -3.4931 C   0  0  0  0  0  0  0  0  0  0  0  0
    0.0969    0.5658   -4.5212 C   0  0  0  0  0  0  0  0  0  0  0  0
    1.4938    0.3541   -5.5278 S   0  0  0  0  0  0  0  0  0  0  0  0
   -2.8237   -0.1376   -2.3695 C   0  0  0  0  0  0  0  0  0  0  0  0
   -3.3068    0.3790   -1.1702 C   0  0  0  0  0  0  0  0  0  0  0  0
   -2.8220    1.5231   -0.5198 N   0  0  0  0  0  0  0  0  0  0  0  0
   -2.0899    1.2883    0.6565 C   0  0  0  0  0  0  0  0  0  0  0  0
   -1.2018    0.2135    0.7045 C   0  0  0  0  0  0  0  0  0  0  0  0
   -0.4371   -0.0073    1.8275 C   0  0  0  0  0  0  0  0  0  0  0  0
   -0.5345    0.8404    2.9279 C   0  0  0  0  0  0  0  0  0  0  0  0
    0.5910    0.5430    4.2497 S   0  0  0  0  0  0  0  0  0  0  0  0
    0.0024    1.6413    5.5682 C   0  0  0  0  0  0  0  0  0  0  0  0
   -1.4618    1.8734    2.9088 C   0  0  0  0  0  0  0  0  0  0  0  0
   -2.2376    2.0867    1.7867 C   0  0  0  0  0  0  0  0  0  0  0  0
   -3.2544    2.7924   -0.8966 C   0  0  0  0  0  0  0  0  0  0  0  0
   -4.4291    2.9550   -1.6256 C   0  0  0  0  0  0  0  0  0  0  0  0
   -4.8432    4.2090   -2.0352 C   0  0  0  0  0  0  0  0  0  0  0  0
   -4.0861    5.3272   -1.7221 C   0  0  0  0  0  0  0  0  0  0  0  0
   -4.5131    6.9815   -2.1748 S   0  0  0  0  0  0  0  0  0  0  0  0
   -6.0493    6.7950   -3.1237 C   0  0  0  0  0  0  0  0  0  0  0  0
   -2.8999    5.1689   -1.0060 C   0  0  0  0  0  0  0  0  0  0  0  0
   -2.4849    3.9228   -0.6023 C   0  0  0  0  0  0  0  0  0  0  0  0
   -4.2267   -0.5009   -0.5775 C   0  0  0  0  0  0  0  0  0  0  0  0
   -5.0225   -0.4989    0.9486 S   0  0  0  0  0  0  0  0  0  0  0  0
   -5.5835   -2.1526    0.6753 C   0  0  0  0  0  0  0  0  0  0  0  0
   -5.2200   -2.6312   -0.5981 C   0  0  0  0  0  0  0  0  0  0  0  0
   -5.4356   -3.9099   -1.0351 N   0  0  0  0  0  0  0  0  0  0  0  0
   -5.5513   -4.9529   -0.0798 C   0  0  0  0  0  0  0  0  0  0  0  0
   -4.5841   -5.0959    0.9115 C   0  0  0  0  0  0  0  0  0  0  0  0
   -4.7831   -5.9955    1.9357 C   0  0  0  0  0  0  0  0  0  0  0  0
   -5.9481   -6.7545    1.9802 C   0  0  0  0  0  0  0  0  0  0  0  0
   -6.2273   -7.7787    3.3932 S   0  0  0  0  0  0  0  0  0  0  0  0
   -8.0160   -7.5469    3.6369 C   0  0  0  0  0  0  0  0  0  0  0  0
   -6.8618   -6.6836    0.9362 C   0  0  0  0  0  0  0  0  0  0  0  0
   -6.6612   -5.7883   -0.0960 C   0  0  0  0  0  0  0  0  0  0  0  0
   -5.2977   -4.2387   -2.3891 C   0  0  0  0  0  0  0  0  0  0  0  0
   -5.7934   -3.3953   -3.3808 C   0  0  0  0  0  0  0  0  0  0  0  0
   -5.5558   -3.6599   -4.7162 C   0  0  0  0  0  0  0  0  0  0  0  0
   -4.8312   -4.7858   -5.0814 C   0  0  0  0  0  0  0  0  0  0  0  0
   -4.3575   -5.1609   -6.7386 S   0  0  0  0  0  0  0  0  0  0  0  0
   -4.9329   -3.7308   -7.6937 C   0  0  0  0  0  0  0  0  0  0  0  0
   -4.4280   -5.6865   -4.0953 C   0  0  0  0  0  0  0  0  0  0  0  0
   -4.6590   -5.4210   -2.7650 C   0  0  0  0  0  0  0  0  0  0  0  0
   -4.4662   -1.6640   -1.2970 C   0  0  0  0  0  0  0  0  0  0  0  0
   -3.5987   -1.6481   -2.7944 S   0  0  0  0  0  0  0  0  0  0  0  0
   -6.3163   -2.8307    1.6626 C   0  0  0  0  0  0  0  0  0  0  0  0
   -6.3767   -2.5948    3.0085 C   0  0  0  0  0  0  0  0  0  0  0  0
   -7.4738   -3.1954    3.7973 C   0  0  0  0  0  0  0  0  0  0  0  0
   -8.2136   -4.0939    3.4459 O   0  0  0  0  0  0  0  0  0  0  0  0
   -7.4854   -2.4635    5.0790 C   0  0  0  0  0  0  0  0  0  0  0  0
   -8.4164   -2.5701    6.1095 C   0  0  0  0  0  0  0  0  0  0  0  0
   -8.1828   -1.7229    7.1667 C   0  0  0  0  0  0  0  0  0  0  0  0
   -7.1042   -0.8300    7.1991 C   0  0  0  0  0  0  0  0  0  0  0  0
   -6.1715   -0.7202    6.1947 C   0  0  0  0  0  0  0  0  0  0  0  0
   -6.3885   -1.5764    5.1131 C   0  0  0  0  0  0  0  0  0  0  0  0
   -5.5953   -1.7744    3.9000 C   0  0  0  0  0  0  0  0  0  0  0  0
   -4.2622   -1.4584    3.7713 C   0  0  0  0  0  0  0  0  0  0  0  0
   -3.5468   -0.6452    4.6668 C   0  0  0  0  0  0  0  0  0  0  0  0
   -2.9236    0.0431    5.3441 N   0  0  0  0  0  0  0  0  0  0  0  0
   -3.4367   -1.9988    2.7686 C   0  0  0  0  0  0  0  0  0  0  0  0
   -2.7149   -2.4850    2.0172 N   0  0  0  0  0  0  0  0  0  0  0  0
   -7.4917   -0.2852    8.5516 C   0  0  0  0  0  0  0  0  0  0  0  0
   -6.6671   -0.7824    9.7577 C   0  0  0  0  0  0  0  0  0  0  0  0
   -7.5492   -0.4812   10.9477 C   0  0  0  0  0  0  0  0  0  0  0  0
   -8.5691   -1.3295   10.9188 C   0  0  0  0  0  0  0  0  0  0  0  0
   -8.3933   -2.2184    9.7088 C   0  0  0  0  0  0  0  0  0  0  0  0
   -6.8621   -2.3011    9.6622 C   0  0  0  0  0  0  0  0  0  0  0  0
   -8.6927   -1.2840    8.5174 C   0  0  0  0  0  0  0  0  0  0  0  0
    7.3014    5.1787   -4.1562 H   0  0  0  0  0  0  0  0  0  0  0  0
    8.8353    6.9235    0.5609 H   0  0  0  0  0  0  0  0  0  0  0  0
    7.6737    2.0389    1.2480 H   0  0  0  0  0  0  0  0  0  0  0  0
    7.1849    3.8290    4.1357 H   0  0  0  0  0  0  0  0  0  0  0  0
    9.4376    2.4190    4.3840 H   0  0  0  0  0  0  0  0  0  0  0  0
    8.9903    3.6753    6.6501 H   0  0  0  0  0  0  0  0  0  0  0  0
    9.6248    6.2328    6.3161 H   0  0  0  0  0  0  0  0  0  0  0  0
   10.4635    6.5525    3.8476 H   0  0  0  0  0  0  0  0  0  0  0  0
   10.6132    4.1336    2.6845 H   0  0  0  0  0  0  0  0  0  0  0  0
   11.4517    4.1317    4.2529 H   0  0  0  0  0  0  0  0  0  0  0  0
    7.8047    6.3275    3.8152 H   0  0  0  0  0  0  0  0  0  0  0  0
    4.2209   -1.4621   -2.9947 H   0  0  0  0  0  0  0  0  0  0  0  0
    3.6165   -3.7237   -2.3419 H   0  0  0  0  0  0  0  0  0  0  0  0
    1.9622   -6.2450   -0.2211 H   0  0  0  0  0  0  0  0  0  0  0  0
    2.2953   -5.3393   -1.7093 H   0  0  0  0  0  0  0  0  0  0  0  0
    4.0943   -7.0142   -1.2424 H   0  0  0  0  0  0  0  0  0  0  0  0
    4.7670   -5.3824   -1.1201 H   0  0  0  0  0  0  0  0  0  0  0  0
    4.3747   -6.2844    0.3435 H   0  0  0  0  0  0  0  0  0  0  0  0
    2.8176    0.0356    0.7642 H   0  0  0  0  0  0  0  0  0  0  0  0
    5.1877    0.1176    1.0512 H   0  0  0  0  0  0  0  0  0  0  0  0
    5.0280    0.6803    3.4082 H   0  0  0  0  0  0  0  0  0  0  0  0
    5.2814    1.6360    5.5445 H   0  0  0  0  0  0  0  0  0  0  0  0
    3.5624    1.5430    5.0595 H   0  0  0  0  0  0  0  0  0  0  0  0
    3.0616    3.5305    6.4641 H   0  0  0  0  0  0  0  0  0  0  0  0
    3.7994    2.2524    7.4428 H   0  0  0  0  0  0  0  0  0  0  0  0
    4.7593    3.6509    6.9320 H   0  0  0  0  0  0  0  0  0  0  0  0
    4.5885    4.2230    0.0133 H   0  0  0  0  0  0  0  0  0  0  0  0
    3.7361    5.0732   -2.5082 H   0  0  0  0  0  0  0  0  0  0  0  0
    4.9874    6.7675   -3.7255 H   0  0  0  0  0  0  0  0  0  0  0  0
    6.1470    8.4458   -4.6930 H   0  0  0  0  0  0  0  0  0  0  0  0
    6.8211    8.6351   -6.3239 H   0  0  0  0  0  0  0  0  0  0  0  0
    6.6933    7.0100   -5.6208 H   0  0  0  0  0  0  0  0  0  0  0  0
    2.3811    6.2877   -7.0829 H   0  0  0  0  0  0  0  0  0  0  0  0
    1.1093    4.5806   -5.8437 H   0  0  0  0  0  0  0  0  0  0  0  0
    1.2679    5.9111   -2.0104 H   0  0  0  0  0  0  0  0  0  0  0  0
    1.0736    6.0988    0.4033 H   0  0  0  0  0  0  0  0  0  0  0  0
    1.3620    5.7640    4.0367 H   0  0  0  0  0  0  0  0  0  0  0  0
    2.2112    6.1251    2.5217 H   0  0  0  0  0  0  0  0  0  0  0  0
    0.4265    6.3033    2.6257 H   0  0  0  0  0  0  0  0  0  0  0  0
    1.2667    1.8443    0.7524 H   0  0  0  0  0  0  0  0  0  0  0  0
    1.5010    1.6525   -1.6751 H   0  0  0  0  0  0  0  0  0  0  0  0
    0.0977   -3.7324   -5.6214 H   0  0  0  0  0  0  0  0  0  0  0  0
   -0.2924   -4.4058   -7.9266 H   0  0  0  0  0  0  0  0  0  0  0  0
   -1.9080   -5.2758  -11.0928 H   0  0  0  0  0  0  0  0  0  0  0  0
   -0.4204   -5.0118  -10.1607 H   0  0  0  0  0  0  0  0  0  0  0  0
   -1.9416   -5.4658   -9.3229 H   0  0  0  0  0  0  0  0  0  0  0  0
   -2.7320   -0.9475   -8.5319 H   0  0  0  0  0  0  0  0  0  0  0  0
   -2.3679   -0.2880   -6.1840 H   0  0  0  0  0  0  0  0  0  0  0  0
    0.1701   -1.2935   -2.0251 H   0  0  0  0  0  0  0  0  0  0  0  0
    0.0951   -2.8230   -0.1339 H   0  0  0  0  0  0  0  0  0  0  0  0
   -1.0844   -3.8517    1.7188 H   0  0  0  0  0  0  0  0  0  0  0  0
    0.5986   -4.4336    1.4703 H   0  0  0  0  0  0  0  0  0  0  0  0
   -0.5699   -5.4256    2.3678 H   0  0  0  0  0  0  0  0  0  0  0  0
   -1.8629   -5.7360   -2.5653 H   0  0  0  0  0  0  0  0  0  0  0  0
   -1.9682   -4.1349   -4.4119 H   0  0  0  0  0  0  0  0  0  0  0  0
   -1.1084   -0.4439   -0.1459 H   0  0  0  0  0  0  0  0  0  0  0  0
    0.2519   -0.8349    1.8680 H   0  0  0  0  0  0  0  0  0  0  0  0
   -1.0376    1.4110    5.7781 H   0  0  0  0  0  0  0  0  0  0  0  0
    0.1384    2.6762    5.2672 H   0  0  0  0  0  0  0  0  0  0  0  0
    0.6170    1.4205    6.4355 H   0  0  0  0  0  0  0  0  0  0  0  0
   -1.5923    2.5191    3.7607 H   0  0  0  0  0  0  0  0  0  0  0  0
   -2.9626    2.8870    1.7853 H   0  0  0  0  0  0  0  0  0  0  0  0
   -5.0288    2.0914   -1.8744 H   0  0  0  0  0  0  0  0  0  0  0  0
   -5.7616    4.2937   -2.5936 H   0  0  0  0  0  0  0  0  0  0  0  0
   -6.8283    6.3761   -2.4932 H   0  0  0  0  0  0  0  0  0  0  0  0
   -6.3255    7.7985   -3.4321 H   0  0  0  0  0  0  0  0  0  0  0  0
   -5.8719    6.1760   -3.9984 H   0  0  0  0  0  0  0  0  0  0  0  0
   -2.3017    6.0392   -0.7833 H   0  0  0  0  0  0  0  0  0  0  0  0
   -1.5497    3.8079   -0.0770 H   0  0  0  0  0  0  0  0  0  0  0  0
   -3.7060   -4.4691    0.8980 H   0  0  0  0  0  0  0  0  0  0  0  0
   -4.0527   -6.0971    2.7229 H   0  0  0  0  0  0  0  0  0  0  0  0
   -8.5798   -8.1658    2.9453 H   0  0  0  0  0  0  0  0  0  0  0  0
   -8.2210   -7.8588    4.6562 H   0  0  0  0  0  0  0  0  0  0  0  0
   -8.2531   -6.4941    3.5102 H   0  0  0  0  0  0  0  0  0  0  0  0
   -7.7420   -7.3061    0.9360 H   0  0  0  0  0  0  0  0  0  0  0  0
   -7.3828   -5.7043   -0.8955 H   0  0  0  0  0  0  0  0  0  0  0  0
   -6.3654   -2.5217   -3.1053 H   0  0  0  0  0  0  0  0  0  0  0  0
   -5.9353   -2.9750   -5.4566 H   0  0  0  0  0  0  0  0  0  0  0  0
   -4.5803   -3.8895   -8.7082 H   0  0  0  0  0  0  0  0  0  0  0  0
   -4.4910   -2.8233   -7.2925 H   0  0  0  0  0  0  0  0  0  0  0  0
   -6.0182   -3.6891   -7.6841 H   0  0  0  0  0  0  0  0  0  0  0  0
   -3.9071   -6.5850   -4.3893 H   0  0  0  0  0  0  0  0  0  0  0  0
   -4.3214   -6.1079   -2.0039 H   0  0  0  0  0  0  0  0  0  0  0  0
   -6.9877   -3.6102    1.3209 H   0  0  0  0  0  0  0  0  0  0  0  0
   -9.2384   -3.2659    6.0454 H   0  0  0  0  0  0  0  0  0  0  0  0
   -5.3500   -0.0232    6.2231 H   0  0  0  0  0  0  0  0  0  0  0  0
   -7.7034    0.7819    8.5910 H   0  0  0  0  0  0  0  0  0  0  0  0
   -5.6472   -0.4096    9.7964 H   0  0  0  0  0  0  0  0  0  0  0  0
   -7.3765    0.3274   11.6336 H   0  0  0  0  0  0  0  0  0  0  0  0
   -9.4183   -1.3709   11.5756 H   0  0  0  0  0  0  0  0  0  0  0  0
   -8.9463   -3.1539    9.7047 H   0  0  0  0  0  0  0  0  0  0  0  0
   -6.4689   -2.7420    8.7482 H   0  0  0  0  0  0  0  0  0  0  0  0
   -6.4519   -2.8239   10.5246 H   0  0  0  0  0  0  0  0  0  0  0  0
   -9.7043   -0.8823    8.5356 H   0  0  0  0  0  0  0  0  0  0  0  0
  1  2  2  0  0  0  0
  2  3  1  0  0  0  0
  3  4  2  0  0  0  0
  3  5  1  0  0  0  0
  5  6  2  0  0  0  0
  6  7  1  0  0  0  0
  7  8  2  0  0  0  0
  8  9  1  0  0  0  0
  9 10  2  0  0  0  0
 10 11  1  0  0  0  0
 11 12  2  0  0  0  0
 12 13  1  0  0  0  0
 13 14  3  0  0  0  0
 12 15  1  0  0  0  0
 15 16  3  0  0  0  0
  8 17  1  0  0  0  0
 17 18  1  0  0  0  0
 18 19  1  0  0  0  0
 19 20  2  0  0  0  0
 20 21  1  0  0  0  0
 21 22  1  0  0  0  0
 21 23  1  0  0  0  0
  1 24  1  0  0  0  0
 24 25  2  0  0  0  0
 25 26  1  0  0  0  0
 25 27  1  0  0  0  0
 27 28  1  0  0  0  0
 27 29  2  0  0  0  0
 29 30  1  0  0  0  0
 30 31  2  0  0  0  0
 31 32  1  0  0  0  0
 32 33  1  0  0  0  0
 33 34  2  0  0  0  0
 34 35  1  0  0  0  0
 35 36  2  0  0  0  0
 36 37  1  0  0  0  0
 37 38  1  0  0  0  0
 38 39  1  0  0  0  0
 36 40  1  0  0  0  0
 40 41  2  0  0  0  0
 40 42  1  0  0  0  0
 32 43  2  0  0  0  0
 43 44  1  0  0  0  0
 44 45  2  0  0  0  0
 43 46  1  0  0  0  0
 46 47  2  0  0  0  0
 47 48  1  0  0  0  0
 48 49  2  0  0  0  0
 49 50  1  0  0  0  0
 50 51  1  0  0  0  0
 51 52  1  0  0  0  0
 49 53  1  0  0  0  0
 53 54  1  0  0  0  0
 53 55  2  0  0  0  0
 29 56  1  0  0  0  0
 56 57  2  0  0  0  0
 57 58  1  0  0  0  0
 58 59  1  0  0  0  0
 59 60  2  0  0  0  0
 60 61  1  0  0  0  0
 61 62  2  0  0  0  0
 62 63  1  0  0  0  0
 63 64  1  0  0  0  0
 62 65  1  0  0  0  0
 65 66  2  0  0  0  0
 58 67  1  0  0  0  0
 67 68  2  0  0  0  0
 68 69  1  0  0  0  0
 69 70  2  0  0  0  0
 70 71  1  0  0  0  0
 71 72  1  0  0  0  0
 70 73  1  0  0  0  0
 73 74  2  0  0  0  0
 57 75  1  0  0  0  0
 75 76  1  0  0  0  0
 76 77  1  0  0  0  0
 77 78  2  0  0  0  0
 78 79  1  0  0  0  0
 79 80  1  0  0  0  0
 80 81  2  0  0  0  0
 81 82  1  0  0  0  0
 82 83  2  0  0  0  0
 83 84  1  0  0  0  0
 84 85  1  0  0  0  0
 83 86  1  0  0  0  0
 86 87  2  0  0  0  0
 79 88  1  0  0  0  0
 88 89  2  0  0  0  0
 89 90  1  0  0  0  0
 90 91  2  0  0  0  0
 91 92  1  0  0  0  0
 92 93  1  0  0  0  0
 91 94  1  0  0  0  0
 94 95  2  0  0  0  0
 78 96  1  0  0  0  0
 96 97  1  0  0  0  0
 77 98  1  0  0  0  0
 98 99  2  0  0  0  0
 99100  1  0  0  0  0
100101  1  0  0  0  0
101102  2  0  0  0  0
102103  1  0  0  0  0
103104  2  0  0  0  0
104105  1  0  0  0  0
105106  1  0  0  0  0
104107  1  0  0  0  0
107108  2  0  0  0  0
100109  1  0  0  0  0
109110  2  0  0  0  0
110111  1  0  0  0  0
111112  2  0  0  0  0
112113  1  0  0  0  0
113114  1  0  0  0  0
112115  1  0  0  0  0
115116  2  0  0  0  0
 99117  1  0  0  0  0
117118  1  0  0  0  0
118119  1  0  0  0  0
119120  2  0  0  0  0
120121  1  0  0  0  0
121122  1  0  0  0  0
122123  2  0  0  0  0
123124  1  0  0  0  0
124125  2  0  0  0  0
125126  1  0  0  0  0
126127  1  0  0  0  0
125128  1  0  0  0  0
128129  2  0  0  0  0
121130  1  0  0  0  0
130131  2  0  0  0  0
131132  1  0  0  0  0
132133  2  0  0  0  0
133134  1  0  0  0  0
134135  1  0  0  0  0
133136  1  0  0  0  0
136137  2  0  0  0  0
120138  1  0  0  0  0
138139  1  0  0  0  0
119140  1  0  0  0  0
140141  2  0  0  0  0
141142  1  0  0  0  0
142143  2  0  0  0  0
142144  1  0  0  0  0
144145  2  0  0  0  0
145146  1  0  0  0  0
146147  2  0  0  0  0
147148  1  0  0  0  0
148149  2  0  0  0  0
149150  1  0  0  0  0
150151  2  0  0  0  0
151152  1  0  0  0  0
152153  3  0  0  0  0
151154  1  0  0  0  0
154155  3  0  0  0  0
147156  1  0  0  0  0
156157  1  0  0  0  0
157158  1  0  0  0  0
158159  2  0  0  0  0
159160  1  0  0  0  0
160161  1  0  0  0  0
160162  1  0  0  0  0
 11  2  1  0  0  0  0
 23 17  1  0  0  0  0
 45 24  1  0  0  0  0
 55 46  1  0  0  0  0
 97 56  1  0  0  0  0
139 98  1  0  0  0  0
150141  1  0  0  0  0
162156  1  0  0  0  0
 10  5  1  0  0  0  0
 22 18  1  0  0  0  0
 45 30  1  0  0  0  0
 66 59  1  0  0  0  0
 74 67  1  0  0  0  0
 96 75  2  0  0  0  0
108101  1  0  0  0  0
116109  1  0  0  0  0
138117  2  0  0  0  0
149144  1  0  0  0  0
161157  1  0  0  0  0
 23  7  1  0  0  0  0
 41 33  1  0  0  0  0
 87 80  1  0  0  0  0
 95 88  1  0  0  0  0
129122  1  0  0  0  0
137130  1  0  0  0  0
162146  1  0  0  0  0
  1163  1  0  0  0  0
  6164  1  0  0  0  0
  9165  1  0  0  0  0
 17166  1  0  0  0  0
 18167  1  0  0  0  0
 19168  1  0  0  0  0
 20169  1  0  0  0  0
 21170  1  0  0  0  0
 22171  1  0  0  0  0
 22172  1  0  0  0  0
 23173  1  0  0  0  0
 34174  1  0  0  0  0
 35175  1  0  0  0  0
 38176  1  0  0  0  0
 38177  1  0  0  0  0
 39178  1  0  0  0  0
 39179  1  0  0  0  0
 39180  1  0  0  0  0
 41181  1  0  0  0  0
 47182  1  0  0  0  0
 48183  1  0  0  0  0
 51184  1  0  0  0  0
 51185  1  0  0  0  0
 52186  1  0  0  0  0
 52187  1  0  0  0  0
 52188  1  0  0  0  0
 55189  1  0  0  0  0
 60190  1  0  0  0  0
 61191  1  0  0  0  0
 64192  1  0  0  0  0
 64193  1  0  0  0  0
 64194  1  0  0  0  0
 65195  1  0  0  0  0
 66196  1  0  0  0  0
 68197  1  0  0  0  0
 69198  1  0  0  0  0
 72199  1  0  0  0  0
 72200  1  0  0  0  0
 72201  1  0  0  0  0
 73202  1  0  0  0  0
 74203  1  0  0  0  0
 81204  1  0  0  0  0
 82205  1  0  0  0  0
 85206  1  0  0  0  0
 85207  1  0  0  0  0
 85208  1  0  0  0  0
 86209  1  0  0  0  0
 87210  1  0  0  0  0
 89211  1  0  0  0  0
 90212  1  0  0  0  0
 93213  1  0  0  0  0
 93214  1  0  0  0  0
 93215  1  0  0  0  0
 94216  1  0  0  0  0
 95217  1  0  0  0  0
102218  1  0  0  0  0
103219  1  0  0  0  0
106220  1  0  0  0  0
106221  1  0  0  0  0
106222  1  0  0  0  0
107223  1  0  0  0  0
108224  1  0  0  0  0
110225  1  0  0  0  0
111226  1  0  0  0  0
114227  1  0  0  0  0
114228  1  0  0  0  0
114229  1  0  0  0  0
115230  1  0  0  0  0
116231  1  0  0  0  0
123232  1  0  0  0  0
124233  1  0  0  0  0
127234  1  0  0  0  0
127235  1  0  0  0  0
127236  1  0  0  0  0
128237  1  0  0  0  0
129238  1  0  0  0  0
131239  1  0  0  0  0
132240  1  0  0  0  0
135241  1  0  0  0  0
135242  1  0  0  0  0
135243  1  0  0  0  0
136244  1  0  0  0  0
137245  1  0  0  0  0
140246  1  0  0  0  0
145247  1  0  0  0  0
148248  1  0  0  0  0
156249  1  0  0  0  0
157250  1  0  0  0  0
158251  1  0  0  0  0
159252  1  0  0  0  0
160253  1  0  0  0  0
161254  1  0  0  0  0
161255  1  0  0  0  0
162256  1  0  0  0  0
M  END
