214

C          4.20560       -6.48890        0.63440
C          3.96970       -7.51660        1.48440
C          2.94700       -7.49770        2.56970
O          2.21110       -6.58510        2.87030
C          3.11730       -8.76840        3.29650
C          2.36970       -9.20790        4.38740
C          2.75940      -10.43090        4.87670
C          3.82540      -11.15980        4.33040
C          4.57700      -10.73450        3.26220
C          4.19120       -9.49380        2.74080
C          4.74920       -8.73470        1.62700
C          5.79720       -9.12510        0.83560
C          6.32330       -8.39600       -0.25060
N          6.82610       -7.88150       -1.14630
C          6.52070      -10.32580        0.99840
N          7.15860      -11.27790        1.07110
C          3.66040      -12.29140        5.31410
C          2.97110      -13.56750        4.78650
C          2.52140      -14.28070        6.04120
C          1.51080      -13.59220        6.55640
C          1.26040      -12.40210        5.65850
C          1.62500      -13.01500        4.30020
C          2.47070      -11.48040        5.92090
C          3.33650       -5.36390        0.41880
C          1.95380       -5.45150        0.32360
F          1.34590       -6.64120        0.39970
C          1.15650       -4.34210        0.03870
F         -0.17940       -4.50740        0.03620
C          1.69380       -3.08400       -0.20660
C          3.09780       -2.94730       -0.01890
N          3.63760       -1.72690       -0.08150
C          4.93570       -1.57860        0.05570
C          5.43010       -0.19910        0.08760
C          6.37550        0.21800        1.01620
C          6.78780        1.53880        1.01070
C          6.28270        2.43220        0.08720
C          5.33260        2.02000       -0.85110
O          4.92360        2.96400       -1.73920
C          4.20640        2.56430       -2.89240
C          2.69940        2.47420       -2.67260
C          4.89740        0.70280       -0.82960
C          5.77410       -2.73260        0.15520
N          5.24610       -3.93150        0.27390
C          3.91360       -4.07580        0.23220
C          7.23760       -2.67440        0.09780
C          7.98010       -3.55420        0.88550
C          9.35740       -3.51880        0.83210
C         10.01710       -2.63700       -0.00920
C          9.28470       -1.77480       -0.82070
O          9.80470       -0.86640       -1.68780
C         11.19850       -0.83610       -1.92720
C         11.66830       -1.98210       -2.81850
C          7.89210       -1.79920       -0.75660
C          0.92490       -1.95060       -0.60970
C         -0.22260       -1.92830       -1.40470
N         -0.62740       -2.97370       -2.20410
C         -1.97840       -3.15090       -2.51850
C         -2.96930       -2.87190       -1.57640
C         -4.29660       -3.02970       -1.90370
C         -4.66570       -3.47770       -3.17100
S         -6.39670       -3.63370       -3.47230
C         -6.49390       -4.26880       -5.17040
C         -3.68060       -3.77540       -4.10380
C         -2.34900       -3.61040       -3.77880
C          0.34350       -3.87990       -2.67200
C          0.10860       -5.25440       -2.65400
C          1.13840       -6.13520       -2.90430
C          2.42140       -5.66610       -3.17960
S          3.71200       -6.86170       -3.29770
C          5.22130       -5.86900       -3.12050
C          2.62610       -4.29830       -3.32360
C          1.59340       -3.41730       -3.07890
C         -0.79630       -0.63410       -1.39760
S         -2.22860        0.05000       -2.08150
C         -1.86070        1.60110       -1.33180
C         -0.61180        1.60760       -0.70120
N          0.03140        2.72410       -0.23100
C          1.00970        2.61210        0.77200
C          0.82910        1.74840        1.85190
C          1.82190        1.60700        2.79610
C          3.00940        2.32690        2.68660
S          4.23860        2.03270        3.91730
C          5.33730        3.47200        3.76730
C          3.17380        3.21930        1.63610
C          2.17870        3.36280        0.69060
C         -0.25560        3.98950       -0.76580
C         -0.39140        5.09670        0.06710
C         -0.74310        6.33110       -0.44940
C         -0.95450        6.48330       -1.81310
S         -1.38330        8.00040       -2.59310
C         -2.03900        9.01740       -1.24220
C         -0.77390        5.38400       -2.65570
C         -0.43110        4.15640       -2.14210
C         -0.04800        0.30820       -0.70370
S          1.43340       -0.35940       -0.09310
C         -2.80570        2.65030       -1.42260
S         -3.76990        2.86880       -2.85040
C         -4.50710        4.31660       -2.20430
C         -3.98390        4.61630       -0.95900
C         -4.18300        5.89890       -0.25630
O         -4.45050        6.93520       -0.84040
C         -3.84730        5.82950        1.16640
C         -4.16000        6.78560        2.09530
C         -4.94670        8.03650        1.92980
C         -4.12860        9.27350        2.30240
S         -3.52780        6.35960        3.65370
C         -2.82810        4.89540        3.04990
C         -2.07280        3.99910        3.96440
C         -2.96690        2.86990        4.48360
C         -3.10300        4.73540        1.71650
C         -2.65350        3.59420        0.91730
O         -2.05590        2.63980        1.39320
C         -3.07360        3.64910       -0.48350
C         -5.52460        4.96690       -2.94160
C         -6.56830        5.67290       -2.42090
C         -7.02530        5.63440       -1.01070
O         -6.45490        5.17830       -0.03760
C         -8.37760        6.21480       -1.01550
C         -9.23680        6.32570        0.07610
C        -10.43720        6.92580       -0.21610
C        -10.76670        7.37230       -1.50350
C         -9.93040        7.26570       -2.58930
C         -8.69810        6.66780       -2.31130
C         -7.56780        6.38910       -3.19110
C         -7.43860        6.80300       -4.49000
C         -6.30720        6.57540       -5.30340
N         -5.42940        6.43770       -6.03040
C         -8.41300        7.54570       -5.18870
N         -9.16480        8.14840       -5.81320
C        -12.12110        7.87310       -1.06920
C        -12.29390        9.40000       -0.87530
C        -10.92790        9.94590       -0.54080
C        -10.61280        9.52850        0.67800
C        -11.76000        8.69270        1.18970
C        -12.94030        9.41350        0.51910
C        -11.75190        7.38090        0.36580
H          5.13690       -6.44320        0.08540
H          1.56210       -8.61010        4.77980
H          5.39910      -11.30280        2.86070
H          4.52260      -12.50230        5.94380
H          3.56160      -14.14440        4.08000
H          3.00460      -15.15250        6.44170
H          0.98130      -13.77410        7.47330
H          0.29160      -11.91780        5.74640
H          0.93680      -13.80660        4.00830
H          1.70770      -12.28920        3.49350
H          2.53800      -11.15120        6.95630
H          6.76990       -0.47640        1.74140
H          7.52700        1.86760        1.72660
H          6.61790        3.45790        0.05790
H          4.60040        1.61180       -3.26720
H          4.42160        3.34040       -3.63370
H          2.46390        1.80700       -1.84680
H          2.29730        3.45850       -2.44820
H          2.22510        2.10300       -3.57790
H          4.15460        0.33660       -1.51860
H          7.46340       -4.24460        1.53260
H          9.93690       -4.18990        1.44860
H         11.09530       -2.63770       -0.02250
H         11.75430       -0.82180       -0.98160
H         11.36210        0.11900       -2.43420
H         12.73210       -1.88110       -3.01440
H         11.48540       -2.94420       -2.34630
H         11.13110       -1.95740       -3.76320
H          7.34430       -1.13170       -1.40260
H         -2.68910       -2.55450       -0.58400
H         -5.06620       -2.81620       -1.17820
H         -7.55300       -4.38960       -5.37600
H         -5.99420       -5.23080       -5.23660
H         -6.06450       -3.54980       -5.86200
H         -3.93370       -4.12890       -5.09010
H         -1.58650       -3.83480       -4.51020
H         -0.86770       -5.62450       -2.38070
H          0.97100       -7.19900       -2.84100
H          5.10660       -5.17370       -2.29410
H          6.01150       -6.57840       -2.89190
H          5.44240       -5.34850       -4.04800
H          3.58860       -3.91040       -3.61660
H          1.76800       -2.35490       -3.16670
H         -0.10510        1.21940        1.95190
H          1.68830        0.93750        3.63160
H          4.74970        4.38340        3.82140
H          5.89990        3.41780        2.84060
H          6.01330        3.41540        4.61470
H          4.07800        3.79520        1.52910
H          2.31980        4.05590       -0.12460
H         -0.21920        4.98740        1.12770
H         -0.85470        7.16550        0.22450
H         -1.25530        9.25650       -0.52900
H         -2.86890        8.49030       -0.78100
H         -2.39690        9.92780       -1.71280
H         -0.91150        5.51340       -3.71810
H         -0.30450        3.31250       -2.80350
H         -5.83180        7.98810        2.57110
H         -5.27500        8.10220        0.89180
H         -3.80840        9.21860        3.34110
H         -4.72750       10.17050        2.16910
H         -3.24720        9.35120        1.67010
H         -1.68590        4.57850        4.80540
H         -1.23700        3.55590        3.41770
H         -3.83280        3.27440        5.00330
H         -3.30610        2.25910        3.65150
H         -2.40630        2.24180        5.17050
H         -5.48440        4.81910       -4.01410
H         -8.94520        5.96130        1.04880
H        -10.20080        7.60710       -3.57470
H        -12.97840        7.41690       -1.56000
H        -12.82660        9.89940       -1.68000
H        -10.32560       10.51290       -1.22620
H         -9.69370        9.67720        1.21420
H        -11.80740        8.54920        2.26610
H        -13.09150       10.42110        0.90330
H        -13.87460        8.85620        0.57000
H        -12.37000        6.60550        0.81450
