
  xtb     02082211053D
 energy: -363.558737296006 gnorm: 0.000848338442 xtb: 6.4.1 (unknown)
208229  0     0  0            999 V2000
    4.6805   -2.1996   -8.3816 C   0  0  0  0  0  0  0  0  0  0  0  0
    5.7032   -3.0836   -8.4749 C   0  0  0  0  0  0  0  0  0  0  0  0
    6.4974   -3.2112   -9.7289 C   0  0  0  0  0  0  0  0  0  0  0  0
    6.1999   -2.7824  -10.8201 O   0  0  0  0  0  0  0  0  0  0  0  0
    7.7316   -3.9154   -9.3318 C   0  0  0  0  0  0  0  0  0  0  0  0
    8.8522   -4.1638  -10.1229 C   0  0  0  0  0  0  0  0  0  0  0  0
    9.8626   -4.8292   -9.4711 C   0  0  0  0  0  0  0  0  0  0  0  0
    9.7769   -5.2110   -8.1246 C   0  0  0  0  0  0  0  0  0  0  0  0
    8.6789   -4.9770   -7.3317 C   0  0  0  0  0  0  0  0  0  0  0  0
    7.6336   -4.3141   -7.9807 C   0  0  0  0  0  0  0  0  0  0  0  0
    6.3111   -3.9497   -7.4846 C   0  0  0  0  0  0  0  0  0  0  0  0
    5.6600   -4.5359   -6.4308 C   0  0  0  0  0  0  0  0  0  0  0  0
    4.2791   -4.3784   -6.1910 C   0  0  0  0  0  0  0  0  0  0  0  0
    3.1462   -4.3274   -6.0075 N   0  0  0  0  0  0  0  0  0  0  0  0
    6.2618   -5.4504   -5.5432 C   0  0  0  0  0  0  0  0  0  0  0  0
    6.7071   -6.1929   -4.7895 N   0  0  0  0  0  0  0  0  0  0  0  0
   11.1515   -5.8312   -8.1300 C   0  0  0  0  0  0  0  0  0  0  0  0
   11.2082   -7.3721   -8.2001 C   0  0  0  0  0  0  0  0  0  0  0  0
   12.6151   -7.6610   -8.6717 C   0  0  0  0  0  0  0  0  0  0  0  0
   12.6941   -7.3051   -9.9475 C   0  0  0  0  0  0  0  0  0  0  0  0
   11.3418   -6.7694  -10.3599 C   0  0  0  0  0  0  0  0  0  0  0  0
   10.4337   -7.6526   -9.4944 C   0  0  0  0  0  0  0  0  0  0  0  0
   11.2448   -5.4114   -9.6322 C   0  0  0  0  0  0  0  0  0  0  0  0
    4.0777   -1.7006   -7.1926 C   0  0  0  0  0  0  0  0  0  0  0  0
    2.7792   -1.3017   -7.0421 C   0  0  0  0  0  0  0  0  0  0  0  0
    2.4552   -0.8977   -5.7280 C   0  0  0  0  0  0  0  0  0  0  0  0
    1.1962   -0.5274   -5.2267 C   0  0  0  0  0  0  0  0  0  0  0  0
   -0.0443   -0.6832   -5.9927 C   0  0  0  0  0  0  0  0  0  0  0  0
   -0.3378   -1.9002   -6.6041 C   0  0  0  0  0  0  0  0  0  0  0  0
   -1.5606   -2.1235   -7.2022 C   0  0  0  0  0  0  0  0  0  0  0  0
   -2.5394   -1.1298   -7.2126 C   0  0  0  0  0  0  0  0  0  0  0  0
   -3.7811   -1.2445   -7.7125 O   0  0  0  0  0  0  0  0  0  0  0  0
   -4.2146   -2.4678   -8.2840 C   0  0  0  0  0  0  0  0  0  0  0  0
   -3.7230   -2.6467   -9.7161 C   0  0  0  0  0  0  0  0  0  0  0  0
   -2.2237    0.1101   -6.6302 C   0  0  0  0  0  0  0  0  0  0  0  0
   -3.2575    1.1976   -6.6683 C   0  0  0  0  0  0  0  0  0  0  0  0
   -3.6009    1.5424   -7.9221 F   0  0  0  0  0  0  0  0  0  0  0  0
   -4.3997    0.8620   -6.0443 F   0  0  0  0  0  0  0  0  0  0  0  0
   -2.8396    2.3303   -6.0775 F   0  0  0  0  0  0  0  0  0  0  0  0
   -1.0003    0.3253   -6.0240 C   0  0  0  0  0  0  0  0  0  0  0  0
    1.1514   -0.1277   -3.9026 C   0  0  0  0  0  0  0  0  0  0  0  0
    2.2716   -0.1707   -3.0346 C   0  0  0  0  0  0  0  0  0  0  0  0
    3.5287   -0.5716   -3.5278 C   0  0  0  0  0  0  0  0  0  0  0  0
    4.7001   -0.6612   -2.6459 C   0  0  0  0  0  0  0  0  0  0  0  0
    5.9123   -0.0741   -2.9959 C   0  0  0  0  0  0  0  0  0  0  0  0
    7.0158   -0.1473   -2.1681 C   0  0  0  0  0  0  0  0  0  0  0  0
    6.9489   -0.8235   -0.9507 C   0  0  0  0  0  0  0  0  0  0  0  0
    7.9549   -0.9945   -0.0779 O   0  0  0  0  0  0  0  0  0  0  0  0
    9.2164   -0.3884   -0.2986 C   0  0  0  0  0  0  0  0  0  0  0  0
    9.2191    1.0960    0.0464 C   0  0  0  0  0  0  0  0  0  0  0  0
    5.7243   -1.4208   -0.6019 C   0  0  0  0  0  0  0  0  0  0  0  0
    4.6251   -1.3443   -1.4354 C   0  0  0  0  0  0  0  0  0  0  0  0
    5.6463   -2.1751    0.6942 C   0  0  0  0  0  0  0  0  0  0  0  0
    5.9850   -1.4313    1.7599 F   0  0  0  0  0  0  0  0  0  0  0  0
    4.4067   -2.6305    0.9507 F   0  0  0  0  0  0  0  0  0  0  0  0
    6.4486   -3.2525    0.7166 F   0  0  0  0  0  0  0  0  0  0  0  0
    3.5867   -0.9058   -4.8703 C   0  0  0  0  0  0  0  0  0  0  0  0
    4.9986   -1.4945   -5.7063 S   0  0  0  0  0  0  0  0  0  0  0  0
    1.9141    0.1714   -1.7145 C   0  0  0  0  0  0  0  0  0  0  0  0
    0.5764    0.4311   -1.5424 C   0  0  0  0  0  0  0  0  0  0  0  0
   -0.2947    0.3515   -3.0577 S   0  0  0  0  0  0  0  0  0  0  0  0
   -0.0185    0.7883   -0.3026 C   0  0  0  0  0  0  0  0  0  0  0  0
   -1.3348    1.0167    0.0959 C   0  0  0  0  0  0  0  0  0  0  0  0
   -2.4828    0.8029   -0.6397 N   0  0  0  0  0  0  0  0  0  0  0  0
   -3.5956    1.6260   -0.3825 C   0  0  0  0  0  0  0  0  0  0  0  0
   -4.8647    1.0727   -0.2151 C   0  0  0  0  0  0  0  0  0  0  0  0
   -5.9372    1.8823    0.0784 C   0  0  0  0  0  0  0  0  0  0  0  0
   -5.7692    3.2599    0.2155 C   0  0  0  0  0  0  0  0  0  0  0  0
   -7.2114    4.1911    0.6126 S   0  0  0  0  0  0  0  0  0  0  0  0
   -6.5587    5.8261    1.0584 C   0  0  0  0  0  0  0  0  0  0  0  0
   -4.5119    3.8165    0.0254 C   0  0  0  0  0  0  0  0  0  0  0  0
   -3.4355    3.0036   -0.2731 C   0  0  0  0  0  0  0  0  0  0  0  0
   -2.6246   -0.2878   -1.5044 C   0  0  0  0  0  0  0  0  0  0  0  0
   -3.4290   -0.1763   -2.6416 C   0  0  0  0  0  0  0  0  0  0  0  0
   -3.5110   -1.2159   -3.5395 C   0  0  0  0  0  0  0  0  0  0  0  0
   -2.7880   -2.3872   -3.3289 C   0  0  0  0  0  0  0  0  0  0  0  0
   -2.8997   -3.6418   -4.5664 S   0  0  0  0  0  0  0  0  0  0  0  0
   -1.3765   -4.6004   -4.3107 C   0  0  0  0  0  0  0  0  0  0  0  0
   -2.0340   -2.5276   -2.1722 C   0  0  0  0  0  0  0  0  0  0  0  0
   -1.9598   -1.4889   -1.2653 C   0  0  0  0  0  0  0  0  0  0  0  0
   -1.3729    1.5004    1.4325 C   0  0  0  0  0  0  0  0  0  0  0  0
   -2.6457    1.9755    2.5002 S   0  0  0  0  0  0  0  0  0  0  0  0
   -1.4834    2.3141    3.7817 C   0  0  0  0  0  0  0  0  0  0  0  0
   -0.1753    2.0087    3.4097 C   0  0  0  0  0  0  0  0  0  0  0  0
    0.9624    2.0505    4.1941 N   0  0  0  0  0  0  0  0  0  0  0  0
    2.1945    2.1723    3.5161 C   0  0  0  0  0  0  0  0  0  0  0  0
    2.3748    3.1981    2.5919 C   0  0  0  0  0  0  0  0  0  0  0  0
    3.5056    3.2350    1.7997 C   0  0  0  0  0  0  0  0  0  0  0  0
    4.4658    2.2404    1.9238 C   0  0  0  0  0  0  0  0  0  0  0  0
    5.8556    2.1266    0.8377 S   0  0  0  0  0  0  0  0  0  0  0  0
    5.1764    2.8110   -0.7063 C   0  0  0  0  0  0  0  0  0  0  0  0
    4.3395    1.2747    2.9190 C   0  0  0  0  0  0  0  0  0  0  0  0
    3.2130    1.2406    3.7112 C   0  0  0  0  0  0  0  0  0  0  0  0
    0.9686    1.7756    5.5658 C   0  0  0  0  0  0  0  0  0  0  0  0
    0.0101    0.9610    6.1640 C   0  0  0  0  0  0  0  0  0  0  0  0
   -0.0318    0.8106    7.5363 C   0  0  0  0  0  0  0  0  0  0  0  0
    0.8969    1.4592    8.3398 C   0  0  0  0  0  0  0  0  0  0  0  0
    0.8687    1.4160   10.1023 S   0  0  0  0  0  0  0  0  0  0  0  0
   -0.8486    0.9702   10.4774 C   0  0  0  0  0  0  0  0  0  0  0  0
    1.9139    2.2006    7.7380 C   0  0  0  0  0  0  0  0  0  0  0  0
    1.9470    2.3641    6.3711 C   0  0  0  0  0  0  0  0  0  0  0  0
   -0.1410    1.5781    2.0584 C   0  0  0  0  0  0  0  0  0  0  0  0
    1.1264    1.0559    1.0119 S   0  0  0  0  0  0  0  0  0  0  0  0
   -2.0153    2.7605    5.0216 C   0  0  0  0  0  0  0  0  0  0  0  0
   -1.3907    3.4828    6.0232 C   0  0  0  0  0  0  0  0  0  0  0  0
   -2.1895    3.6302    7.1530 C   0  0  0  0  0  0  0  0  0  0  0  0
   -1.7393    4.3975    8.6555 S   0  0  0  0  0  0  0  0  0  0  0  0
   -0.0636    5.0498    8.3485 C   0  0  0  0  0  0  0  0  0  0  0  0
   -0.0833    6.3291    7.5342 C   0  0  0  0  0  0  0  0  0  0  0  0
   -3.4656    3.0469    7.0185 C   0  0  0  0  0  0  0  0  0  0  0  0
   -3.6546    2.3569    5.4243 S   0  0  0  0  0  0  0  0  0  0  0  0
   -4.3830    2.9532    8.0664 C   0  0  0  0  0  0  0  0  0  0  0  0
   -5.6710    2.4754    8.0620 C   0  0  0  0  0  0  0  0  0  0  0  0
   -6.4598    2.1561    6.8694 C   0  0  0  0  0  0  0  0  0  0  0  0
   -6.0687    2.0840    5.7164 O   0  0  0  0  0  0  0  0  0  0  0  0
   -7.8455    1.9646    7.3338 C   0  0  0  0  0  0  0  0  0  0  0  0
   -8.9645    1.6972    6.5500 C   0  0  0  0  0  0  0  0  0  0  0  0
  -10.1318    1.5790    7.2660 C   0  0  0  0  0  0  0  0  0  0  0  0
  -10.1836    1.7169    8.6590 C   0  0  0  0  0  0  0  0  0  0  0  0
   -9.0845    1.9735    9.4452 C   0  0  0  0  0  0  0  0  0  0  0  0
   -7.8872    2.0974    8.7370 C   0  0  0  0  0  0  0  0  0  0  0  0
   -6.5282    2.3429    9.2174 C   0  0  0  0  0  0  0  0  0  0  0  0
   -6.1266    2.3334   10.5301 C   0  0  0  0  0  0  0  0  0  0  0  0
   -4.7820    2.3647   10.9521 C   0  0  0  0  0  0  0  0  0  0  0  0
   -3.7116    2.3239   11.3683 N   0  0  0  0  0  0  0  0  0  0  0  0
   -6.9982    2.2088   11.6299 C   0  0  0  0  0  0  0  0  0  0  0  0
   -7.6516    2.1241   12.5708 N   0  0  0  0  0  0  0  0  0  0  0  0
  -11.6743    1.4921    8.7058 C   0  0  0  0  0  0  0  0  0  0  0  0
  -12.5865    2.7299    8.8921 C   0  0  0  0  0  0  0  0  0  0  0  0
  -11.8267    3.9099    8.3392 C   0  0  0  0  0  0  0  0  0  0  0  0
  -11.7767    3.7775    7.0205 C   0  0  0  0  0  0  0  0  0  0  0  0
  -12.5023    2.5055    6.6577 C   0  0  0  0  0  0  0  0  0  0  0  0
  -13.5853    2.4910    7.7483 C   0  0  0  0  0  0  0  0  0  0  0  0
  -11.6161    1.3361    7.1535 C   0  0  0  0  0  0  0  0  0  0  0  0
    4.3150   -1.7871   -9.3167 H   0  0  0  0  0  0  0  0  0  0  0  0
    8.8843   -3.8473  -11.1536 H   0  0  0  0  0  0  0  0  0  0  0  0
    8.6237   -5.2638   -6.2943 H   0  0  0  0  0  0  0  0  0  0  0  0
   11.8660   -5.4101   -7.4254 H   0  0  0  0  0  0  0  0  0  0  0  0
   10.8787   -7.8805   -7.2983 H   0  0  0  0  0  0  0  0  0  0  0  0
   13.3971   -8.0311   -8.0351 H   0  0  0  0  0  0  0  0  0  0  0  0
   13.5552   -7.3184  -10.5896 H   0  0  0  0  0  0  0  0  0  0  0  0
   11.1354   -6.7306  -11.4261 H   0  0  0  0  0  0  0  0  0  0  0  0
    9.3942   -7.3311   -9.4684 H   0  0  0  0  0  0  0  0  0  0  0  0
   10.4829   -8.7009   -9.7839 H   0  0  0  0  0  0  0  0  0  0  0  0
   12.0234   -4.7121   -9.9313 H   0  0  0  0  0  0  0  0  0  0  0  0
    2.0641   -1.3368   -7.8443 H   0  0  0  0  0  0  0  0  0  0  0  0
    0.3926   -2.6957   -6.5771 H   0  0  0  0  0  0  0  0  0  0  0  0
   -1.7576   -3.0886   -7.6380 H   0  0  0  0  0  0  0  0  0  0  0  0
   -5.3048   -2.3915   -8.2738 H   0  0  0  0  0  0  0  0  0  0  0  0
   -3.9193   -3.3089   -7.6468 H   0  0  0  0  0  0  0  0  0  0  0  0
   -4.0421   -1.8017  -10.3208 H   0  0  0  0  0  0  0  0  0  0  0  0
   -4.1427   -3.5578  -10.1330 H   0  0  0  0  0  0  0  0  0  0  0  0
   -2.6382   -2.7073   -9.7576 H   0  0  0  0  0  0  0  0  0  0  0  0
   -0.7878    1.2879   -5.5857 H   0  0  0  0  0  0  0  0  0  0  0  0
    5.9911    0.4661   -3.9279 H   0  0  0  0  0  0  0  0  0  0  0  0
    7.9330    0.3243   -2.4818 H   0  0  0  0  0  0  0  0  0  0  0  0
    9.8871   -0.9274    0.3753 H   0  0  0  0  0  0  0  0  0  0  0  0
    9.5493   -0.5595   -1.3294 H   0  0  0  0  0  0  0  0  0  0  0  0
    8.5557    1.6550   -0.6083 H   0  0  0  0  0  0  0  0  0  0  0  0
   10.2268    1.4903   -0.0490 H   0  0  0  0  0  0  0  0  0  0  0  0
    8.8756    1.2346    1.0676 H   0  0  0  0  0  0  0  0  0  0  0  0
    3.7108   -1.8436   -1.1545 H   0  0  0  0  0  0  0  0  0  0  0  0
    2.6146    0.2065   -0.8993 H   0  0  0  0  0  0  0  0  0  0  0  0
   -4.9973    0.0049   -0.3022 H   0  0  0  0  0  0  0  0  0  0  0  0
   -6.9183    1.4573    0.2221 H   0  0  0  0  0  0  0  0  0  0  0  0
   -7.4050    6.3832    1.4482 H   0  0  0  0  0  0  0  0  0  0  0  0
   -5.8009    5.7164    1.8284 H   0  0  0  0  0  0  0  0  0  0  0  0
   -6.1638    6.3281    0.1798 H   0  0  0  0  0  0  0  0  0  0  0  0
   -4.3553    4.8803    0.1013 H   0  0  0  0  0  0  0  0  0  0  0  0
   -2.4587    3.4403   -0.4236 H   0  0  0  0  0  0  0  0  0  0  0  0
   -3.9641    0.7409   -2.8323 H   0  0  0  0  0  0  0  0  0  0  0  0
   -4.1218   -1.1212   -4.4232 H   0  0  0  0  0  0  0  0  0  0  0  0
   -0.5351   -3.9203   -4.2206 H   0  0  0  0  0  0  0  0  0  0  0  0
   -1.4694   -5.2329   -3.4328 H   0  0  0  0  0  0  0  0  0  0  0  0
   -1.2598   -5.2207   -5.1936 H   0  0  0  0  0  0  0  0  0  0  0  0
   -1.4999   -3.4409   -1.9639 H   0  0  0  0  0  0  0  0  0  0  0  0
   -1.3672   -1.6069   -0.3701 H   0  0  0  0  0  0  0  0  0  0  0  0
    1.6062    3.9482    2.4731 H   0  0  0  0  0  0  0  0  0  0  0  0
    3.6200    4.0274    1.0772 H   0  0  0  0  0  0  0  0  0  0  0  0
    5.1991    3.8964   -0.6862 H   0  0  0  0  0  0  0  0  0  0  0  0
    4.1643    2.4435   -0.8440 H   0  0  0  0  0  0  0  0  0  0  0  0
    5.8123    2.4438   -1.5055 H   0  0  0  0  0  0  0  0  0  0  0  0
    5.1102    0.5296    3.0322 H   0  0  0  0  0  0  0  0  0  0  0  0
    3.0925    0.4657    4.4529 H   0  0  0  0  0  0  0  0  0  0  0  0
   -0.7130    0.4430    5.5530 H   0  0  0  0  0  0  0  0  0  0  0  0
   -0.7981    0.1886    7.9699 H   0  0  0  0  0  0  0  0  0  0  0  0
   -1.5223    1.5974    9.9020 H   0  0  0  0  0  0  0  0  0  0  0  0
   -1.0198   -0.0841   10.2803 H   0  0  0  0  0  0  0  0  0  0  0  0
   -0.9858    1.1730   11.5344 H   0  0  0  0  0  0  0  0  0  0  0  0
    2.6606    2.6680    8.3618 H   0  0  0  0  0  0  0  0  0  0  0  0
    2.7166    2.9713    5.9174 H   0  0  0  0  0  0  0  0  0  0  0  0
   -0.3994    3.8808    5.9208 H   0  0  0  0  0  0  0  0  0  0  0  0
    0.3254    5.2324    9.3502 H   0  0  0  0  0  0  0  0  0  0  0  0
    0.5274    4.2627    7.8827 H   0  0  0  0  0  0  0  0  0  0  0  0
    0.9339    6.6894    7.3944 H   0  0  0  0  0  0  0  0  0  0  0  0
   -0.5318    6.1657    6.5566 H   0  0  0  0  0  0  0  0  0  0  0  0
   -0.6563    7.0966    8.0493 H   0  0  0  0  0  0  0  0  0  0  0  0
   -3.9993    3.3260    9.0105 H   0  0  0  0  0  0  0  0  0  0  0  0
   -8.8806    1.5973    5.4790 H   0  0  0  0  0  0  0  0  0  0  0  0
   -9.1389    2.0775   10.5162 H   0  0  0  0  0  0  0  0  0  0  0  0
  -12.0092    0.6387    9.2921 H   0  0  0  0  0  0  0  0  0  0  0  0
  -12.9907    2.8458    9.8942 H   0  0  0  0  0  0  0  0  0  0  0  0
  -11.3678    4.6655    8.9497 H   0  0  0  0  0  0  0  0  0  0  0  0
  -11.2670    4.3998    6.3084 H   0  0  0  0  0  0  0  0  0  0  0  0
  -12.8298    2.4176    5.6250 H   0  0  0  0  0  0  0  0  0  0  0  0
  -14.3035    3.3024    7.6397 H   0  0  0  0  0  0  0  0  0  0  0  0
  -14.1123    1.5408    7.8238 H   0  0  0  0  0  0  0  0  0  0  0  0
  -11.9131    0.3803    6.7261 H   0  0  0  0  0  0  0  0  0  0  0  0
  1  2  2  0  0  0  0
  2  3  1  0  0  0  0
  3  4  2  0  0  0  0
  3  5  1  0  0  0  0
  5  6  2  0  0  0  0
  6  7  1  0  0  0  0
  7  8  2  0  0  0  0
  8  9  1  0  0  0  0
  9 10  2  0  0  0  0
 10 11  1  0  0  0  0
 11 12  2  0  0  0  0
 12 13  1  0  0  0  0
 13 14  3  0  0  0  0
 12 15  1  0  0  0  0
 15 16  3  0  0  0  0
  8 17  1  0  0  0  0
 17 18  1  0  0  0  0
 18 19  1  0  0  0  0
 19 20  2  0  0  0  0
 20 21  1  0  0  0  0
 21 22  1  0  0  0  0
 21 23  1  0  0  0  0
  1 24  1  0  0  0  0
 24 25  2  0  0  0  0
 25 26  1  0  0  0  0
 26 27  2  0  0  0  0
 27 28  1  0  0  0  0
 28 29  2  0  0  0  0
 29 30  1  0  0  0  0
 30 31  2  0  0  0  0
 31 32  1  0  0  0  0
 32 33  1  0  0  0  0
 33 34  1  0  0  0  0
 31 35  1  0  0  0  0
 35 36  1  0  0  0  0
 36 37  1  0  0  0  0
 36 38  1  0  0  0  0
 36 39  1  0  0  0  0
 35 40  2  0  0  0  0
 27 41  1  0  0  0  0
 41 42  2  0  0  0  0
 42 43  1  0  0  0  0
 43 44  1  0  0  0  0
 44 45  2  0  0  0  0
 45 46  1  0  0  0  0
 46 47  2  0  0  0  0
 47 48  1  0  0  0  0
 48 49  1  0  0  0  0
 49 50  1  0  0  0  0
 47 51  1  0  0  0  0
 51 52  2  0  0  0  0
 51 53  1  0  0  0  0
 53 54  1  0  0  0  0
 53 55  1  0  0  0  0
 53 56  1  0  0  0  0
 43 57  2  0  0  0  0
 57 58  1  0  0  0  0
 42 59  1  0  0  0  0
 59 60  2  0  0  0  0
 60 61  1  0  0  0  0
 60 62  1  0  0  0  0
 62 63  2  0  0  0  0
 63 64  1  0  0  0  0
 64 65  1  0  0  0  0
 65 66  2  0  0  0  0
 66 67  1  0  0  0  0
 67 68  2  0  0  0  0
 68 69  1  0  0  0  0
 69 70  1  0  0  0  0
 68 71  1  0  0  0  0
 71 72  2  0  0  0  0
 64 73  1  0  0  0  0
 73 74  2  0  0  0  0
 74 75  1  0  0  0  0
 75 76  2  0  0  0  0
 76 77  1  0  0  0  0
 77 78  1  0  0  0  0
 76 79  1  0  0  0  0
 79 80  2  0  0  0  0
 63 81  1  0  0  0  0
 81 82  1  0  0  0  0
 82 83  1  0  0  0  0
 83 84  2  0  0  0  0
 84 85  1  0  0  0  0
 85 86  1  0  0  0  0
 86 87  2  0  0  0  0
 87 88  1  0  0  0  0
 88 89  2  0  0  0  0
 89 90  1  0  0  0  0
 90 91  1  0  0  0  0
 89 92  1  0  0  0  0
 92 93  2  0  0  0  0
 85 94  1  0  0  0  0
 94 95  2  0  0  0  0
 95 96  1  0  0  0  0
 96 97  2  0  0  0  0
 97 98  1  0  0  0  0
 98 99  1  0  0  0  0
 97100  1  0  0  0  0
100101  2  0  0  0  0
 84102  1  0  0  0  0
102103  1  0  0  0  0
 83104  1  0  0  0  0
104105  2  0  0  0  0
105106  1  0  0  0  0
106107  1  0  0  0  0
107108  1  0  0  0  0
108109  1  0  0  0  0
106110  2  0  0  0  0
110111  1  0  0  0  0
110112  1  0  0  0  0
112113  2  0  0  0  0
113114  1  0  0  0  0
114115  2  0  0  0  0
114116  1  0  0  0  0
116117  2  0  0  0  0
117118  1  0  0  0  0
118119  2  0  0  0  0
119120  1  0  0  0  0
120121  2  0  0  0  0
121122  1  0  0  0  0
122123  2  0  0  0  0
123124  1  0  0  0  0
124125  3  0  0  0  0
123126  1  0  0  0  0
126127  3  0  0  0  0
119128  1  0  0  0  0
128129  1  0  0  0  0
129130  1  0  0  0  0
130131  2  0  0  0  0
131132  1  0  0  0  0
132133  1  0  0  0  0
132134  1  0  0  0  0
 11  2  1  0  0  0  0
 23 17  1  0  0  0  0
 58 24  1  0  0  0  0
103 62  1  0  0  0  0
111104  1  0  0  0  0
122113  1  0  0  0  0
134128  1  0  0  0  0
 10  5  1  0  0  0  0
 22 18  1  0  0  0  0
 57 26  1  0  0  0  0
 72 65  1  0  0  0  0
 80 73  1  0  0  0  0
102 81  2  0  0  0  0
121116  1  0  0  0  0
133129  1  0  0  0  0
 23  7  1  0  0  0  0
 40 28  1  0  0  0  0
 61 41  1  0  0  0  0
 93 86  1  0  0  0  0
101 94  1  0  0  0  0
134118  1  0  0  0  0
 52 44  1  0  0  0  0
  1135  1  0  0  0  0
  6136  1  0  0  0  0
  9137  1  0  0  0  0
 17138  1  0  0  0  0
 18139  1  0  0  0  0
 19140  1  0  0  0  0
 20141  1  0  0  0  0
 21142  1  0  0  0  0
 22143  1  0  0  0  0
 22144  1  0  0  0  0
 23145  1  0  0  0  0
 25146  1  0  0  0  0
 29147  1  0  0  0  0
 30148  1  0  0  0  0
 33149  1  0  0  0  0
 33150  1  0  0  0  0
 34151  1  0  0  0  0
 34152  1  0  0  0  0
 34153  1  0  0  0  0
 40154  1  0  0  0  0
 45155  1  0  0  0  0
 46156  1  0  0  0  0
 49157  1  0  0  0  0
 49158  1  0  0  0  0
 50159  1  0  0  0  0
 50160  1  0  0  0  0
 50161  1  0  0  0  0
 52162  1  0  0  0  0
 59163  1  0  0  0  0
 66164  1  0  0  0  0
 67165  1  0  0  0  0
 70166  1  0  0  0  0
 70167  1  0  0  0  0
 70168  1  0  0  0  0
 71169  1  0  0  0  0
 72170  1  0  0  0  0
 74171  1  0  0  0  0
 75172  1  0  0  0  0
 78173  1  0  0  0  0
 78174  1  0  0  0  0
 78175  1  0  0  0  0
 79176  1  0  0  0  0
 80177  1  0  0  0  0
 87178  1  0  0  0  0
 88179  1  0  0  0  0
 91180  1  0  0  0  0
 91181  1  0  0  0  0
 91182  1  0  0  0  0
 92183  1  0  0  0  0
 93184  1  0  0  0  0
 95185  1  0  0  0  0
 96186  1  0  0  0  0
 99187  1  0  0  0  0
 99188  1  0  0  0  0
 99189  1  0  0  0  0
100190  1  0  0  0  0
101191  1  0  0  0  0
105192  1  0  0  0  0
108193  1  0  0  0  0
108194  1  0  0  0  0
109195  1  0  0  0  0
109196  1  0  0  0  0
109197  1  0  0  0  0
112198  1  0  0  0  0
117199  1  0  0  0  0
120200  1  0  0  0  0
128201  1  0  0  0  0
129202  1  0  0  0  0
130203  1  0  0  0  0
131204  1  0  0  0  0
132205  1  0  0  0  0
133206  1  0  0  0  0
133207  1  0  0  0  0
134208  1  0  0  0  0
M  END
