
  xtb     02072210503D
 energy: -339.356244787663 gnorm: 0.000459291325 xtb: 6.4.1 (unknown)
182201  0     0  0            999 V2000
    6.6962    1.9993   -3.1002 C   0  0  0  0  0  0  0  0  0  0  0  0
    6.6547    0.8090   -3.7259 C   0  0  0  0  0  0  0  0  0  0  0  0
    5.5266   -0.1718   -3.6337 C   0  0  0  0  0  0  0  0  0  0  0  0
    4.3667    0.0650   -3.3798 O   0  0  0  0  0  0  0  0  0  0  0  0
    6.0958   -1.4517   -4.0902 C   0  0  0  0  0  0  0  0  0  0  0  0
    5.5046   -2.7117   -4.0201 C   0  0  0  0  0  0  0  0  0  0  0  0
    6.2820   -3.7272   -4.5209 C   0  0  0  0  0  0  0  0  0  0  0  0
    7.5579   -3.5092   -5.0628 C   0  0  0  0  0  0  0  0  0  0  0  0
    8.1531   -2.2752   -5.1436 C   0  0  0  0  0  0  0  0  0  0  0  0
    7.3765   -1.2263   -4.6396 C   0  0  0  0  0  0  0  0  0  0  0  0
    7.6918    0.1931   -4.5476 C   0  0  0  0  0  0  0  0  0  0  0  0
    8.7471    0.8268   -5.1380 C   0  0  0  0  0  0  0  0  0  0  0  0
    9.6950    0.1897   -5.9692 C   0  0  0  0  0  0  0  0  0  0  0  0
   10.4912   -0.2610   -6.6617 N   0  0  0  0  0  0  0  0  0  0  0  0
    9.0139    2.2108   -5.0392 C   0  0  0  0  0  0  0  0  0  0  0  0
    9.2978    3.3218   -5.0012 N   0  0  0  0  0  0  0  0  0  0  0  0
    7.7697   -4.9703   -5.3609 C   0  0  0  0  0  0  0  0  0  0  0  0
    7.5958   -5.4453   -6.8243 C   0  0  0  0  0  0  0  0  0  0  0  0
    6.6317   -4.4852   -7.4756 C   0  0  0  0  0  0  0  0  0  0  0  0
    5.4310   -4.6995   -6.9543 C   0  0  0  0  0  0  0  0  0  0  0  0
    5.5619   -5.8078   -5.9383 C   0  0  0  0  0  0  0  0  0  0  0  0
    6.6671   -6.6491   -6.5963 C   0  0  0  0  0  0  0  0  0  0  0  0
    6.3556   -5.2161   -4.7490 C   0  0  0  0  0  0  0  0  0  0  0  0
    5.7349    2.3839   -2.0843 C   0  0  0  0  0  0  0  0  0  0  0  0
    5.1773    3.6445   -2.0400 C   0  0  0  0  0  0  0  0  0  0  0  0
    5.4995    4.5405   -2.9824 F   0  0  0  0  0  0  0  0  0  0  0  0
    4.2004    3.9991   -1.0913 C   0  0  0  0  0  0  0  0  0  0  0  0
    3.6168    5.1976   -1.2059 F   0  0  0  0  0  0  0  0  0  0  0  0
    3.8006    3.1196   -0.1114 C   0  0  0  0  0  0  0  0  0  0  0  0
    4.4354    1.8499   -0.0627 C   0  0  0  0  0  0  0  0  0  0  0  0
    4.2072    1.0378    0.9751 N   0  0  0  0  0  0  0  0  0  0  0  0
    4.7108   -0.1725    0.9781 C   0  0  0  0  0  0  0  0  0  0  0  0
    4.5406   -0.9416    2.2100 C   0  0  0  0  0  0  0  0  0  0  0  0
    5.4902   -1.8499    2.6664 C   0  0  0  0  0  0  0  0  0  0  0  0
    5.3092   -2.5353    3.8535 C   0  0  0  0  0  0  0  0  0  0  0  0
    4.1653   -2.3467    4.6269 C   0  0  0  0  0  0  0  0  0  0  0  0
    3.8719   -2.9516    5.7946 O   0  0  0  0  0  0  0  0  0  0  0  0
    4.7465   -3.9229    6.3361 C   0  0  0  0  0  0  0  0  0  0  0  0
    4.6059   -5.2802    5.6539 C   0  0  0  0  0  0  0  0  0  0  0  0
    3.2264   -1.4121    4.1582 C   0  0  0  0  0  0  0  0  0  0  0  0
    3.4073   -0.7109    2.9923 C   0  0  0  0  0  0  0  0  0  0  0  0
    2.1089   -1.2043    4.8799 F   0  0  0  0  0  0  0  0  0  0  0  0
    5.4370   -0.6449   -0.1648 C   0  0  0  0  0  0  0  0  0  0  0  0
    5.8180    0.2026   -1.0906 N   0  0  0  0  0  0  0  0  0  0  0  0
    5.3575    1.4614   -1.0686 C   0  0  0  0  0  0  0  0  0  0  0  0
    5.7232   -2.0588   -0.4109 C   0  0  0  0  0  0  0  0  0  0  0  0
    4.7908   -3.0371   -0.0798 C   0  0  0  0  0  0  0  0  0  0  0  0
    5.0080   -4.3660   -0.3901 C   0  0  0  0  0  0  0  0  0  0  0  0
    6.1707   -4.7680   -1.0422 C   0  0  0  0  0  0  0  0  0  0  0  0
    6.4994   -6.0338   -1.3883 O   0  0  0  0  0  0  0  0  0  0  0  0
    5.6514   -7.1092   -1.0260 C   0  0  0  0  0  0  0  0  0  0  0  0
    4.4776   -7.2894   -1.9847 C   0  0  0  0  0  0  0  0  0  0  0  0
    7.0965   -3.7667   -1.3738 C   0  0  0  0  0  0  0  0  0  0  0  0
    8.2299   -4.1250   -2.0104 F   0  0  0  0  0  0  0  0  0  0  0  0
    6.8862   -2.4411   -1.0784 C   0  0  0  0  0  0  0  0  0  0  0  0
    2.7114    3.3899    0.8267 C   0  0  0  0  0  0  0  0  0  0  0  0
    1.6739    2.4484    0.9741 C   0  0  0  0  0  0  0  0  0  0  0  0
    1.4559    1.2788    0.3564 N   0  0  0  0  0  0  0  0  0  0  0  0
    0.3496    0.8397    0.8889 N   0  0  0  0  0  0  0  0  0  0  0  0
   -0.2362   -0.4077    0.4846 C   0  0  0  0  0  0  0  0  0  0  0  0
    0.7915   -1.5296    0.5534 C   0  0  0  0  0  0  0  0  0  0  0  0
   -0.2130    1.5908    1.7910 N   0  0  0  0  0  0  0  0  0  0  0  0
    0.5946    2.6575    1.8813 C   0  0  0  0  0  0  0  0  0  0  0  0
    0.5098    3.8174    2.6758 C   0  0  0  0  0  0  0  0  0  0  0  0
    1.5410    4.7179    2.5219 C   0  0  0  0  0  0  0  0  0  0  0  0
    2.6110    4.5110    1.6211 C   0  0  0  0  0  0  0  0  0  0  0  0
    3.5692    5.4462    1.5762 F   0  0  0  0  0  0  0  0  0  0  0  0
    1.5314    5.8663    3.2119 F   0  0  0  0  0  0  0  0  0  0  0  0
   -0.6531    4.0184    3.5405 C   0  0  0  0  0  0  0  0  0  0  0  0
   -0.5706    4.3117    4.8827 C   0  0  0  0  0  0  0  0  0  0  0  0
    0.6224    4.4623    5.4678 F   0  0  0  0  0  0  0  0  0  0  0  0
   -1.7208    4.3985    5.6910 C   0  0  0  0  0  0  0  0  0  0  0  0
   -1.5616    4.6571    6.9949 F   0  0  0  0  0  0  0  0  0  0  0  0
   -2.9815    4.1470    5.1949 C   0  0  0  0  0  0  0  0  0  0  0  0
   -3.0961    3.8792    3.8005 C   0  0  0  0  0  0  0  0  0  0  0  0
   -4.2954    3.6108    3.2691 N   0  0  0  0  0  0  0  0  0  0  0  0
   -4.4039    3.3301    1.9925 C   0  0  0  0  0  0  0  0  0  0  0  0
   -5.7202    2.8485    1.5692 C   0  0  0  0  0  0  0  0  0  0  0  0
   -5.8628    1.8148    0.6503 C   0  0  0  0  0  0  0  0  0  0  0  0
   -7.1126    1.3373    0.3040 C   0  0  0  0  0  0  0  0  0  0  0  0
   -8.2672    1.8725    0.8699 C   0  0  0  0  0  0  0  0  0  0  0  0
   -9.5374    1.4837    0.6202 O   0  0  0  0  0  0  0  0  0  0  0  0
   -9.8121    0.6400   -0.4836 C   0  0  0  0  0  0  0  0  0  0  0  0
   -9.6682    1.3594   -1.8198 C   0  0  0  0  0  0  0  0  0  0  0  0
   -8.1010    2.8910    1.8204 C   0  0  0  0  0  0  0  0  0  0  0  0
   -6.8639    3.3724    2.1723 C   0  0  0  0  0  0  0  0  0  0  0  0
   -9.1984    3.4113    2.4038 F   0  0  0  0  0  0  0  0  0  0  0  0
   -3.2661    3.4785    1.1334 C   0  0  0  0  0  0  0  0  0  0  0  0
   -2.0823    3.7095    1.6517 N   0  0  0  0  0  0  0  0  0  0  0  0
   -1.9453    3.8464    2.9759 C   0  0  0  0  0  0  0  0  0  0  0  0
   -3.3269    3.4661   -0.3289 C   0  0  0  0  0  0  0  0  0  0  0  0
   -2.1970    3.0845   -1.0475 C   0  0  0  0  0  0  0  0  0  0  0  0
   -2.1819    3.0822   -2.4286 C   0  0  0  0  0  0  0  0  0  0  0  0
   -3.3052    3.4765   -3.1535 C   0  0  0  0  0  0  0  0  0  0  0  0
   -3.4202    3.5378   -4.4948 O   0  0  0  0  0  0  0  0  0  0  0  0
   -2.3250    3.1859   -5.3208 C   0  0  0  0  0  0  0  0  0  0  0  0
   -2.1838    1.6768   -5.4929 C   0  0  0  0  0  0  0  0  0  0  0  0
   -4.4305    3.8740   -2.4128 C   0  0  0  0  0  0  0  0  0  0  0  0
   -5.5333    4.2714   -3.0801 F   0  0  0  0  0  0  0  0  0  0  0  0
   -4.4542    3.8823   -1.0391 C   0  0  0  0  0  0  0  0  0  0  0  0
   -4.1909    4.1878    5.9950 C   0  0  0  0  0  0  0  0  0  0  0  0
   -5.1656    3.2725    5.8296 C   0  0  0  0  0  0  0  0  0  0  0  0
   -4.9944    1.9969    5.0620 C   0  0  0  0  0  0  0  0  0  0  0  0
   -3.9610    1.4040    4.8471 O   0  0  0  0  0  0  0  0  0  0  0  0
   -6.3623    1.5313    4.7792 C   0  0  0  0  0  0  0  0  0  0  0  0
   -6.7331    0.4561    3.9746 C   0  0  0  0  0  0  0  0  0  0  0  0
   -8.0894    0.2592    3.8915 C   0  0  0  0  0  0  0  0  0  0  0  0
   -9.0168    1.0833    4.5470 C   0  0  0  0  0  0  0  0  0  0  0  0
   -8.6670    2.1345    5.3580 C   0  0  0  0  0  0  0  0  0  0  0  0
   -7.2875    2.3371    5.4762 C   0  0  0  0  0  0  0  0  0  0  0  0
   -6.5602    3.3365    6.2504 C   0  0  0  0  0  0  0  0  0  0  0  0
   -7.0875    4.1662    7.1980 C   0  0  0  0  0  0  0  0  0  0  0  0
   -6.3388    5.1043    7.9430 C   0  0  0  0  0  0  0  0  0  0  0  0
   -5.7925    5.8898    8.5761 N   0  0  0  0  0  0  0  0  0  0  0  0
   -8.4429    4.1636    7.5946 C   0  0  0  0  0  0  0  0  0  0  0  0
   -9.5259    4.2029    7.9720 N   0  0  0  0  0  0  0  0  0  0  0  0
  -10.1987    0.3265    3.9954 C   0  0  0  0  0  0  0  0  0  0  0  0
  -10.9459   -0.6340    4.9517 C   0  0  0  0  0  0  0  0  0  0  0  0
   -9.9418   -1.0531    5.9972 C   0  0  0  0  0  0  0  0  0  0  0  0
   -9.0547   -1.8460    5.4110 C   0  0  0  0  0  0  0  0  0  0  0  0
   -9.4443   -1.9800    3.9597 C   0  0  0  0  0  0  0  0  0  0  0  0
  -10.9745   -1.9005    4.0815 C   0  0  0  0  0  0  0  0  0  0  0  0
   -9.1658   -0.6095    3.2930 C   0  0  0  0  0  0  0  0  0  0  0  0
    7.4946    2.7045   -3.2924 H   0  0  0  0  0  0  0  0  0  0  0  0
    4.5247   -2.8380   -3.5859 H   0  0  0  0  0  0  0  0  0  0  0  0
    9.1403   -2.1237   -5.5473 H   0  0  0  0  0  0  0  0  0  0  0  0
    8.6218   -5.4317   -4.8673 H   0  0  0  0  0  0  0  0  0  0  0  0
    8.5265   -5.6241   -7.3553 H   0  0  0  0  0  0  0  0  0  0  0  0
    6.9234   -3.7330   -8.1848 H   0  0  0  0  0  0  0  0  0  0  0  0
    4.5196   -4.1620   -7.1405 H   0  0  0  0  0  0  0  0  0  0  0  0
    4.6409   -6.3170   -5.6635 H   0  0  0  0  0  0  0  0  0  0  0  0
    6.3446   -7.1145   -7.5265 H   0  0  0  0  0  0  0  0  0  0  0  0
    7.0913   -7.4031   -5.9345 H   0  0  0  0  0  0  0  0  0  0  0  0
    6.3051   -5.8304   -3.8542 H   0  0  0  0  0  0  0  0  0  0  0  0
    6.3968   -2.0112    2.1037 H   0  0  0  0  0  0  0  0  0  0  0  0
    6.0788   -3.2170    4.1773 H   0  0  0  0  0  0  0  0  0  0  0  0
    4.4418   -4.0014    7.3828 H   0  0  0  0  0  0  0  0  0  0  0  0
    5.7839   -3.5698    6.3024 H   0  0  0  0  0  0  0  0  0  0  0  0
    4.8898   -5.2240    4.6056 H   0  0  0  0  0  0  0  0  0  0  0  0
    5.2415   -6.0058    6.1533 H   0  0  0  0  0  0  0  0  0  0  0  0
    3.5735   -5.6152    5.7143 H   0  0  0  0  0  0  0  0  0  0  0  0
    2.6799    0.0200    2.6813 H   0  0  0  0  0  0  0  0  0  0  0  0
    3.8700   -2.7575    0.4083 H   0  0  0  0  0  0  0  0  0  0  0  0
    4.2540   -5.0877   -0.1208 H   0  0  0  0  0  0  0  0  0  0  0  0
    6.2996   -7.9888   -1.0652 H   0  0  0  0  0  0  0  0  0  0  0  0
    5.2995   -6.9856    0.0047 H   0  0  0  0  0  0  0  0  0  0  0  0
    4.8396   -7.5388   -2.9788 H   0  0  0  0  0  0  0  0  0  0  0  0
    3.8843   -6.3806   -2.0526 H   0  0  0  0  0  0  0  0  0  0  0  0
    3.8445   -8.0992   -1.6329 H   0  0  0  0  0  0  0  0  0  0  0  0
    7.6219   -1.7048   -1.3582 H   0  0  0  0  0  0  0  0  0  0  0  0
   -1.0793   -0.5859    1.1540 H   0  0  0  0  0  0  0  0  0  0  0  0
   -0.6022   -0.3010   -0.5418 H   0  0  0  0  0  0  0  0  0  0  0  0
    0.3601   -2.4483    0.1660 H   0  0  0  0  0  0  0  0  0  0  0  0
    1.1067   -1.6962    1.5805 H   0  0  0  0  0  0  0  0  0  0  0  0
    1.6594   -1.2625   -0.0448 H   0  0  0  0  0  0  0  0  0  0  0  0
   -4.9862    1.3688    0.2063 H   0  0  0  0  0  0  0  0  0  0  0  0
   -7.1789    0.5355   -0.4136 H   0  0  0  0  0  0  0  0  0  0  0  0
  -10.8516    0.3378   -0.3320 H   0  0  0  0  0  0  0  0  0  0  0  0
   -9.1822   -0.2582   -0.4523 H   0  0  0  0  0  0  0  0  0  0  0  0
  -10.3159    2.2319   -1.8388 H   0  0  0  0  0  0  0  0  0  0  0  0
   -8.6444    1.6891   -1.9800 H   0  0  0  0  0  0  0  0  0  0  0  0
   -9.9538    0.6908   -2.6269 H   0  0  0  0  0  0  0  0  0  0  0  0
   -6.7809    4.1622    2.9010 H   0  0  0  0  0  0  0  0  0  0  0  0
   -1.3173    2.7896   -0.4996 H   0  0  0  0  0  0  0  0  0  0  0  0
   -1.2804    2.7810   -2.9372 H   0  0  0  0  0  0  0  0  0  0  0  0
   -1.3974    3.6279   -4.9396 H   0  0  0  0  0  0  0  0  0  0  0  0
   -2.5581    3.6476   -6.2838 H   0  0  0  0  0  0  0  0  0  0  0  0
   -1.9743    1.1907   -4.5431 H   0  0  0  0  0  0  0  0  0  0  0  0
   -1.3718    1.4648   -6.1825 H   0  0  0  0  0  0  0  0  0  0  0  0
   -3.1057    1.2648   -5.8954 H   0  0  0  0  0  0  0  0  0  0  0  0
   -5.3407    4.2365   -0.5385 H   0  0  0  0  0  0  0  0  0  0  0  0
   -4.3106    5.0354    6.6567 H   0  0  0  0  0  0  0  0  0  0  0  0
   -5.9875   -0.1406    3.4727 H   0  0  0  0  0  0  0  0  0  0  0  0
   -9.3907    2.7598    5.8536 H   0  0  0  0  0  0  0  0  0  0  0  0
  -10.8670    0.9042    3.3612 H   0  0  0  0  0  0  0  0  0  0  0  0
  -11.8957   -0.2579    5.3211 H   0  0  0  0  0  0  0  0  0  0  0  0
   -9.9465   -0.6947    7.0097 H   0  0  0  0  0  0  0  0  0  0  0  0
   -8.1689   -2.2811    5.8355 H   0  0  0  0  0  0  0  0  0  0  0  0
   -9.0278   -2.8326    3.4288 H   0  0  0  0  0  0  0  0  0  0  0  0
  -11.4793   -1.7589    3.1267 H   0  0  0  0  0  0  0  0  0  0  0  0
  -11.4006   -2.7582    4.5998 H   0  0  0  0  0  0  0  0  0  0  0  0
   -9.1882   -0.6708    2.2075 H   0  0  0  0  0  0  0  0  0  0  0  0
  1  2  2  0  0  0  0
  2  3  1  0  0  0  0
  3  4  2  0  0  0  0
  3  5  1  0  0  0  0
  5  6  2  0  0  0  0
  6  7  1  0  0  0  0
  7  8  2  0  0  0  0
  8  9  1  0  0  0  0
  9 10  2  0  0  0  0
 10 11  1  0  0  0  0
 11 12  2  0  0  0  0
 12 13  1  0  0  0  0
 13 14  3  0  0  0  0
 12 15  1  0  0  0  0
 15 16  3  0  0  0  0
  8 17  1  0  0  0  0
 17 18  1  0  0  0  0
 18 19  1  0  0  0  0
 19 20  2  0  0  0  0
 20 21  1  0  0  0  0
 21 22  1  0  0  0  0
 21 23  1  0  0  0  0
  1 24  1  0  0  0  0
 24 25  2  0  0  0  0
 25 26  1  0  0  0  0
 25 27  1  0  0  0  0
 27 28  1  0  0  0  0
 27 29  2  0  0  0  0
 29 30  1  0  0  0  0
 30 31  2  0  0  0  0
 31 32  1  0  0  0  0
 32 33  1  0  0  0  0
 33 34  2  0  0  0  0
 34 35  1  0  0  0  0
 35 36  2  0  0  0  0
 36 37  1  0  0  0  0
 37 38  1  0  0  0  0
 38 39  1  0  0  0  0
 36 40  1  0  0  0  0
 40 41  2  0  0  0  0
 40 42  1  0  0  0  0
 32 43  2  0  0  0  0
 43 44  1  0  0  0  0
 44 45  2  0  0  0  0
 43 46  1  0  0  0  0
 46 47  2  0  0  0  0
 47 48  1  0  0  0  0
 48 49  2  0  0  0  0
 49 50  1  0  0  0  0
 50 51  1  0  0  0  0
 51 52  1  0  0  0  0
 49 53  1  0  0  0  0
 53 54  1  0  0  0  0
 53 55  2  0  0  0  0
 29 56  1  0  0  0  0
 56 57  1  0  0  0  0
 57 58  2  0  0  0  0
 58 59  1  0  0  0  0
 59 60  1  0  0  0  0
 60 61  1  0  0  0  0
 59 62  1  0  0  0  0
 62 63  2  0  0  0  0
 63 64  1  0  0  0  0
 64 65  2  0  0  0  0
 65 66  1  0  0  0  0
 66 67  1  0  0  0  0
 65 68  1  0  0  0  0
 64 69  1  0  0  0  0
 69 70  2  0  0  0  0
 70 71  1  0  0  0  0
 70 72  1  0  0  0  0
 72 73  1  0  0  0  0
 72 74  2  0  0  0  0
 74 75  1  0  0  0  0
 75 76  2  0  0  0  0
 76 77  1  0  0  0  0
 77 78  1  0  0  0  0
 78 79  2  0  0  0  0
 79 80  1  0  0  0  0
 80 81  2  0  0  0  0
 81 82  1  0  0  0  0
 82 83  1  0  0  0  0
 83 84  1  0  0  0  0
 81 85  1  0  0  0  0
 85 86  2  0  0  0  0
 85 87  1  0  0  0  0
 77 88  2  0  0  0  0
 88 89  1  0  0  0  0
 89 90  2  0  0  0  0
 88 91  1  0  0  0  0
 91 92  2  0  0  0  0
 92 93  1  0  0  0  0
 93 94  2  0  0  0  0
 94 95  1  0  0  0  0
 95 96  1  0  0  0  0
 96 97  1  0  0  0  0
 94 98  1  0  0  0  0
 98 99  1  0  0  0  0
 98100  2  0  0  0  0
 74101  1  0  0  0  0
101102  2  0  0  0  0
102103  1  0  0  0  0
103104  2  0  0  0  0
103105  1  0  0  0  0
105106  2  0  0  0  0
106107  1  0  0  0  0
107108  2  0  0  0  0
108109  1  0  0  0  0
109110  2  0  0  0  0
110111  1  0  0  0  0
111112  2  0  0  0  0
112113  1  0  0  0  0
113114  3  0  0  0  0
112115  1  0  0  0  0
115116  3  0  0  0  0
108117  1  0  0  0  0
117118  1  0  0  0  0
118119  1  0  0  0  0
119120  2  0  0  0  0
120121  1  0  0  0  0
121122  1  0  0  0  0
121123  1  0  0  0  0
 11  2  1  0  0  0  0
 23 17  1  0  0  0  0
 45 24  1  0  0  0  0
 55 46  1  0  0  0  0
 66 56  2  0  0  0  0
 90 69  1  0  0  0  0
100 91  1  0  0  0  0
111102  1  0  0  0  0
123117  1  0  0  0  0
 10  5  1  0  0  0  0
 22 18  1  0  0  0  0
 45 30  1  0  0  0  0
 63 57  1  0  0  0  0
 90 75  1  0  0  0  0
110105  1  0  0  0  0
122118  1  0  0  0  0
 23  7  1  0  0  0  0
 41 33  1  0  0  0  0
 86 78  1  0  0  0  0
123107  1  0  0  0  0
  1124  1  0  0  0  0
  6125  1  0  0  0  0
  9126  1  0  0  0  0
 17127  1  0  0  0  0
 18128  1  0  0  0  0
 19129  1  0  0  0  0
 20130  1  0  0  0  0
 21131  1  0  0  0  0
 22132  1  0  0  0  0
 22133  1  0  0  0  0
 23134  1  0  0  0  0
 34135  1  0  0  0  0
 35136  1  0  0  0  0
 38137  1  0  0  0  0
 38138  1  0  0  0  0
 39139  1  0  0  0  0
 39140  1  0  0  0  0
 39141  1  0  0  0  0
 41142  1  0  0  0  0
 47143  1  0  0  0  0
 48144  1  0  0  0  0
 51145  1  0  0  0  0
 51146  1  0  0  0  0
 52147  1  0  0  0  0
 52148  1  0  0  0  0
 52149  1  0  0  0  0
 55150  1  0  0  0  0
 60151  1  0  0  0  0
 60152  1  0  0  0  0
 61153  1  0  0  0  0
 61154  1  0  0  0  0
 61155  1  0  0  0  0
 79156  1  0  0  0  0
 80157  1  0  0  0  0
 83158  1  0  0  0  0
 83159  1  0  0  0  0
 84160  1  0  0  0  0
 84161  1  0  0  0  0
 84162  1  0  0  0  0
 86163  1  0  0  0  0
 92164  1  0  0  0  0
 93165  1  0  0  0  0
 96166  1  0  0  0  0
 96167  1  0  0  0  0
 97168  1  0  0  0  0
 97169  1  0  0  0  0
 97170  1  0  0  0  0
100171  1  0  0  0  0
101172  1  0  0  0  0
106173  1  0  0  0  0
109174  1  0  0  0  0
117175  1  0  0  0  0
118176  1  0  0  0  0
119177  1  0  0  0  0
120178  1  0  0  0  0
121179  1  0  0  0  0
122180  1  0  0  0  0
122181  1  0  0  0  0
123182  1  0  0  0  0
M  END
