
  xtb     02152217483D
 energy: -455.465992739514 gnorm: 0.000786761044 xtb: 6.4.1 (unknown)
286314  0     0  0            999 V2000
   -3.2425   10.3718   -0.7425 C   0  0  0  0  0  0  0  0  0  0  0  0
   -4.0363   10.6670    0.3171 C   0  0  0  0  0  0  0  0  0  0  0  0
   -4.6336   12.0212    0.4778 C   0  0  0  0  0  0  0  0  0  0  0  0
   -4.3096   13.0305   -0.1056 O   0  0  0  0  0  0  0  0  0  0  0  0
   -5.7307   11.8457    1.4498 C   0  0  0  0  0  0  0  0  0  0  0  0
   -6.6606   12.8026    1.8541 C   0  0  0  0  0  0  0  0  0  0  0  0
   -7.5772   12.3428    2.7688 C   0  0  0  0  0  0  0  0  0  0  0  0
   -7.5858   11.0218    3.2385 C   0  0  0  0  0  0  0  0  0  0  0  0
   -6.6758   10.0672    2.8532 C   0  0  0  0  0  0  0  0  0  0  0  0
   -5.7224   10.5207    1.9373 C   0  0  0  0  0  0  0  0  0  0  0  0
   -4.5724    9.8263    1.3701 C   0  0  0  0  0  0  0  0  0  0  0  0
   -3.9539    8.7303    1.9125 C   0  0  0  0  0  0  0  0  0  0  0  0
   -2.6564    8.3186    1.5403 C   0  0  0  0  0  0  0  0  0  0  0  0
   -1.5757    8.0032    1.3135 N   0  0  0  0  0  0  0  0  0  0  0  0
   -4.4926    7.9501    2.9544 C   0  0  0  0  0  0  0  0  0  0  0  0
   -4.8996    7.2631    3.7794 N   0  0  0  0  0  0  0  0  0  0  0  0
   -8.7787   11.2613    4.1295 C   0  0  0  0  0  0  0  0  0  0  0  0
   -8.4864   11.4229    5.6364 C   0  0  0  0  0  0  0  0  0  0  0  0
   -9.7209   12.1104    6.1732 C   0  0  0  0  0  0  0  0  0  0  0  0
   -9.7081   13.3626    5.7346 C   0  0  0  0  0  0  0  0  0  0  0  0
   -8.4646   13.5426    4.8938 C   0  0  0  0  0  0  0  0  0  0  0  0
   -7.5062   12.6031    5.6371 C   0  0  0  0  0  0  0  0  0  0  0  0
   -8.7649   12.7356    3.6124 C   0  0  0  0  0  0  0  0  0  0  0  0
   -2.8991    9.0756   -1.2179 C   0  0  0  0  0  0  0  0  0  0  0  0
   -1.7474    8.7122   -1.8604 C   0  0  0  0  0  0  0  0  0  0  0  0
   -1.6512    7.3273   -2.1215 C   0  0  0  0  0  0  0  0  0  0  0  0
   -0.5379    6.6138   -2.6173 C   0  0  0  0  0  0  0  0  0  0  0  0
    0.7543    7.2398   -2.7875 C   0  0  0  0  0  0  0  0  0  0  0  0
    1.3540    8.1259   -1.9307 C   0  0  0  0  0  0  0  0  0  0  0  0
    2.6607    8.4367   -2.3380 C   0  0  0  0  0  0  0  0  0  0  0  0
    3.9426    9.4114   -1.7129 S   0  0  0  0  0  0  0  0  0  0  0  0
    4.9932    8.9468   -3.0321 C   0  0  0  0  0  0  0  0  0  0  0  0
    6.7568    9.6187   -3.0709 Si  0  0  0  0  0  4  0  0  0  0  0  0
    7.7344    8.7864   -1.6526 C   0  0  0  0  0  0  0  0  0  0  0  0
    7.9086    7.2833   -1.8480 C   0  0  0  0  0  0  0  0  0  0  0  0
    7.4943    9.2102   -4.7847 C   0  0  0  0  0  0  0  0  0  0  0  0
    8.9150    9.7374   -4.9535 C   0  0  0  0  0  0  0  0  0  0  0  0
    6.6540   11.5042   -2.7646 C   0  0  0  0  0  0  0  0  0  0  0  0
    5.8297   12.2376   -3.8184 C   0  0  0  0  0  0  0  0  0  0  0  0
    4.3757    8.0905   -3.8960 C   0  0  0  0  0  0  0  0  0  0  0  0
    3.0584    7.7956   -3.5090 C   0  0  0  0  0  0  0  0  0  0  0  0
    1.7983    6.7884   -4.1245 S   0  0  0  0  0  0  0  0  0  0  0  0
   -0.7127    5.2484   -2.8002 C   0  0  0  0  0  0  0  0  0  0  0  0
   -1.8921    4.5599   -2.4241 C   0  0  0  0  0  0  0  0  0  0  0  0
   -2.9719    5.2546   -1.8383 C   0  0  0  0  0  0  0  0  0  0  0  0
   -4.0928    4.5722   -1.2274 C   0  0  0  0  0  0  0  0  0  0  0  0
   -3.8136    3.1039   -0.2939 S   0  0  0  0  0  0  0  0  0  0  0  0
   -5.4626    3.0727    0.2087 C   0  0  0  0  0  0  0  0  0  0  0  0
   -6.2327    2.2447    1.0419 C   0  0  0  0  0  0  0  0  0  0  0  0
   -7.5261    2.6651    1.1381 C   0  0  0  0  0  0  0  0  0  0  0  0
   -8.9196    1.9886    2.2162 Si  0  0  0  0  0  4  0  0  0  0  0  0
  -10.2941    1.3476    1.0406 C   0  0  0  0  0  0  0  0  0  0  0  0
  -11.6778    1.2783    1.6791 C   0  0  0  0  0  0  0  0  0  0  0  0
   -8.1600    0.6255    3.3186 C   0  0  0  0  0  0  0  0  0  0  0  0
   -9.1776   -0.0961    4.1945 C   0  0  0  0  0  0  0  0  0  0  0  0
   -9.5874    3.4538    3.2501 C   0  0  0  0  0  0  0  0  0  0  0  0
   -8.5083    4.1585    4.0681 C   0  0  0  0  0  0  0  0  0  0  0  0
   -7.8147    4.1039    0.1827 S   0  0  0  0  0  0  0  0  0  0  0  0
   -6.1693    4.1390   -0.3383 C   0  0  0  0  0  0  0  0  0  0  0  0
   -5.3946    4.9898   -1.1437 C   0  0  0  0  0  0  0  0  0  0  0  0
   -2.8283    6.6338   -1.7443 C   0  0  0  0  0  0  0  0  0  0  0  0
   -3.9887    7.7103   -1.0251 S   0  0  0  0  0  0  0  0  0  0  0  0
   -1.7676    3.1667   -2.5910 C   0  0  0  0  0  0  0  0  0  0  0  0
   -0.5276    2.7695   -3.0131 C   0  0  0  0  0  0  0  0  0  0  0  0
    0.5240    4.1330   -3.3206 S   0  0  0  0  0  0  0  0  0  0  0  0
    0.0073    1.4572   -2.9589 C   0  0  0  0  0  0  0  0  0  0  0  0
   -0.6874    0.2787   -2.6860 C   0  0  0  0  0  0  0  0  0  0  0  0
   -2.0307    0.1205   -2.9916 N   0  0  0  0  0  0  0  0  0  0  0  0
   -2.4709    0.6271   -4.2276 C   0  0  0  0  0  0  0  0  0  0  0  0
   -1.6629    0.4975   -5.3579 C   0  0  0  0  0  0  0  0  0  0  0  0
   -2.0628    1.0205   -6.5657 C   0  0  0  0  0  0  0  0  0  0  0  0
   -3.2834    1.6840   -6.6817 C   0  0  0  0  0  0  0  0  0  0  0  0
   -3.6851    2.3127   -8.2807 S   0  0  0  0  0  0  0  0  0  0  0  0
   -5.2660    3.1696   -8.0324 C   0  0  0  0  0  0  0  0  0  0  0  0
   -4.0982    1.8038   -5.5650 C   0  0  0  0  0  0  0  0  0  0  0  0
   -3.6926    1.2832   -4.3511 C   0  0  0  0  0  0  0  0  0  0  0  0
   -2.9499   -0.3678   -2.0617 C   0  0  0  0  0  0  0  0  0  0  0  0
   -4.0756   -1.0612   -2.5031 C   0  0  0  0  0  0  0  0  0  0  0  0
   -5.0538   -1.4484   -1.6130 C   0  0  0  0  0  0  0  0  0  0  0  0
   -4.9220   -1.1408   -0.2665 C   0  0  0  0  0  0  0  0  0  0  0  0
   -6.1663   -1.5656    0.9194 S   0  0  0  0  0  0  0  0  0  0  0  0
   -7.6908   -1.5726   -0.0644 C   0  0  0  0  0  0  0  0  0  0  0  0
   -3.7750   -0.5013    0.1897 C   0  0  0  0  0  0  0  0  0  0  0  0
   -2.7899   -0.1263   -0.6981 C   0  0  0  0  0  0  0  0  0  0  0  0
    0.1851   -0.7086   -2.1787 C   0  0  0  0  0  0  0  0  0  0  0  0
   -0.0031   -2.2746   -1.4652 S   0  0  0  0  0  0  0  0  0  0  0  0
    1.7333   -2.3782   -1.1560 C   0  0  0  0  0  0  0  0  0  0  0  0
    2.4198   -1.2875   -1.6891 C   0  0  0  0  0  0  0  0  0  0  0  0
    3.8019   -1.1274   -1.7669 N   0  0  0  0  0  0  0  0  0  0  0  0
    4.2320    0.2152   -1.6757 C   0  0  0  0  0  0  0  0  0  0  0  0
    4.9614    0.8318   -2.6925 C   0  0  0  0  0  0  0  0  0  0  0  0
    5.2059    2.1860   -2.6442 C   0  0  0  0  0  0  0  0  0  0  0  0
    4.7217    2.9569   -1.5900 C   0  0  0  0  0  0  0  0  0  0  0  0
    4.9876    4.7002   -1.6818 S   0  0  0  0  0  0  0  0  0  0  0  0
    3.6841    5.3693   -0.6108 C   0  0  0  0  0  0  0  0  0  0  0  0
    4.0560    2.3364   -0.5413 C   0  0  0  0  0  0  0  0  0  0  0  0
    3.8172    0.9766   -0.5858 C   0  0  0  0  0  0  0  0  0  0  0  0
    4.5849   -2.0663   -2.4492 C   0  0  0  0  0  0  0  0  0  0  0  0
    4.0140   -3.0708   -3.2322 C   0  0  0  0  0  0  0  0  0  0  0  0
    4.8107   -3.9675   -3.9085 C   0  0  0  0  0  0  0  0  0  0  0  0
    6.1965   -3.8659   -3.8478 C   0  0  0  0  0  0  0  0  0  0  0  0
    7.1329   -5.0581   -4.7566 S   0  0  0  0  0  0  0  0  0  0  0  0
    8.7418   -4.2449   -4.9791 C   0  0  0  0  0  0  0  0  0  0  0  0
    6.7724   -2.8706   -3.0699 C   0  0  0  0  0  0  0  0  0  0  0  0
    5.9746   -1.9965   -2.3621 C   0  0  0  0  0  0  0  0  0  0  0  0
    1.5211   -0.3269   -2.1962 C   0  0  0  0  0  0  0  0  0  0  0  0
    1.7398    1.2661   -2.8269 S   0  0  0  0  0  0  0  0  0  0  0  0
    2.2557   -3.4672   -0.4194 C   0  0  0  0  0  0  0  0  0  0  0  0
    1.5535   -4.5530    0.0964 C   0  0  0  0  0  0  0  0  0  0  0  0
    0.1607   -4.7134    0.0882 N   0  0  0  0  0  0  0  0  0  0  0  0
   -0.6108   -3.8742    0.9066 C   0  0  0  0  0  0  0  0  0  0  0  0
   -0.0245   -3.0016    1.8235 C   0  0  0  0  0  0  0  0  0  0  0  0
   -0.8074   -2.2246    2.6497 C   0  0  0  0  0  0  0  0  0  0  0  0
   -2.1922   -2.3139    2.5954 C   0  0  0  0  0  0  0  0  0  0  0  0
   -3.1246   -1.3160    3.7247 S   0  0  0  0  0  0  0  0  0  0  0  0
   -4.5484   -2.3825    4.0974 C   0  0  0  0  0  0  0  0  0  0  0  0
   -2.7864   -3.1480    1.6568 C   0  0  0  0  0  0  0  0  0  0  0  0
   -2.0029   -3.9072    0.8130 C   0  0  0  0  0  0  0  0  0  0  0  0
   -0.2372   -6.0568   -0.1002 C   0  0  0  0  0  0  0  0  0  0  0  0
   -1.0088   -6.7408    0.8332 C   0  0  0  0  0  0  0  0  0  0  0  0
   -1.2676   -8.0870    0.6794 C   0  0  0  0  0  0  0  0  0  0  0  0
   -0.7394   -8.7787   -0.4007 C   0  0  0  0  0  0  0  0  0  0  0  0
   -0.9561  -10.5138   -0.6310 S   0  0  0  0  0  0  0  0  0  0  0  0
   -1.4889  -11.0749    1.0143 C   0  0  0  0  0  0  0  0  0  0  0  0
    0.0035   -8.0929   -1.3572 C   0  0  0  0  0  0  0  0  0  0  0  0
    0.2489   -6.7453   -1.2107 C   0  0  0  0  0  0  0  0  0  0  0  0
    2.4077   -5.4686    0.7405 C   0  0  0  0  0  0  0  0  0  0  0  0
    2.1413   -7.0018    1.4775 S   0  0  0  0  0  0  0  0  0  0  0  0
    3.8215   -7.0498    2.0159 C   0  0  0  0  0  0  0  0  0  0  0  0
    4.5149   -5.8662    1.6556 C   0  0  0  0  0  0  0  0  0  0  0  0
    5.7813   -5.5386    2.0898 N   0  0  0  0  0  0  0  0  0  0  0  0
    6.6980   -4.9451    1.2145 C   0  0  0  0  0  0  0  0  0  0  0  0
    6.8353   -5.4214   -0.0895 C   0  0  0  0  0  0  0  0  0  0  0  0
    7.8286   -4.9280   -0.9057 C   0  0  0  0  0  0  0  0  0  0  0  0
    8.6915   -3.9366   -0.4447 C   0  0  0  0  0  0  0  0  0  0  0  0
    9.9833   -3.4099   -1.5327 S   0  0  0  0  0  0  0  0  0  0  0  0
   11.1050   -2.4699   -0.4624 C   0  0  0  0  0  0  0  0  0  0  0  0
    8.5120   -3.4086    0.8261 C   0  0  0  0  0  0  0  0  0  0  0  0
    7.5255   -3.9122    1.6480 C   0  0  0  0  0  0  0  0  0  0  0  0
    6.0812   -5.6111    3.4630 C   0  0  0  0  0  0  0  0  0  0  0  0
    5.0957   -5.3506    4.4139 C   0  0  0  0  0  0  0  0  0  0  0  0
    5.3934   -5.4219    5.7568 C   0  0  0  0  0  0  0  0  0  0  0  0
    6.6802   -5.7441    6.1754 C   0  0  0  0  0  0  0  0  0  0  0  0
    6.9807   -5.8445    7.9095 S   0  0  0  0  0  0  0  0  0  0  0  0
    8.3127   -7.0792    7.9851 C   0  0  0  0  0  0  0  0  0  0  0  0
    7.6726   -5.9712    5.2298 C   0  0  0  0  0  0  0  0  0  0  0  0
    7.3720   -5.9164    3.8855 C   0  0  0  0  0  0  0  0  0  0  0  0
    3.7260   -5.0392    0.8442 C   0  0  0  0  0  0  0  0  0  0  0  0
    3.9625   -3.5223    0.0287 S   0  0  0  0  0  0  0  0  0  0  0  0
    4.4235   -8.1612    2.6155 C   0  0  0  0  0  0  0  0  0  0  0  0
    3.9715   -9.4620    2.6721 C   0  0  0  0  0  0  0  0  0  0  0  0
    2.7175   -9.9807    2.1106 C   0  0  0  0  0  0  0  0  0  0  0  0
    1.6944   -9.3659    1.8581 O   0  0  0  0  0  0  0  0  0  0  0  0
    2.9013  -11.4352    1.9632 C   0  0  0  0  0  0  0  0  0  0  0  0
    2.0493  -12.3326    1.3245 C   0  0  0  0  0  0  0  0  0  0  0  0
    2.4904  -13.6341    1.3510 C   0  0  0  0  0  0  0  0  0  0  0  0
    3.6892  -14.0151    1.9666 C   0  0  0  0  0  0  0  0  0  0  0  0
    4.5427  -13.1370    2.5927 C   0  0  0  0  0  0  0  0  0  0  0  0
    4.1141  -11.8071    2.5745 C   0  0  0  0  0  0  0  0  0  0  0  0
    4.7459  -10.6017    3.1114 C   0  0  0  0  0  0  0  0  0  0  0  0
    5.8354  -10.5973    3.9462 C   0  0  0  0  0  0  0  0  0  0  0  0
    6.3588   -9.4771    4.6155 C   0  0  0  0  0  0  0  0  0  0  0  0
    6.8356   -8.6538    5.2602 N   0  0  0  0  0  0  0  0  0  0  0  0
    6.5485  -11.7488    4.3369 C   0  0  0  0  0  0  0  0  0  0  0  0
    7.1887  -12.6349    4.6904 N   0  0  0  0  0  0  0  0  0  0  0  0
    3.5113  -15.4671    1.5966 C   0  0  0  0  0  0  0  0  0  0  0  0
    4.3550  -15.9854    0.4130 C   0  0  0  0  0  0  0  0  0  0  0  0
    3.6378  -17.2441   -0.0192 C   0  0  0  0  0  0  0  0  0  0  0  0
    2.5034  -16.8815   -0.6042 C   0  0  0  0  0  0  0  0  0  0  0  0
    2.4342  -15.3716   -0.5768 C   0  0  0  0  0  0  0  0  0  0  0  0
    3.9252  -15.0371   -0.7138 C   0  0  0  0  0  0  0  0  0  0  0  0
    2.1747  -15.0412    0.9084 C   0  0  0  0  0  0  0  0  0  0  0  0
   -2.8659   11.2147   -1.3128 H   0  0  0  0  0  0  0  0  0  0  0  0
   -6.6275   13.8073    1.4628 H   0  0  0  0  0  0  0  0  0  0  0  0
   -6.6932    9.0509    3.2114 H   0  0  0  0  0  0  0  0  0  0  0  0
   -9.6538   10.6464    3.9283 H   0  0  0  0  0  0  0  0  0  0  0  0
   -8.1742   10.5117    6.1391 H   0  0  0  0  0  0  0  0  0  0  0  0
  -10.4793   11.6163    6.7518 H   0  0  0  0  0  0  0  0  0  0  0  0
  -10.4536   14.1235    5.8735 H   0  0  0  0  0  0  0  0  0  0  0  0
   -8.1336   14.5633    4.7223 H   0  0  0  0  0  0  0  0  0  0  0  0
   -7.2853   12.9537    6.6439 H   0  0  0  0  0  0  0  0  0  0  0  0
   -6.5754   12.4075    5.1080 H   0  0  0  0  0  0  0  0  0  0  0  0
   -9.6325   13.1067    3.0699 H   0  0  0  0  0  0  0  0  0  0  0  0
   -0.9715    9.4173   -2.0975 H   0  0  0  0  0  0  0  0  0  0  0  0
    0.8982    8.4786   -1.0237 H   0  0  0  0  0  0  0  0  0  0  0  0
    7.2164    8.9619   -0.7083 H   0  0  0  0  0  0  0  0  0  0  0  0
    8.7169    9.2499   -1.5544 H   0  0  0  0  0  0  0  0  0  0  0  0
    6.9439    6.7910   -1.9428 H   0  0  0  0  0  0  0  0  0  0  0  0
    8.4827    7.0766   -2.7474 H   0  0  0  0  0  0  0  0  0  0  0  0
    8.4331    6.8420   -1.0026 H   0  0  0  0  0  0  0  0  0  0  0  0
    7.4988    8.1301   -4.9338 H   0  0  0  0  0  0  0  0  0  0  0  0
    6.8651    9.6275   -5.5717 H   0  0  0  0  0  0  0  0  0  0  0  0
    9.5743    9.3097   -4.2023 H   0  0  0  0  0  0  0  0  0  0  0  0
    8.9387   10.8191   -4.8486 H   0  0  0  0  0  0  0  0  0  0  0  0
    9.3095    9.4831   -5.9360 H   0  0  0  0  0  0  0  0  0  0  0  0
    6.2097   11.6831   -1.7842 H   0  0  0  0  0  0  0  0  0  0  0  0
    7.6552   11.9352   -2.7319 H   0  0  0  0  0  0  0  0  0  0  0  0
    4.8180   11.8403   -3.8549 H   0  0  0  0  0  0  0  0  0  0  0  0
    6.2742   12.1236   -4.8039 H   0  0  0  0  0  0  0  0  0  0  0  0
    5.7700   13.3007   -3.5928 H   0  0  0  0  0  0  0  0  0  0  0  0
    4.8541    7.6857   -4.7676 H   0  0  0  0  0  0  0  0  0  0  0  0
   -5.8512    1.3836    1.5569 H   0  0  0  0  0  0  0  0  0  0  0  0
  -10.0305    0.3581    0.6651 H   0  0  0  0  0  0  0  0  0  0  0  0
  -10.3466    2.0014    0.1680 H   0  0  0  0  0  0  0  0  0  0  0  0
  -12.0003    2.2650    2.0001 H   0  0  0  0  0  0  0  0  0  0  0  0
  -12.4103    0.8957    0.9700 H   0  0  0  0  0  0  0  0  0  0  0  0
  -11.6731    0.6248    2.5474 H   0  0  0  0  0  0  0  0  0  0  0  0
   -7.6432   -0.1118    2.7041 H   0  0  0  0  0  0  0  0  0  0  0  0
   -7.3975    1.0709    3.9590 H   0  0  0  0  0  0  0  0  0  0  0  0
   -8.6863   -0.8302    4.8309 H   0  0  0  0  0  0  0  0  0  0  0  0
   -9.9100   -0.6180    3.5834 H   0  0  0  0  0  0  0  0  0  0  0  0
   -9.7062    0.6069    4.8335 H   0  0  0  0  0  0  0  0  0  0  0  0
  -10.0500    4.1808    2.5795 H   0  0  0  0  0  0  0  0  0  0  0  0
  -10.3734    3.1090    3.9233 H   0  0  0  0  0  0  0  0  0  0  0  0
   -8.0593    3.4762    4.7852 H   0  0  0  0  0  0  0  0  0  0  0  0
   -7.7194    4.5358    3.4220 H   0  0  0  0  0  0  0  0  0  0  0  0
   -8.9283    4.9995    4.6167 H   0  0  0  0  0  0  0  0  0  0  0  0
   -5.7839    5.8486   -1.6592 H   0  0  0  0  0  0  0  0  0  0  0  0
   -2.5421    2.4749   -2.3324 H   0  0  0  0  0  0  0  0  0  0  0  0
   -0.7177   -0.0187   -5.2830 H   0  0  0  0  0  0  0  0  0  0  0  0
   -1.4364    0.9183   -7.4383 H   0  0  0  0  0  0  0  0  0  0  0  0
   -5.5180    3.6002   -8.9965 H   0  0  0  0  0  0  0  0  0  0  0  0
   -5.1480    3.9587   -7.2955 H   0  0  0  0  0  0  0  0  0  0  0  0
   -6.0330    2.4605   -7.7347 H   0  0  0  0  0  0  0  0  0  0  0  0
   -5.0488    2.3093   -5.6182 H   0  0  0  0  0  0  0  0  0  0  0  0
   -4.3380    1.3910   -3.4914 H   0  0  0  0  0  0  0  0  0  0  0  0
   -4.1840   -1.2876   -3.5533 H   0  0  0  0  0  0  0  0  0  0  0  0
   -5.9149   -1.9849   -1.9793 H   0  0  0  0  0  0  0  0  0  0  0  0
   -7.7342   -2.4568   -0.6938 H   0  0  0  0  0  0  0  0  0  0  0  0
   -7.7374   -0.6625   -0.6548 H   0  0  0  0  0  0  0  0  0  0  0  0
   -8.5053   -1.5957    0.6530 H   0  0  0  0  0  0  0  0  0  0  0  0
   -3.6697   -0.2733    1.2383 H   0  0  0  0  0  0  0  0  0  0  0  0
   -1.9133    0.3938   -0.3428 H   0  0  0  0  0  0  0  0  0  0  0  0
    5.2933    0.2543   -3.5419 H   0  0  0  0  0  0  0  0  0  0  0  0
    5.7404    2.6715   -3.4460 H   0  0  0  0  0  0  0  0  0  0  0  0
    2.7303    4.9322   -0.8914 H   0  0  0  0  0  0  0  0  0  0  0  0
    3.6706    6.4392   -0.7927 H   0  0  0  0  0  0  0  0  0  0  0  0
    3.9138    5.1823    0.4339 H   0  0  0  0  0  0  0  0  0  0  0  0
    3.7038    2.9030    0.3056 H   0  0  0  0  0  0  0  0  0  0  0  0
    3.2715    0.4986    0.2148 H   0  0  0  0  0  0  0  0  0  0  0  0
    2.9411   -3.1422   -3.3255 H   0  0  0  0  0  0  0  0  0  0  0  0
    4.3645   -4.7444   -4.5103 H   0  0  0  0  0  0  0  0  0  0  0  0
    8.5849   -3.2358   -5.3470 H   0  0  0  0  0  0  0  0  0  0  0  0
    9.3013   -4.2390   -4.0481 H   0  0  0  0  0  0  0  0  0  0  0  0
    9.2688   -4.8354   -5.7220 H   0  0  0  0  0  0  0  0  0  0  0  0
    7.8430   -2.7729   -3.0034 H   0  0  0  0  0  0  0  0  0  0  0  0
    6.4313   -1.2433   -1.7382 H   0  0  0  0  0  0  0  0  0  0  0  0
    1.0500   -2.9470    1.9109 H   0  0  0  0  0  0  0  0  0  0  0  0
   -0.3490   -1.5596    3.3656 H   0  0  0  0  0  0  0  0  0  0  0  0
   -5.2684   -2.3513    3.2858 H   0  0  0  0  0  0  0  0  0  0  0  0
   -4.9937   -1.9788    5.0011 H   0  0  0  0  0  0  0  0  0  0  0  0
   -4.1954   -3.3938    4.2719 H   0  0  0  0  0  0  0  0  0  0  0  0
   -3.8604   -3.2064    1.5793 H   0  0  0  0  0  0  0  0  0  0  0  0
   -2.4688   -4.5445    0.0768 H   0  0  0  0  0  0  0  0  0  0  0  0
   -1.3820   -6.2260    1.7055 H   0  0  0  0  0  0  0  0  0  0  0  0
   -1.8587   -8.5876    1.4281 H   0  0  0  0  0  0  0  0  0  0  0  0
   -2.5124  -10.7647    1.2056 H   0  0  0  0  0  0  0  0  0  0  0  0
   -0.8069  -10.6751    1.7597 H   0  0  0  0  0  0  0  0  0  0  0  0
   -1.4376  -12.1596    0.9943 H   0  0  0  0  0  0  0  0  0  0  0  0
    0.4003   -8.6317   -2.2041 H   0  0  0  0  0  0  0  0  0  0  0  0
    0.8467   -6.2184   -1.9401 H   0  0  0  0  0  0  0  0  0  0  0  0
    6.1833   -6.2050   -0.4457 H   0  0  0  0  0  0  0  0  0  0  0  0
    7.9592   -5.3324   -1.8968 H   0  0  0  0  0  0  0  0  0  0  0  0
   10.6483   -1.5277   -0.1730 H   0  0  0  0  0  0  0  0  0  0  0  0
   11.3658   -3.0676    0.4060 H   0  0  0  0  0  0  0  0  0  0  0  0
   11.9899   -2.2792   -1.0618 H   0  0  0  0  0  0  0  0  0  0  0  0
    9.1351   -2.6085    1.1920 H   0  0  0  0  0  0  0  0  0  0  0  0
    7.3993   -3.5077    2.6410 H   0  0  0  0  0  0  0  0  0  0  0  0
    4.0955   -5.0982    4.0943 H   0  0  0  0  0  0  0  0  0  0  0  0
    4.6301   -5.2309    6.4951 H   0  0  0  0  0  0  0  0  0  0  0  0
    8.3008   -7.4745    8.9959 H   0  0  0  0  0  0  0  0  0  0  0  0
    8.0931   -7.8642    7.2684 H   0  0  0  0  0  0  0  0  0  0  0  0
    9.2741   -6.6143    7.7849 H   0  0  0  0  0  0  0  0  0  0  0  0
    8.6784   -6.2104    5.5330 H   0  0  0  0  0  0  0  0  0  0  0  0
    8.1399   -6.1187    3.1533 H   0  0  0  0  0  0  0  0  0  0  0  0
    5.4311   -7.9860    2.9802 H   0  0  0  0  0  0  0  0  0  0  0  0
    1.1442  -11.9983    0.8448 H   0  0  0  0  0  0  0  0  0  0  0  0
    5.4678  -13.4443    3.0507 H   0  0  0  0  0  0  0  0  0  0  0  0
    3.4689  -16.1672    2.4288 H   0  0  0  0  0  0  0  0  0  0  0  0
    5.4188  -16.0735    0.6165 H   0  0  0  0  0  0  0  0  0  0  0  0
    3.9913  -18.2371    0.1881 H   0  0  0  0  0  0  0  0  0  0  0  0
    1.7200  -17.5113   -0.9833 H   0  0  0  0  0  0  0  0  0  0  0  0
    1.7485  -14.8990   -1.2749 H   0  0  0  0  0  0  0  0  0  0  0  0
    4.1637  -13.9914   -0.5295 H   0  0  0  0  0  0  0  0  0  0  0  0
    4.3270  -15.3373   -1.6802 H   0  0  0  0  0  0  0  0  0  0  0  0
    1.2413  -15.4600    1.2806 H   0  0  0  0  0  0  0  0  0  0  0  0
  1  2  2  0  0  0  0
  2  3  1  0  0  0  0
  3  4  2  0  0  0  0
  3  5  1  0  0  0  0
  5  6  2  0  0  0  0
  6  7  1  0  0  0  0
  7  8  2  0  0  0  0
  8  9  1  0  0  0  0
  9 10  2  0  0  0  0
 10 11  1  0  0  0  0
 11 12  2  0  0  0  0
 12 13  1  0  0  0  0
 13 14  3  0  0  0  0
 12 15  1  0  0  0  0
 15 16  3  0  0  0  0
  8 17  1  0  0  0  0
 17 18  1  0  0  0  0
 18 19  1  0  0  0  0
 19 20  2  0  0  0  0
 20 21  1  0  0  0  0
 21 22  1  0  0  0  0
 21 23  1  0  0  0  0
  1 24  1  0  0  0  0
 24 25  2  0  0  0  0
 25 26  1  0  0  0  0
 26 27  2  0  0  0  0
 27 28  1  0  0  0  0
 28 29  2  0  0  0  0
 29 30  1  0  0  0  0
 30 31  1  0  0  0  0
 31 32  1  0  0  0  0
 32 33  1  0  0  0  0
 33 34  1  0  0  0  0
 34 35  1  0  0  0  0
 33 36  1  0  0  0  0
 36 37  1  0  0  0  0
 33 38  1  0  0  0  0
 38 39  1  0  0  0  0
 32 40  2  0  0  0  0
 40 41  1  0  0  0  0
 41 42  1  0  0  0  0
 27 43  1  0  0  0  0
 43 44  2  0  0  0  0
 44 45  1  0  0  0  0
 45 46  1  0  0  0  0
 46 47  1  0  0  0  0
 47 48  1  0  0  0  0
 48 49  1  0  0  0  0
 49 50  2  0  0  0  0
 50 51  1  0  0  0  0
 51 52  1  0  0  0  0
 52 53  1  0  0  0  0
 51 54  1  0  0  0  0
 54 55  1  0  0  0  0
 51 56  1  0  0  0  0
 56 57  1  0  0  0  0
 50 58  1  0  0  0  0
 58 59  1  0  0  0  0
 59 60  1  0  0  0  0
 45 61  2  0  0  0  0
 61 62  1  0  0  0  0
 44 63  1  0  0  0  0
 63 64  2  0  0  0  0
 64 65  1  0  0  0  0
 64 66  1  0  0  0  0
 66 67  2  0  0  0  0
 67 68  1  0  0  0  0
 68 69  1  0  0  0  0
 69 70  2  0  0  0  0
 70 71  1  0  0  0  0
 71 72  2  0  0  0  0
 72 73  1  0  0  0  0
 73 74  1  0  0  0  0
 72 75  1  0  0  0  0
 75 76  2  0  0  0  0
 68 77  1  0  0  0  0
 77 78  2  0  0  0  0
 78 79  1  0  0  0  0
 79 80  2  0  0  0  0
 80 81  1  0  0  0  0
 81 82  1  0  0  0  0
 80 83  1  0  0  0  0
 83 84  2  0  0  0  0
 67 85  1  0  0  0  0
 85 86  1  0  0  0  0
 86 87  1  0  0  0  0
 87 88  2  0  0  0  0
 88 89  1  0  0  0  0
 89 90  1  0  0  0  0
 90 91  2  0  0  0  0
 91 92  1  0  0  0  0
 92 93  2  0  0  0  0
 93 94  1  0  0  0  0
 94 95  1  0  0  0  0
 93 96  1  0  0  0  0
 96 97  2  0  0  0  0
 89 98  1  0  0  0  0
 98 99  2  0  0  0  0
 99100  1  0  0  0  0
100101  2  0  0  0  0
101102  1  0  0  0  0
102103  1  0  0  0  0
101104  1  0  0  0  0
104105  2  0  0  0  0
 88106  1  0  0  0  0
106107  1  0  0  0  0
 87108  1  0  0  0  0
108109  2  0  0  0  0
109110  1  0  0  0  0
110111  1  0  0  0  0
111112  2  0  0  0  0
112113  1  0  0  0  0
113114  2  0  0  0  0
114115  1  0  0  0  0
115116  1  0  0  0  0
114117  1  0  0  0  0
117118  2  0  0  0  0
110119  1  0  0  0  0
119120  2  0  0  0  0
120121  1  0  0  0  0
121122  2  0  0  0  0
122123  1  0  0  0  0
123124  1  0  0  0  0
122125  1  0  0  0  0
125126  2  0  0  0  0
109127  1  0  0  0  0
127128  1  0  0  0  0
128129  1  0  0  0  0
129130  2  0  0  0  0
130131  1  0  0  0  0
131132  1  0  0  0  0
132133  2  0  0  0  0
133134  1  0  0  0  0
134135  2  0  0  0  0
135136  1  0  0  0  0
136137  1  0  0  0  0
135138  1  0  0  0  0
138139  2  0  0  0  0
131140  1  0  0  0  0
140141  2  0  0  0  0
141142  1  0  0  0  0
142143  2  0  0  0  0
143144  1  0  0  0  0
144145  1  0  0  0  0
143146  1  0  0  0  0
146147  2  0  0  0  0
130148  1  0  0  0  0
148149  1  0  0  0  0
129150  1  0  0  0  0
150151  2  0  0  0  0
151152  1  0  0  0  0
152153  2  0  0  0  0
152154  1  0  0  0  0
154155  2  0  0  0  0
155156  1  0  0  0  0
156157  2  0  0  0  0
157158  1  0  0  0  0
158159  2  0  0  0  0
159160  1  0  0  0  0
160161  2  0  0  0  0
161162  1  0  0  0  0
162163  3  0  0  0  0
161164  1  0  0  0  0
164165  3  0  0  0  0
157166  1  0  0  0  0
166167  1  0  0  0  0
167168  1  0  0  0  0
168169  2  0  0  0  0
169170  1  0  0  0  0
170171  1  0  0  0  0
170172  1  0  0  0  0
 11  2  1  0  0  0  0
 23 17  1  0  0  0  0
 62 24  1  0  0  0  0
107 66  1  0  0  0  0
149108  1  0  0  0  0
160151  1  0  0  0  0
172166  1  0  0  0  0
 10  5  1  0  0  0  0
 22 18  1  0  0  0  0
 61 26  1  0  0  0  0
 76 69  1  0  0  0  0
 84 77  1  0  0  0  0
106 85  2  0  0  0  0
118111  1  0  0  0  0
126119  1  0  0  0  0
148127  2  0  0  0  0
159154  1  0  0  0  0
171167  1  0  0  0  0
 23  7  1  0  0  0  0
 42 28  1  0  0  0  0
 65 43  1  0  0  0  0
 97 90  1  0  0  0  0
105 98  1  0  0  0  0
139132  1  0  0  0  0
147140  1  0  0  0  0
172156  1  0  0  0  0
 41 30  2  0  0  0  0
 60 46  2  0  0  0  0
 59 48  2  0  0  0  0
  1173  1  0  0  0  0
  6174  1  0  0  0  0
  9175  1  0  0  0  0
 17176  1  0  0  0  0
 18177  1  0  0  0  0
 19178  1  0  0  0  0
 20179  1  0  0  0  0
 21180  1  0  0  0  0
 22181  1  0  0  0  0
 22182  1  0  0  0  0
 23183  1  0  0  0  0
 25184  1  0  0  0  0
 29185  1  0  0  0  0
 34186  1  0  0  0  0
 34187  1  0  0  0  0
 35188  1  0  0  0  0
 35189  1  0  0  0  0
 35190  1  0  0  0  0
 36191  1  0  0  0  0
 36192  1  0  0  0  0
 37193  1  0  0  0  0
 37194  1  0  0  0  0
 37195  1  0  0  0  0
 38196  1  0  0  0  0
 38197  1  0  0  0  0
 39198  1  0  0  0  0
 39199  1  0  0  0  0
 39200  1  0  0  0  0
 40201  1  0  0  0  0
 49202  1  0  0  0  0
 52203  1  0  0  0  0
 52204  1  0  0  0  0
 53205  1  0  0  0  0
 53206  1  0  0  0  0
 53207  1  0  0  0  0
 54208  1  0  0  0  0
 54209  1  0  0  0  0
 55210  1  0  0  0  0
 55211  1  0  0  0  0
 55212  1  0  0  0  0
 56213  1  0  0  0  0
 56214  1  0  0  0  0
 57215  1  0  0  0  0
 57216  1  0  0  0  0
 57217  1  0  0  0  0
 60218  1  0  0  0  0
 63219  1  0  0  0  0
 70220  1  0  0  0  0
 71221  1  0  0  0  0
 74222  1  0  0  0  0
 74223  1  0  0  0  0
 74224  1  0  0  0  0
 75225  1  0  0  0  0
 76226  1  0  0  0  0
 78227  1  0  0  0  0
 79228  1  0  0  0  0
 82229  1  0  0  0  0
 82230  1  0  0  0  0
 82231  1  0  0  0  0
 83232  1  0  0  0  0
 84233  1  0  0  0  0
 91234  1  0  0  0  0
 92235  1  0  0  0  0
 95236  1  0  0  0  0
 95237  1  0  0  0  0
 95238  1  0  0  0  0
 96239  1  0  0  0  0
 97240  1  0  0  0  0
 99241  1  0  0  0  0
100242  1  0  0  0  0
103243  1  0  0  0  0
103244  1  0  0  0  0
103245  1  0  0  0  0
104246  1  0  0  0  0
105247  1  0  0  0  0
112248  1  0  0  0  0
113249  1  0  0  0  0
116250  1  0  0  0  0
116251  1  0  0  0  0
116252  1  0  0  0  0
117253  1  0  0  0  0
118254  1  0  0  0  0
120255  1  0  0  0  0
121256  1  0  0  0  0
124257  1  0  0  0  0
124258  1  0  0  0  0
124259  1  0  0  0  0
125260  1  0  0  0  0
126261  1  0  0  0  0
133262  1  0  0  0  0
134263  1  0  0  0  0
137264  1  0  0  0  0
137265  1  0  0  0  0
137266  1  0  0  0  0
138267  1  0  0  0  0
139268  1  0  0  0  0
141269  1  0  0  0  0
142270  1  0  0  0  0
145271  1  0  0  0  0
145272  1  0  0  0  0
145273  1  0  0  0  0
146274  1  0  0  0  0
147275  1  0  0  0  0
150276  1  0  0  0  0
155277  1  0  0  0  0
158278  1  0  0  0  0
166279  1  0  0  0  0
167280  1  0  0  0  0
168281  1  0  0  0  0
169282  1  0  0  0  0
170283  1  0  0  0  0
171284  1  0  0  0  0
171285  1  0  0  0  0
172286  1  0  0  0  0
M  END
