
  xtb     02072221553D
 energy: -333.615735178901 gnorm: 0.000856019583 xtb: 6.4.1 (unknown)
197218  0     0  0            999 V2000
    4.7547   -0.7467    7.7607 C   0  0  0  0  0  0  0  0  0  0  0  0
    5.1117    0.5690    7.7987 C   0  0  0  0  0  0  0  0  0  0  0  0
    6.3383    1.0217    8.5024 C   0  0  0  0  0  0  0  0  0  0  0  0
    7.0233    0.3714    9.2604 O   0  0  0  0  0  0  0  0  0  0  0  0
    6.5712    2.4008    8.0257 C   0  0  0  0  0  0  0  0  0  0  0  0
    7.6635    3.2192    8.3069 C   0  0  0  0  0  0  0  0  0  0  0  0
    7.6133    4.4488    7.6947 C   0  0  0  0  0  0  0  0  0  0  0  0
    6.5606    4.8403    6.8558 C   0  0  0  0  0  0  0  0  0  0  0  0
    5.4697    4.0513    6.5777 C   0  0  0  0  0  0  0  0  0  0  0  0
    5.5001    2.7999    7.1981 C   0  0  0  0  0  0  0  0  0  0  0  0
    4.5100    1.7284    7.1742 C   0  0  0  0  0  0  0  0  0  0  0  0
    3.1796    1.8898    6.8830 C   0  0  0  0  0  0  0  0  0  0  0  0
    2.5933    3.0662    6.3775 C   0  0  0  0  0  0  0  0  0  0  0  0
    2.0258    3.9711    5.9557 N   0  0  0  0  0  0  0  0  0  0  0  0
    2.1944    0.9159    7.1470 C   0  0  0  0  0  0  0  0  0  0  0  0
    1.3449    0.1803    7.3851 N   0  0  0  0  0  0  0  0  0  0  0  0
    7.1798    6.1867    6.5742 C   0  0  0  0  0  0  0  0  0  0  0  0
    7.8836    6.3538    5.2110 C   0  0  0  0  0  0  0  0  0  0  0  0
    8.7791    7.5551    5.4103 C   0  0  0  0  0  0  0  0  0  0  0  0
    9.7724    7.1891    6.2103 C   0  0  0  0  0  0  0  0  0  0  0  0
    9.5653    5.7341    6.5638 C   0  0  0  0  0  0  0  0  0  0  0  0
    8.9301    5.2333    5.2603 C   0  0  0  0  0  0  0  0  0  0  0  0
    8.3498    5.7537    7.5148 C   0  0  0  0  0  0  0  0  0  0  0  0
    3.8920   -1.3284    6.8064 C   0  0  0  0  0  0  0  0  0  0  0  0
    3.8170   -0.6970    5.1747 S   0  0  0  0  0  0  0  0  0  0  0  0
    2.5145   -1.7597    4.7116 C   0  0  0  0  0  0  0  0  0  0  0  0
    2.1629   -2.5440    5.7920 C   0  0  0  0  0  0  0  0  0  0  0  0
    0.8295   -3.6065    6.0992 S   0  0  0  0  0  0  0  0  0  0  0  0
    1.4309   -3.9303    7.7159 C   0  0  0  0  0  0  0  0  0  0  0  0
    0.7430   -4.8931    8.5286 C   0  0  0  0  0  0  0  0  0  0  0  0
    1.2752   -5.9218    9.2799 C   0  0  0  0  0  0  0  0  0  0  0  0
    0.3042   -6.6882    9.9455 C   0  0  0  0  0  0  0  0  0  0  0  0
   -0.9682   -6.2512    9.6899 C   0  0  0  0  0  0  0  0  0  0  0  0
   -2.2147   -6.8125   10.2166 C   0  0  0  0  0  0  0  0  0  0  0  0
   -2.2695   -7.7501   10.9727 O   0  0  0  0  0  0  0  0  0  0  0  0
   -3.2737   -6.1523    9.7347 O   0  0  0  0  0  0  0  0  0  0  0  0
   -4.5617   -6.5728   10.1858 C   0  0  0  0  0  0  0  0  0  0  0  0
   -4.9153   -5.9359   11.5217 C   0  0  0  0  0  0  0  0  0  0  0  0
   -0.9889   -4.8928    8.6244 S   0  0  0  0  0  0  0  0  0  0  0  0
    2.9427   -6.3056    9.3212 Cl  0  0  0  0  0  0  0  0  0  0  0  0
    2.5385   -3.1840    8.0192 C   0  0  0  0  0  0  0  0  0  0  0  0
    2.9687   -2.3602    6.9455 C   0  0  0  0  0  0  0  0  0  0  0  0
    3.2872   -3.1672    9.5582 Cl  0  0  0  0  0  0  0  0  0  0  0  0
    1.9867   -1.6805    3.4034 C   0  0  0  0  0  0  0  0  0  0  0  0
    1.3023   -2.6330    2.6492 C   0  0  0  0  0  0  0  0  0  0  0  0
    1.1897   -3.9809    2.9151 N   0  0  0  0  0  0  0  0  0  0  0  0
    0.0682   -4.6515    2.3844 C   0  0  0  0  0  0  0  0  0  0  0  0
    0.2246   -5.8018    1.6196 C   0  0  0  0  0  0  0  0  0  0  0  0
   -0.8720   -6.4209    1.0521 C   0  0  0  0  0  0  0  0  0  0  0  0
   -2.1433   -5.8948    1.2432 C   0  0  0  0  0  0  0  0  0  0  0  0
   -3.6117   -6.5650    0.5349 S   0  0  0  0  0  0  0  0  0  0  0  0
   -3.0426   -8.0467   -0.3462 C   0  0  0  0  0  0  0  0  0  0  0  0
   -2.3042   -4.7567    2.0326 C   0  0  0  0  0  0  0  0  0  0  0  0
   -1.2115   -4.1410    2.5998 C   0  0  0  0  0  0  0  0  0  0  0  0
    2.1711   -4.7047    3.6007 C   0  0  0  0  0  0  0  0  0  0  0  0
    3.4980   -4.2814    3.6393 C   0  0  0  0  0  0  0  0  0  0  0  0
    4.4136   -4.9097    4.4596 C   0  0  0  0  0  0  0  0  0  0  0  0
    4.0261   -5.9900    5.2402 C   0  0  0  0  0  0  0  0  0  0  0  0
    5.1129   -6.7656    6.3967 S   0  0  0  0  0  0  0  0  0  0  0  0
    6.0933   -5.3502    6.9828 C   0  0  0  0  0  0  0  0  0  0  0  0
    2.7341   -6.4923    5.1139 C   0  0  0  0  0  0  0  0  0  0  0  0
    1.8173   -5.8587    4.3063 C   0  0  0  0  0  0  0  0  0  0  0  0
    0.7870   -2.0340    1.4730 C   0  0  0  0  0  0  0  0  0  0  0  0
   -0.2135   -2.6066    0.1956 S   0  0  0  0  0  0  0  0  0  0  0  0
   -0.1546   -1.0386   -0.6112 C   0  0  0  0  0  0  0  0  0  0  0  0
    0.6893   -0.1432    0.0581 C   0  0  0  0  0  0  0  0  0  0  0  0
    1.1052    1.0932   -0.3856 N   0  0  0  0  0  0  0  0  0  0  0  0
    1.6676    2.0219    0.5139 C   0  0  0  0  0  0  0  0  0  0  0  0
    2.8837    2.6183    0.1917 C   0  0  0  0  0  0  0  0  0  0  0  0
    3.4714    3.5274    1.0459 C   0  0  0  0  0  0  0  0  0  0  0  0
    2.8463    3.8600    2.2416 C   0  0  0  0  0  0  0  0  0  0  0  0
    3.5364    4.9853    3.4099 S   0  0  0  0  0  0  0  0  0  0  0  0
    4.7739    5.8970    2.4341 C   0  0  0  0  0  0  0  0  0  0  0  0
    1.6220    3.2786    2.5627 C   0  0  0  0  0  0  0  0  0  0  0  0
    1.0332    2.3713    1.7056 C   0  0  0  0  0  0  0  0  0  0  0  0
    1.1436    1.4368   -1.7475 C   0  0  0  0  0  0  0  0  0  0  0  0
    0.7646    2.7225   -2.1303 C   0  0  0  0  0  0  0  0  0  0  0  0
    0.6598    3.0622   -3.4635 C   0  0  0  0  0  0  0  0  0  0  0  0
    0.9470    2.1206   -4.4435 C   0  0  0  0  0  0  0  0  0  0  0  0
    0.7101    2.3876   -6.1699 S   0  0  0  0  0  0  0  0  0  0  0  0
    0.0292    4.0649   -6.2682 C   0  0  0  0  0  0  0  0  0  0  0  0
    1.4299    0.8685   -4.0617 C   0  0  0  0  0  0  0  0  0  0  0  0
    1.5235    0.5251   -2.7316 C   0  0  0  0  0  0  0  0  0  0  0  0
    1.1657   -0.7168    1.2654 C   0  0  0  0  0  0  0  0  0  0  0  0
    2.1564   -0.1422    2.5618 S   0  0  0  0  0  0  0  0  0  0  0  0
   -0.9773   -0.8229   -1.7540 C   0  0  0  0  0  0  0  0  0  0  0  0
   -1.3706   -1.7196   -2.7518 C   0  0  0  0  0  0  0  0  0  0  0  0
   -1.0302   -3.1779   -2.7584 C   0  0  0  0  0  0  0  0  0  0  0  0
   -2.1134   -4.0183   -2.0778 C   0  0  0  0  0  0  0  0  0  0  0  0
   -2.0878   -1.0766   -3.7654 C   0  0  0  0  0  0  0  0  0  0  0  0
   -2.2594    0.2883   -3.5235 C   0  0  0  0  0  0  0  0  0  0  0  0
   -1.6316    0.7851   -2.0134 S   0  0  0  0  0  0  0  0  0  0  0  0
   -2.8323    0.9065   -4.6469 C   0  0  0  0  0  0  0  0  0  0  0  0
   -3.0813   -0.0709   -5.6206 C   0  0  0  0  0  0  0  0  0  0  0  0
   -2.6891   -1.4378   -5.1118 C   0  0  0  0  0  0  0  0  0  0  0  0
   -1.7125   -2.1117   -6.0917 C   0  0  0  0  0  0  0  0  0  0  0  0
   -0.3588   -1.4194   -6.1537 C   0  0  0  0  0  0  0  0  0  0  0  0
   -3.9452   -2.3224   -4.9630 C   0  0  0  0  0  0  0  0  0  0  0  0
   -4.9632   -1.7696   -3.9739 C   0  0  0  0  0  0  0  0  0  0  0  0
   -3.5730    0.4495   -6.7982 C   0  0  0  0  0  0  0  0  0  0  0  0
   -3.6921    1.8393   -6.7601 C   0  0  0  0  0  0  0  0  0  0  0  0
   -3.1911    2.4825   -5.1878 S   0  0  0  0  0  0  0  0  0  0  0  0
   -4.0317    2.7787   -7.7400 C   0  0  0  0  0  0  0  0  0  0  0  0
   -4.5813    2.6140   -8.9884 C   0  0  0  0  0  0  0  0  0  0  0  0
   -5.2647    1.4283   -9.5427 C   0  0  0  0  0  0  0  0  0  0  0  0
   -5.2739    0.2862   -9.1256 O   0  0  0  0  0  0  0  0  0  0  0  0
   -5.9982    1.9122  -10.7311 C   0  0  0  0  0  0  0  0  0  0  0  0
   -6.8595    1.1719  -11.5375 C   0  0  0  0  0  0  0  0  0  0  0  0
   -7.4192    1.8913  -12.5662 C   0  0  0  0  0  0  0  0  0  0  0  0
   -7.1434    3.2481  -12.7800 C   0  0  0  0  0  0  0  0  0  0  0  0
   -6.2880    3.9882  -11.9984 C   0  0  0  0  0  0  0  0  0  0  0  0
   -5.7097    3.2739  -10.9454 C   0  0  0  0  0  0  0  0  0  0  0  0
   -4.7576    3.7022   -9.9256 C   0  0  0  0  0  0  0  0  0  0  0  0
   -4.0557    4.8830   -9.9289 C   0  0  0  0  0  0  0  0  0  0  0  0
   -4.2497    5.9218  -10.8605 C   0  0  0  0  0  0  0  0  0  0  0  0
   -4.3688    6.8104  -11.5783 N   0  0  0  0  0  0  0  0  0  0  0  0
   -2.9909    5.1771   -9.0542 C   0  0  0  0  0  0  0  0  0  0  0  0
   -2.0832    5.4615   -8.4081 N   0  0  0  0  0  0  0  0  0  0  0  0
   -8.0620    3.3295  -13.9740 C   0  0  0  0  0  0  0  0  0  0  0  0
   -9.4354    3.9948  -13.7441 C   0  0  0  0  0  0  0  0  0  0  0  0
  -10.2714    3.5089  -14.9060 C   0  0  0  0  0  0  0  0  0  0  0  0
  -10.5308    2.2230  -14.7066 C   0  0  0  0  0  0  0  0  0  0  0  0
   -9.8746    1.8182  -13.4063 C   0  0  0  0  0  0  0  0  0  0  0  0
  -10.0173    3.1278  -12.6201 C   0  0  0  0  0  0  0  0  0  0  0  0
   -8.3672    1.8155  -13.7376 C   0  0  0  0  0  0  0  0  0  0  0  0
    5.2144   -1.4008    8.4931 H   0  0  0  0  0  0  0  0  0  0  0  0
    8.4559    2.8839    8.9575 H   0  0  0  0  0  0  0  0  0  0  0  0
    4.6641    4.3557    5.9289 H   0  0  0  0  0  0  0  0  0  0  0  0
    6.5796    7.0511    6.8515 H   0  0  0  0  0  0  0  0  0  0  0  0
    7.2159    6.3772    4.3545 H   0  0  0  0  0  0  0  0  0  0  0  0
    8.5736    8.5305    5.0094 H   0  0  0  0  0  0  0  0  0  0  0  0
   10.5623    7.7974    6.6103 H   0  0  0  0  0  0  0  0  0  0  0  0
   10.4302    5.1943    6.9399 H   0  0  0  0  0  0  0  0  0  0  0  0
    8.5059    4.2333    5.3294 H   0  0  0  0  0  0  0  0  0  0  0  0
    9.6228    5.2790    4.4212 H   0  0  0  0  0  0  0  0  0  0  0  0
    8.5275    6.3282    8.4218 H   0  0  0  0  0  0  0  0  0  0  0  0
    0.5234   -7.5289   10.5774 H   0  0  0  0  0  0  0  0  0  0  0  0
   -4.5665   -7.6643   10.2726 H   0  0  0  0  0  0  0  0  0  0  0  0
   -5.2519   -6.2560    9.4015 H   0  0  0  0  0  0  0  0  0  0  0  0
   -4.8599   -4.8526   11.4477 H   0  0  0  0  0  0  0  0  0  0  0  0
   -4.2236   -6.2745   12.2893 H   0  0  0  0  0  0  0  0  0  0  0  0
   -5.9236   -6.2226   11.8058 H   0  0  0  0  0  0  0  0  0  0  0  0
    1.2136   -6.2051    1.4600 H   0  0  0  0  0  0  0  0  0  0  0  0
   -0.7178   -7.3043    0.4542 H   0  0  0  0  0  0  0  0  0  0  0  0
   -2.5801   -8.7391    0.3508 H   0  0  0  0  0  0  0  0  0  0  0  0
   -2.3580   -7.7693   -1.1424 H   0  0  0  0  0  0  0  0  0  0  0  0
   -3.9363   -8.4938   -0.7703 H   0  0  0  0  0  0  0  0  0  0  0  0
   -3.2966   -4.3640    2.1906 H   0  0  0  0  0  0  0  0  0  0  0  0
   -1.3353   -3.2613    3.2133 H   0  0  0  0  0  0  0  0  0  0  0  0
    3.8199   -3.4495    3.0319 H   0  0  0  0  0  0  0  0  0  0  0  0
    5.4287   -4.5461    4.4884 H   0  0  0  0  0  0  0  0  0  0  0  0
    6.8737   -5.1012    6.2697 H   0  0  0  0  0  0  0  0  0  0  0  0
    6.5413   -5.6643    7.9203 H   0  0  0  0  0  0  0  0  0  0  0  0
    5.4321   -4.5054    7.1505 H   0  0  0  0  0  0  0  0  0  0  0  0
    2.4481   -7.3603    5.6871 H   0  0  0  0  0  0  0  0  0  0  0  0
    0.8019   -6.2209    4.2592 H   0  0  0  0  0  0  0  0  0  0  0  0
    3.3747    2.3553   -0.7340 H   0  0  0  0  0  0  0  0  0  0  0  0
    4.4226    3.9570    0.7761 H   0  0  0  0  0  0  0  0  0  0  0  0
    5.0519    6.7513    3.0437 H   0  0  0  0  0  0  0  0  0  0  0  0
    5.6462    5.2770    2.2464 H   0  0  0  0  0  0  0  0  0  0  0  0
    4.3270    6.2389    1.5059 H   0  0  0  0  0  0  0  0  0  0  0  0
    1.1431    3.5488    3.4912 H   0  0  0  0  0  0  0  0  0  0  0  0
    0.0751    1.9373    1.9499 H   0  0  0  0  0  0  0  0  0  0  0  0
    0.5082    3.4455   -1.3706 H   0  0  0  0  0  0  0  0  0  0  0  0
    0.3307    4.0547   -3.7232 H   0  0  0  0  0  0  0  0  0  0  0  0
   -0.8707    4.1341   -5.6649 H   0  0  0  0  0  0  0  0  0  0  0  0
   -0.2246    4.2292   -7.3110 H   0  0  0  0  0  0  0  0  0  0  0  0
    0.7763    4.7869   -5.9523 H   0  0  0  0  0  0  0  0  0  0  0  0
    1.7217    0.1680   -4.8279 H   0  0  0  0  0  0  0  0  0  0  0  0
    1.8754   -0.4561   -2.4490 H   0  0  0  0  0  0  0  0  0  0  0  0
   -0.9196   -3.5102   -3.7906 H   0  0  0  0  0  0  0  0  0  0  0  0
   -0.0784   -3.3399   -2.2493 H   0  0  0  0  0  0  0  0  0  0  0  0
   -3.0642   -3.9144   -2.5928 H   0  0  0  0  0  0  0  0  0  0  0  0
   -1.8254   -5.0665   -2.0866 H   0  0  0  0  0  0  0  0  0  0  0  0
   -2.2526   -3.7126   -1.0443 H   0  0  0  0  0  0  0  0  0  0  0  0
   -2.1748   -2.1005   -7.0804 H   0  0  0  0  0  0  0  0  0  0  0  0
   -1.5763   -3.1569   -5.8066 H   0  0  0  0  0  0  0  0  0  0  0  0
   -0.4708   -0.3698   -6.4153 H   0  0  0  0  0  0  0  0  0  0  0  0
    0.1416   -1.4824   -5.1907 H   0  0  0  0  0  0  0  0  0  0  0  0
    0.2707   -1.8931   -6.9032 H   0  0  0  0  0  0  0  0  0  0  0  0
   -4.4088   -2.4113   -5.9474 H   0  0  0  0  0  0  0  0  0  0  0  0
   -3.6341   -3.3200   -4.6483 H   0  0  0  0  0  0  0  0  0  0  0  0
   -5.3030   -0.7835   -4.2814 H   0  0  0  0  0  0  0  0  0  0  0  0
   -5.8273   -2.4280   -3.9251 H   0  0  0  0  0  0  0  0  0  0  0  0
   -4.5349   -1.6904   -2.9771 H   0  0  0  0  0  0  0  0  0  0  0  0
   -3.8372   -0.1149   -7.6728 H   0  0  0  0  0  0  0  0  0  0  0  0
   -3.8380    3.8035   -7.4415 H   0  0  0  0  0  0  0  0  0  0  0  0
   -7.0434    0.1274  -11.3395 H   0  0  0  0  0  0  0  0  0  0  0  0
   -6.0831    5.0314  -12.1734 H   0  0  0  0  0  0  0  0  0  0  0  0
   -7.5967    3.6274  -14.9117 H   0  0  0  0  0  0  0  0  0  0  0  0
   -9.3997    5.0687  -13.5820 H   0  0  0  0  0  0  0  0  0  0  0  0
  -10.5319    4.1161  -15.7531 H   0  0  0  0  0  0  0  0  0  0  0  0
  -11.0511    1.5414  -15.3538 H   0  0  0  0  0  0  0  0  0  0  0  0
  -10.2399    0.9090  -12.9362 H   0  0  0  0  0  0  0  0  0  0  0  0
   -9.4429    3.1551  -11.6959 H   0  0  0  0  0  0  0  0  0  0  0  0
  -11.0576    3.3705  -12.4096 H   0  0  0  0  0  0  0  0  0  0  0  0
   -8.1036    1.1038  -14.5179 H   0  0  0  0  0  0  0  0  0  0  0  0
  1  2  2  0  0  0  0
  2  3  1  0  0  0  0
  3  4  2  0  0  0  0
  3  5  1  0  0  0  0
  5  6  2  0  0  0  0
  6  7  1  0  0  0  0
  7  8  2  0  0  0  0
  8  9  1  0  0  0  0
  9 10  2  0  0  0  0
 10 11  1  0  0  0  0
 11 12  2  0  0  0  0
 12 13  1  0  0  0  0
 13 14  3  0  0  0  0
 12 15  1  0  0  0  0
 15 16  3  0  0  0  0
  8 17  1  0  0  0  0
 17 18  1  0  0  0  0
 18 19  1  0  0  0  0
 19 20  2  0  0  0  0
 20 21  1  0  0  0  0
 21 22  1  0  0  0  0
 21 23  1  0  0  0  0
  1 24  1  0  0  0  0
 24 25  1  0  0  0  0
 25 26  1  0  0  0  0
 26 27  2  0  0  0  0
 27 28  1  0  0  0  0
 28 29  1  0  0  0  0
 29 30  1  0  0  0  0
 30 31  2  0  0  0  0
 31 32  1  0  0  0  0
 32 33  2  0  0  0  0
 33 34  1  0  0  0  0
 34 35  2  0  0  0  0
 34 36  1  0  0  0  0
 36 37  1  0  0  0  0
 37 38  1  0  0  0  0
 33 39  1  0  0  0  0
 31 40  1  0  0  0  0
 29 41  2  0  0  0  0
 41 42  1  0  0  0  0
 41 43  1  0  0  0  0
 26 44  1  0  0  0  0
 44 45  2  0  0  0  0
 45 46  1  0  0  0  0
 46 47  1  0  0  0  0
 47 48  2  0  0  0  0
 48 49  1  0  0  0  0
 49 50  2  0  0  0  0
 50 51  1  0  0  0  0
 51 52  1  0  0  0  0
 50 53  1  0  0  0  0
 53 54  2  0  0  0  0
 46 55  1  0  0  0  0
 55 56  2  0  0  0  0
 56 57  1  0  0  0  0
 57 58  2  0  0  0  0
 58 59  1  0  0  0  0
 59 60  1  0  0  0  0
 58 61  1  0  0  0  0
 61 62  2  0  0  0  0
 45 63  1  0  0  0  0
 63 64  1  0  0  0  0
 64 65  1  0  0  0  0
 65 66  2  0  0  0  0
 66 67  1  0  0  0  0
 67 68  1  0  0  0  0
 68 69  2  0  0  0  0
 69 70  1  0  0  0  0
 70 71  2  0  0  0  0
 71 72  1  0  0  0  0
 72 73  1  0  0  0  0
 71 74  1  0  0  0  0
 74 75  2  0  0  0  0
 67 76  1  0  0  0  0
 76 77  2  0  0  0  0
 77 78  1  0  0  0  0
 78 79  2  0  0  0  0
 79 80  1  0  0  0  0
 80 81  1  0  0  0  0
 79 82  1  0  0  0  0
 82 83  2  0  0  0  0
 66 84  1  0  0  0  0
 84 85  1  0  0  0  0
 65 86  1  0  0  0  0
 86 87  2  0  0  0  0
 87 88  1  0  0  0  0
 88 89  1  0  0  0  0
 87 90  1  0  0  0  0
 90 91  2  0  0  0  0
 91 92  1  0  0  0  0
 91 93  1  0  0  0  0
 93 94  2  0  0  0  0
 94 95  1  0  0  0  0
 95 96  1  0  0  0  0
 96 97  1  0  0  0  0
 95 98  1  0  0  0  0
 98 99  1  0  0  0  0
 94100  1  0  0  0  0
100101  2  0  0  0  0
101102  1  0  0  0  0
101103  1  0  0  0  0
103104  2  0  0  0  0
104105  1  0  0  0  0
105106  2  0  0  0  0
105107  1  0  0  0  0
107108  2  0  0  0  0
108109  1  0  0  0  0
109110  2  0  0  0  0
110111  1  0  0  0  0
111112  2  0  0  0  0
112113  1  0  0  0  0
113114  2  0  0  0  0
114115  1  0  0  0  0
115116  3  0  0  0  0
114117  1  0  0  0  0
117118  3  0  0  0  0
110119  1  0  0  0  0
119120  1  0  0  0  0
120121  1  0  0  0  0
121122  2  0  0  0  0
122123  1  0  0  0  0
123124  1  0  0  0  0
123125  1  0  0  0  0
 11  2  1  0  0  0  0
 23 17  1  0  0  0  0
 42 24  2  0  0  0  0
 85 44  1  0  0  0  0
 92 86  1  0  0  0  0
102 93  1  0  0  0  0
113104  1  0  0  0  0
125119  1  0  0  0  0
 10  5  1  0  0  0  0
 22 18  1  0  0  0  0
 42 27  1  0  0  0  0
 54 47  1  0  0  0  0
 62 55  1  0  0  0  0
 84 63  2  0  0  0  0
 95 90  1  0  0  0  0
112107  1  0  0  0  0
124120  1  0  0  0  0
 23  7  1  0  0  0  0
 39 30  1  0  0  0  0
 75 68  1  0  0  0  0
 83 76  1  0  0  0  0
125109  1  0  0  0  0
  1126  1  0  0  0  0
  6127  1  0  0  0  0
  9128  1  0  0  0  0
 17129  1  0  0  0  0
 18130  1  0  0  0  0
 19131  1  0  0  0  0
 20132  1  0  0  0  0
 21133  1  0  0  0  0
 22134  1  0  0  0  0
 22135  1  0  0  0  0
 23136  1  0  0  0  0
 32137  1  0  0  0  0
 37138  1  0  0  0  0
 37139  1  0  0  0  0
 38140  1  0  0  0  0
 38141  1  0  0  0  0
 38142  1  0  0  0  0
 48143  1  0  0  0  0
 49144  1  0  0  0  0
 52145  1  0  0  0  0
 52146  1  0  0  0  0
 52147  1  0  0  0  0
 53148  1  0  0  0  0
 54149  1  0  0  0  0
 56150  1  0  0  0  0
 57151  1  0  0  0  0
 60152  1  0  0  0  0
 60153  1  0  0  0  0
 60154  1  0  0  0  0
 61155  1  0  0  0  0
 62156  1  0  0  0  0
 69157  1  0  0  0  0
 70158  1  0  0  0  0
 73159  1  0  0  0  0
 73160  1  0  0  0  0
 73161  1  0  0  0  0
 74162  1  0  0  0  0
 75163  1  0  0  0  0
 77164  1  0  0  0  0
 78165  1  0  0  0  0
 81166  1  0  0  0  0
 81167  1  0  0  0  0
 81168  1  0  0  0  0
 82169  1  0  0  0  0
 83170  1  0  0  0  0
 88171  1  0  0  0  0
 88172  1  0  0  0  0
 89173  1  0  0  0  0
 89174  1  0  0  0  0
 89175  1  0  0  0  0
 96176  1  0  0  0  0
 96177  1  0  0  0  0
 97178  1  0  0  0  0
 97179  1  0  0  0  0
 97180  1  0  0  0  0
 98181  1  0  0  0  0
 98182  1  0  0  0  0
 99183  1  0  0  0  0
 99184  1  0  0  0  0
 99185  1  0  0  0  0
100186  1  0  0  0  0
103187  1  0  0  0  0
108188  1  0  0  0  0
111189  1  0  0  0  0
119190  1  0  0  0  0
120191  1  0  0  0  0
121192  1  0  0  0  0
122193  1  0  0  0  0
123194  1  0  0  0  0
124195  1  0  0  0  0
124196  1  0  0  0  0
125197  1  0  0  0  0
M  END
