193

C         -6.95180        5.72960        3.45180
C         -8.11800        5.10540        3.79300
C         -8.57700        3.78960        3.31780
O         -7.99520        3.00740        2.58550
C         -9.92300        3.59250        3.88070
C        -10.75220        2.48630        3.69820
C        -11.96700        2.58640        4.33110
C        -12.33170        3.70580        5.09110
C        -11.52060        4.79840        5.28670
C        -10.27570        4.71580        4.65440
C         -9.15590        5.65560        4.64970
C         -9.09810        6.81730        5.37280
C         -8.00000        7.70260        5.44180
N         -7.16120        8.47390        5.58290
C        -10.13810        7.29430        6.19940
N        -10.93680        7.74300        6.89150
C        -13.68040        3.12820        5.44090
C        -13.83200        2.54380        6.86130
C        -15.04360        1.64590        6.75500
C        -14.69840        0.58540        6.03620
C        -13.24730        0.74860        5.64440
C        -12.72120        1.48580        6.88270
C        -13.27300        1.87950        4.59430
C         -5.89090        5.27420        2.64700
N         -4.87110        6.06870        2.40220
N         -3.94710        5.56530        1.66500
C         -4.18540        4.32290        1.26700
S         -5.69630        3.69620        1.87640
C         -3.21620        3.64020        0.51090
C         -3.17770        2.34540       -0.02290
N         -4.25180        1.51810       -0.20870
C         -4.06770        0.12440       -0.32180
C         -4.62270       -0.55310       -1.40690
C         -4.49960       -1.91960       -1.50430
C         -3.82650       -2.63920       -0.51790
S         -3.76210       -4.39050       -0.71190
C         -3.61870       -4.98380        0.99810
C         -3.24530       -1.96310        0.54800
C         -3.36720       -0.58950        0.64530
C         -5.53230        2.02510       -0.48250
C         -5.70880        3.19020       -1.23030
C         -6.97330        3.69300       -1.43700
C         -8.08810        3.04030       -0.91380
S         -9.65400        3.80030       -1.18850
C        -10.73120        2.96930        0.01340
C         -7.92050        1.84700       -0.22310
C         -6.65360        1.34800       -0.00760
C         -1.85690        2.02920       -0.42430
S         -1.09550        0.60080       -1.03380
C          0.45560        1.43750       -1.13680
C          0.34700        2.78510       -0.80010
N          1.33990        3.74020       -0.91190
C          1.30720        4.79840        0.01460
C          1.13390        4.51280        1.36730
C          0.97270        5.53130        2.28420
C          0.99100        6.85360        1.86100
S          0.70990        8.20330        2.96560
C         -0.54130        7.50280        4.08450
C          1.23530        7.14400        0.52200
C          1.38620        6.12840       -0.39580
C          2.10340        3.86010       -2.08170
C          1.63210        3.39010       -3.30820
C          2.39660        3.52750       -4.44440
C          3.64180        4.15140       -4.39210
S          4.52580        4.27550       -5.91240
C          5.85240        5.45990       -5.55090
C          4.11560        4.62250       -3.17350
C          3.35570        4.47050       -2.03180
C         -0.95940        3.08210       -0.33170
S         -1.69330        4.50250        0.32430
C          1.59500        0.63710       -1.40750
C          1.57200       -0.72750       -1.55020
C          2.84610       -1.31560       -1.67120
C          3.15680       -2.68330       -1.74960
C          2.12730       -3.70820       -1.54920
C          1.97810       -4.79120       -2.40780
C          1.04020       -5.77510       -2.15930
C          0.23450       -5.72570       -1.02730
S         -0.97270       -6.92300       -0.57070
C         -0.70320       -8.30410       -1.72950
C          0.56270       -9.08200       -1.42230
C          0.39350       -4.62810       -0.18070
F         -0.36390       -4.53880        0.93660
C          1.30510       -3.63010       -0.42600
C          4.49180       -3.01690       -1.91110
C          5.52550       -2.04100       -1.93760
C          5.22090       -0.66800       -1.78370
C          6.28030        0.34090       -1.69380
C          7.36350        0.15460       -0.83780
C          8.36790        1.09620       -0.73050
C          8.32410        2.26670       -1.47900
S          9.53420        3.54480       -1.47280
C         10.62910        3.12760       -0.07420
C          9.97520        3.39590        1.26820
C          7.23170        2.43840       -2.33110
C          6.22110        1.51330       -2.44650
F          7.17080        3.56100       -3.07880
C          3.88230       -0.34310       -1.67510
S          3.23350        1.26290       -1.43960
C          6.78300       -2.64140       -2.09780
C          6.75120       -4.02440       -2.14410
S          5.11380       -4.63880       -2.02950
C          7.93400       -4.78720       -2.22250
C          8.12260       -6.14100       -2.22330
C          7.06920       -7.17100       -2.24420
O          5.86390       -7.00550       -2.22550
C          7.76390       -8.46750       -2.31080
C          7.17440       -9.72850       -2.35980
C          8.07450      -10.76480       -2.41580
C          9.46090      -10.56090       -2.43200
C         10.05490       -9.32200       -2.38740
C          9.15690       -8.25260       -2.31910
C          9.40830       -6.81540       -2.23520
C         10.64660       -6.23390       -2.13280
C         11.86590       -6.94340       -2.13680
N         12.89810       -7.44670       -2.13340
C         10.90450       -4.85600       -1.97690
N         11.21150       -3.75810       -1.82970
C          9.75770      -12.03840       -2.48870
C         10.22530      -12.72940       -1.18390
C          9.65890      -11.92030       -0.04350
C          8.34660      -12.11190       -0.02390
C          8.00200      -13.05440       -1.15060
C          9.26540      -13.92970       -1.16710
C          8.21310      -12.26550       -2.46690
H         -6.77000        6.72930        3.82630
H        -10.43030        1.63920        3.11200
H        -11.81910        5.64970        5.87440
H        -14.54290        3.71260        5.12670
H        -13.83730        3.28180        7.65850
H        -16.00990        1.89270        7.15390
H        -15.31840       -0.23060        5.71430
H        -12.72040       -0.14980        5.33400
H        -12.76040        0.86660        7.77730
H        -11.71830        1.89230        6.76550
H        -13.86440        1.63070        3.71490
H         -5.15580        0.00240       -2.16400
H         -4.92930       -2.45010       -2.33970
H         -2.61480       -4.82780        1.37480
H         -3.82570       -6.04810        0.95550
H         -4.35800       -4.47900        1.61230
H         -2.69780       -2.50100        1.30530
H         -2.92970       -0.06640        1.48290
H         -4.85180        3.70730       -1.63550
H         -7.11190        4.60420       -1.99840
H        -11.64050        3.56070        0.05930
H        -10.96430        1.96200       -0.32000
H        -10.24080        2.96310        0.98140
H         -8.76560        1.30610        0.16770
H         -6.52450        0.43710        0.55660
H          1.10910        3.48290        1.69300
H          0.82680        5.28950        3.32490
H         -0.07550        6.85670        4.82300
H         -1.27920        6.96500        3.49680
H         -1.00600        8.34900        4.58040
H          1.26870        8.17470        0.20540
H          1.52820        6.35930       -1.44070
H          0.65980        2.92490       -3.37150
H          2.03110        3.16450       -5.39280
H          6.32840        5.66270       -6.50530
H          6.57150        5.02400       -4.86600
H          5.42290        6.37260       -5.14890
H          5.08130        5.09360       -3.09930
H          3.73700        4.82260       -1.08520
H          0.65560       -1.29050       -1.56760
H          2.59390       -4.86250       -3.29060
H          0.94740       -6.58690       -2.86140
H         -1.58550       -8.92930       -1.58980
H         -0.71810       -7.90930       -2.74460
H          0.51860       -9.48560       -0.41330
H          1.44380       -8.44840       -1.49850
H          0.66650       -9.90810       -2.12340
H          1.39870       -2.81720        0.27690
H          7.40970       -0.73260       -0.22460
H          9.18940        0.90320       -0.06040
H         11.49020        3.77950       -0.22170
H         10.95510        2.09430       -0.18450
H          9.07870        2.79310        1.39660
H         10.67080        3.16070        2.07140
H          9.69550        4.44400        1.34620
H          5.41060        1.70100       -3.13310
H          7.70280       -2.08950       -2.18160
H          8.82360       -4.17040       -2.26910
H          6.10110       -9.83800       -2.34970
H         11.12300       -9.18530       -2.40460
H         10.31120      -12.38040       -3.36090
H         11.29070      -12.93870       -1.14100
H         10.24510      -11.26740        0.57620
H          7.61690      -11.65050        0.61560
H          7.04300      -13.56070       -1.07660
H          9.36780      -14.53820       -0.26990
H          9.34440      -14.56120       -2.05100
H          7.75790      -12.75890       -3.32350
