197

C          4.75470       -0.74670        7.76070
C          5.11170        0.56900        7.79870
C          6.33830        1.02170        8.50240
O          7.02330        0.37140        9.26040
C          6.57120        2.40080        8.02570
C          7.66350        3.21920        8.30690
C          7.61330        4.44880        7.69470
C          6.56060        4.84030        6.85580
C          5.46970        4.05130        6.57770
C          5.50010        2.79990        7.19810
C          4.51000        1.72840        7.17420
C          3.17960        1.88980        6.88300
C          2.59330        3.06620        6.37750
N          2.02580        3.97110        5.95570
C          2.19440        0.91590        7.14700
N          1.34490        0.18030        7.38510
C          7.17980        6.18670        6.57420
C          7.88360        6.35380        5.21100
C          8.77910        7.55510        5.41030
C          9.77240        7.18910        6.21030
C          9.56530        5.73410        6.56380
C          8.93010        5.23330        5.26030
C          8.34980        5.75370        7.51480
C          3.89200       -1.32840        6.80640
S          3.81700       -0.69700        5.17470
C          2.51450       -1.75970        4.71160
C          2.16290       -2.54400        5.79200
S          0.82950       -3.60650        6.09920
C          1.43090       -3.93030        7.71590
C          0.74300       -4.89310        8.52860
C          1.27520       -5.92180        9.27990
C          0.30420       -6.68820        9.94550
C         -0.96820       -6.25120        9.68990
C         -2.21470       -6.81250       10.21660
O         -2.26950       -7.75010       10.97270
O         -3.27370       -6.15230        9.73470
C         -4.56170       -6.57280       10.18580
C         -4.91530       -5.93590       11.52170
S         -0.98890       -4.89280        8.62440
Cl         2.94270       -6.30560        9.32120
C          2.53850       -3.18400        8.01920
C          2.96870       -2.36020        6.94550
Cl         3.28720       -3.16720        9.55820
C          1.98670       -1.68050        3.40340
C          1.30230       -2.63300        2.64920
N          1.18970       -3.98090        2.91510
C          0.06820       -4.65150        2.38440
C          0.22460       -5.80180        1.61960
C         -0.87200       -6.42090        1.05210
C         -2.14330       -5.89480        1.24320
S         -3.61170       -6.56500        0.53490
C         -3.04260       -8.04670       -0.34620
C         -2.30420       -4.75670        2.03260
C         -1.21150       -4.14100        2.59980
C          2.17110       -4.70470        3.60070
C          3.49800       -4.28140        3.63930
C          4.41360       -4.90970        4.45960
C          4.02610       -5.99000        5.24020
S          5.11290       -6.76560        6.39670
C          6.09330       -5.35020        6.98280
C          2.73410       -6.49230        5.11390
C          1.81730       -5.85870        4.30630
C          0.78700       -2.03400        1.47300
S         -0.21350       -2.60660        0.19560
C         -0.15460       -1.03860       -0.61120
C          0.68930       -0.14320        0.05810
N          1.10520        1.09320       -0.38560
C          1.66760        2.02190        0.51390
C          2.88370        2.61830        0.19170
C          3.47140        3.52740        1.04590
C          2.84630        3.86000        2.24160
S          3.53640        4.98530        3.40990
C          4.77390        5.89700        2.43410
C          1.62200        3.27860        2.56270
C          1.03320        2.37130        1.70560
C          1.14360        1.43680       -1.74750
C          0.76460        2.72250       -2.13030
C          0.65980        3.06220       -3.46350
C          0.94700        2.12060       -4.44350
S          0.71010        2.38760       -6.16990
C          0.02920        4.06490       -6.26820
C          1.42990        0.86850       -4.06170
C          1.52350        0.52510       -2.73160
C          1.16570       -0.71680        1.26540
S          2.15640       -0.14220        2.56180
C         -0.97730       -0.82290       -1.75400
C         -1.37060       -1.71960       -2.75180
C         -1.03020       -3.17790       -2.75840
C         -2.11340       -4.01830       -2.07780
C         -2.08780       -1.07660       -3.76540
C         -2.25940        0.28830       -3.52350
S         -1.63160        0.78510       -2.01340
C         -2.83230        0.90650       -4.64690
C         -3.08130       -0.07090       -5.62060
C         -2.68910       -1.43780       -5.11180
C         -1.71250       -2.11170       -6.09170
C         -0.35880       -1.41940       -6.15370
C         -3.94520       -2.32240       -4.96300
C         -4.96320       -1.76960       -3.97390
C         -3.57300        0.44950       -6.79820
C         -3.69210        1.83930       -6.76010
S         -3.19110        2.48250       -5.18780
C         -4.03170        2.77870       -7.74000
C         -4.58130        2.61400       -8.98840
C         -5.26470        1.42830       -9.54270
O         -5.27390        0.28620       -9.12560
C         -5.99820        1.91220      -10.73110
C         -6.85950        1.17190      -11.53750
C         -7.41920        1.89130      -12.56620
C         -7.14340        3.24810      -12.78000
C         -6.28800        3.98820      -11.99840
C         -5.70970        3.27390      -10.94540
C         -4.75760        3.70220       -9.92560
C         -4.05570        4.88300       -9.92890
C         -4.24970        5.92180      -10.86050
N         -4.36880        6.81040      -11.57830
C         -2.99090        5.17710       -9.05420
N         -2.08320        5.46150       -8.40810
C         -8.06200        3.32950      -13.97400
C         -9.43540        3.99480      -13.74410
C        -10.27140        3.50890      -14.90600
C        -10.53080        2.22300      -14.70660
C         -9.87460        1.81820      -13.40630
C        -10.01730        3.12780      -12.62010
C         -8.36720        1.81550      -13.73760
H          5.21440       -1.40080        8.49310
H          8.45590        2.88390        8.95750
H          4.66410        4.35570        5.92890
H          6.57960        7.05110        6.85150
H          7.21590        6.37720        4.35450
H          8.57360        8.53050        5.00940
H         10.56230        7.79740        6.61030
H         10.43020        5.19430        6.93990
H          8.50590        4.23330        5.32940
H          9.62280        5.27900        4.42120
H          8.52750        6.32820        8.42180
H          0.52340       -7.52890       10.57740
H         -4.56650       -7.66430       10.27260
H         -5.25190       -6.25600        9.40150
H         -4.85990       -4.85260       11.44770
H         -4.22360       -6.27450       12.28930
H         -5.92360       -6.22260       11.80580
H          1.21360       -6.20510        1.46000
H         -0.71780       -7.30430        0.45420
H         -2.58010       -8.73910        0.35080
H         -2.35800       -7.76930       -1.14240
H         -3.93630       -8.49380       -0.77030
H         -3.29660       -4.36400        2.19060
H         -1.33530       -3.26130        3.21330
H          3.81990       -3.44950        3.03190
H          5.42870       -4.54610        4.48840
H          6.87370       -5.10120        6.26970
H          6.54130       -5.66430        7.92030
H          5.43210       -4.50540        7.15050
H          2.44810       -7.36030        5.68710
H          0.80190       -6.22090        4.25920
H          3.37470        2.35530       -0.73400
H          4.42260        3.95700        0.77610
H          5.05190        6.75130        3.04370
H          5.64620        5.27700        2.24640
H          4.32700        6.23890        1.50590
H          1.14310        3.54880        3.49120
H          0.07510        1.93730        1.94990
H          0.50820        3.44550       -1.37060
H          0.33070        4.05470       -3.72320
H         -0.87070        4.13410       -5.66490
H         -0.22460        4.22920       -7.31100
H          0.77630        4.78690       -5.95230
H          1.72170        0.16800       -4.82790
H          1.87540       -0.45610       -2.44900
H         -0.91960       -3.51020       -3.79060
H         -0.07840       -3.33990       -2.24930
H         -3.06420       -3.91440       -2.59280
H         -1.82540       -5.06650       -2.08660
H         -2.25260       -3.71260       -1.04430
H         -2.17480       -2.10050       -7.08040
H         -1.57630       -3.15690       -5.80660
H         -0.47080       -0.36980       -6.41530
H          0.14160       -1.48240       -5.19070
H          0.27070       -1.89310       -6.90320
H         -4.40880       -2.41130       -5.94740
H         -3.63410       -3.32000       -4.64830
H         -5.30300       -0.78350       -4.28140
H         -5.82730       -2.42800       -3.92510
H         -4.53490       -1.69040       -2.97710
H         -3.83720       -0.11490       -7.67280
H         -3.83800        3.80350       -7.44150
H         -7.04340        0.12740      -11.33950
H         -6.08310        5.03140      -12.17340
H         -7.59670        3.62740      -14.91170
H         -9.39970        5.06870      -13.58200
H        -10.53190        4.11610      -15.75310
H        -11.05110        1.54140      -15.35380
H        -10.23990        0.90900      -12.93620
H         -9.44290        3.15510      -11.69590
H        -11.05760        3.37050      -12.40960
H         -8.10360        1.10380      -14.51790
