234

C          7.88430       -2.51620        3.38160
C          8.49240       -3.33920        2.46510
C          7.80470       -4.25290        1.55580
O          6.62510       -4.57770        1.58370
C          8.80270       -4.71280        0.58230
C          8.58700       -5.54930       -0.51140
C          9.71530       -5.79130       -1.25760
C         10.96350       -5.23880       -0.94140
C         11.18840       -4.41290        0.13510
C         10.05510       -4.15570        0.91150
C          9.89710       -3.32570        2.10530
C         10.91170       -2.65990        2.73990
C         10.79520       -1.87020        3.90190
N         10.82330       -1.21130        4.84270
C         12.26040       -2.67080        2.32540
N         13.37610       -2.62240        2.05790
C         11.64240       -5.89780       -2.11620
C         12.50220       -7.14170       -1.80810
C         12.62990       -7.83350       -3.14610
C         11.44820       -8.35900       -3.44300
C         10.50170       -8.03120       -2.31070
C         11.48110       -8.06450       -1.13030
C         10.25080       -6.51620       -2.46690
C          6.52130       -2.30240        3.61420
S          5.20100       -3.19320        2.87300
C          4.01770       -2.03790        3.40410
C          4.61030       -1.06930        4.18190
S          3.97010        0.32720        4.98000
C          5.57930        0.75800        5.52170
C          5.73960        1.98080        6.25740
C          6.45590        2.23950        7.40750
C          6.36620        3.57590        7.83440
C          5.57310        4.33340        7.01540
C          5.24640        5.75440        7.16310
O          5.66280        6.45760        8.04910
O          4.41560        6.15060        6.19240
C          4.01560        7.52190        6.19780
C          5.06070        8.40790        5.53610
S          4.92490        3.41390        5.70680
Cl         7.29290        1.04180        8.30130
C          6.53610       -0.13390        5.10350
C          6.00710       -1.20950        4.33920
Cl         8.20490        0.11350        5.42200
C          2.71480       -1.96110        2.82150
C          2.24350       -0.87040        2.10910
N          2.91780        0.32400        1.89830
C          2.15680        1.50030        1.86310
C          2.42780        2.50880        0.93920
C          1.60540        3.61080        0.85910
C          0.49790        3.72830        1.69560
S         -0.52740        5.14950        1.48100
C         -2.08580        4.65370        2.27520
C          0.25490        2.75220        2.65180
C          1.08060        1.64970        2.73420
C          4.29420        0.33160        1.64420
C          5.11410        1.33790        2.15040
C          6.48630        1.27090        1.99900
C          7.06370        0.20150        1.32710
S          8.80210       -0.04730        1.13890
C          9.55310        1.28430        2.11400
C          6.24210       -0.76650        0.75420
C          4.87630       -0.70060        0.90730
C          0.98440       -1.16340        1.53680
S         -0.06000       -0.26210        0.51640
C         -1.15570       -1.64380        0.39510
C         -0.75740       -2.71680        1.18210
N         -1.49520       -3.85130        1.42610
C         -2.89460       -3.88850        1.28320
C         -3.49310       -5.07960        0.86830
C         -4.86090       -5.17630        0.76920
C         -5.67210       -4.07590        1.05220
S         -7.40660       -4.30960        0.84000
C         -8.11820       -2.66240        1.10050
C         -5.08210       -2.89020        1.46890
C         -3.70720       -2.80470        1.59940
C         -0.89630       -4.97530        2.03460
C          0.29310       -5.51200        1.54820
C          0.85140       -6.62430        2.13950
C          0.23570       -7.22580        3.23380
S          1.03880       -8.64450        3.90460
C         -0.05180       -9.17080        5.25780
C         -0.94900       -6.69150        3.72620
C         -1.50620       -5.57700        3.13180
C          0.50190       -2.43690        1.79070
S          1.62820       -3.33540        2.75920
C         -2.28160       -1.39870       -0.45610
C         -2.81470       -2.09360       -1.53440
N         -2.44350       -3.34650       -1.98580
C         -3.42310       -4.12720       -2.63070
C         -4.73320       -4.12760       -2.16300
C         -5.70960       -4.88930       -2.77280
C         -5.38920       -5.66820       -3.87490
S         -6.54270       -6.69400       -4.72670
C         -8.10650       -6.40300       -3.85230
C         -4.08210       -5.65700       -4.36180
C         -3.11100       -4.89410       -3.75340
C         -1.13000       -3.81700       -1.88590
C         -0.04320       -2.94570       -1.92550
C          1.24790       -3.41720       -1.77910
C          1.48130       -4.77640       -1.62380
S          3.09280       -5.46080       -1.35700
C          3.93250       -4.11880       -0.46530
C          0.40300       -5.65960       -1.65760
C         -0.88490       -5.18670       -1.76520
C         -3.81110       -1.31720       -2.18280
S         -4.78000       -1.52080       -3.59640
C         -5.50530        0.06420       -3.37910
C         -5.00480        0.71140       -2.25510
N         -5.29990        2.03900       -1.86860
C         -6.01610        2.25700       -0.68760
C         -6.50420        3.54020       -0.42520
C         -7.25530        3.79320        0.70160
C         -7.55760        2.76370        1.58610
S         -8.53220        3.01330        3.03800
C         -9.74630        4.23380        2.45480
C         -7.06930        1.48780        1.33670
C         -6.30760        1.23340        0.21560
C         -4.28430        2.95830       -2.23500
C         -3.57290        3.67910       -1.27640
C         -2.57170        4.54270       -1.65790
C         -2.25130        4.70140       -3.00570
S         -0.94500        5.82960       -3.36740
C         -0.80860        5.77900       -5.17760
C         -2.95050        3.97870       -3.96230
C         -3.95580        3.11140       -3.57660
C         -4.02720       -0.06800       -1.61700
S         -2.98790        0.21020       -0.27210
C         -6.30380        0.58630       -4.42670
C         -7.19290        1.61350       -4.38240
C         -7.48290        2.40400       -5.61130
O         -7.19620        2.10660       -6.74870
C         -8.11960        3.64470       -5.12820
C         -8.45100        4.77210       -5.87730
C         -9.01130        5.78830       -5.14110
C         -9.21900        5.70140       -3.75740
C         -8.90170        4.59500       -3.00560
C         -8.34320        3.54520       -3.73870
C         -7.91120        2.22560       -3.29310
C         -8.35930        1.57360       -2.17130
C         -8.06470        0.22270       -1.90990
N         -7.87170       -0.88830       -1.69060
C         -9.24350        2.14240       -1.23840
N         -9.98180        2.56380       -0.46580
C         -9.81170        7.08650       -3.67920
C        -11.34760        7.17060       -3.55270
C        -11.66920        8.58470       -3.97960
C        -11.47760        8.66380       -5.29020
C        -11.02260        7.30470       -5.77100
C        -11.80410        6.40730       -4.80270
C         -9.58530        7.18100       -5.22220
H          8.53020       -1.85010        3.93780
H          7.60690       -5.94760       -0.72340
H         12.15430       -3.99190        0.35670
H         12.10900       -5.22410       -2.83230
H         13.42520       -6.93540       -1.27320
H         13.52180       -7.82200       -3.74470
H         11.15580       -8.87430       -4.33920
H          9.60230       -8.63620       -2.23370
H         11.07190       -7.66850       -0.20270
H         11.88070       -9.06200       -0.95560
H          9.78970       -6.25740       -3.41820
H          6.85140        3.96590        8.71000
H          3.07410        7.54100        5.64570
H          3.85170        7.83740        7.23340
H          4.69830        9.43100        5.49920
H          5.98540        8.38270        6.10760
H          5.25880        8.06350        4.52390
H          3.26900        2.40840        0.27000
H          1.79630        4.38300        0.12980
H         -2.36130        3.65960        1.93580
H         -1.98830        4.68750        3.35650
H         -2.82780        5.37800        1.95340
H         -0.57090        2.83860        3.33920
H          0.89160        0.89190        3.48040
H          4.67460        2.16400        2.68990
H          7.09390        2.05150        2.42710
H          9.21940        1.21850        3.14510
H         10.62440        1.11450        2.06370
H          9.31170        2.24860        1.67650
H          6.68920       -1.57790        0.19980
H          4.24920       -1.46120        0.46930
H         -2.87150       -5.93030        0.63410
H         -5.32140       -6.09870        0.45170
H         -9.18950       -2.78780        0.97640
H         -7.74590       -1.97390        0.34660
H         -7.90580       -2.31760        2.10830
H         -5.68000       -2.02600        1.71120
H         -3.27200       -1.89150        1.97570
H          0.76510       -5.06480        0.69130
H          1.77060       -7.03740        1.75450
H          0.41160      -10.05890        5.67580
H         -1.03530       -9.41740        4.86860
H         -0.10790       -8.39440        6.01520
H         -1.44750       -7.12810        4.57630
H         -2.42640       -5.16830        3.52280
H         -4.99490       -3.52380       -1.30990
H         -6.70760       -4.86170       -2.36850
H         -8.37920       -5.35400       -3.92120
H         -8.84500       -7.01150       -4.36510
H         -8.02010       -6.72130       -2.81750
H         -3.84120       -6.25080       -5.23000
H         -2.10600       -4.88600       -4.14760
H         -0.20230       -1.89090       -2.08990
H          2.06720       -2.71540       -1.80060
H          3.24060       -3.69210        0.25470
H          4.29150       -3.36800       -1.16440
H          4.77030       -4.56650        0.06130
H          0.58840       -6.71770       -1.55690
H         -1.71360       -5.87740       -1.74640
H         -6.28530        4.33820       -1.12020
H         -7.61470        4.79400        0.88310
H        -10.08040        3.93590        1.46540
H         -9.31360        5.23030        2.44830
H        -10.57100        4.19700        3.15920
H         -7.29940        0.69310        2.02940
H         -5.94720        0.23260        0.03770
H         -3.80610        3.54760       -0.23040
H         -2.01030        5.09310       -0.91880
H         -0.01100        6.47120       -5.42890
H         -0.54300        4.77750       -5.50320
H         -1.73870        6.10920       -5.63080
H         -2.72660        4.07510       -5.01220
H         -4.48930        2.54970       -4.32840
H         -6.08530        0.19840       -5.41720
H         -8.26870        4.80630       -6.94000
H         -9.05120        4.53490       -1.93980
H         -9.29130        7.79110       -3.03290
H        -11.74390        6.84540       -2.59460
H        -11.94120        9.37000       -3.29910
H        -11.55750        9.52820       -5.92290
H        -11.12330        7.10280       -6.83390
H        -12.87970        6.47550       -4.95620
H        -11.49960        5.36250       -4.82060
H         -8.91630        7.94970       -5.60490
