
  xtb     02092205143D
 energy: -356.817011650841 gnorm: 0.000373448567 xtb: 6.4.1 (unknown)
212234  0     0  0            999 V2000
    1.7179   -7.3579    7.3356 C   0  0  0  0  0  0  0  0  0  0  0  0
    1.1731   -8.6078    7.2901 C   0  0  0  0  0  0  0  0  0  0  0  0
    0.7868   -9.3477    6.0734 C   0  0  0  0  0  0  0  0  0  0  0  0
    0.9953   -9.0353    4.9173 O   0  0  0  0  0  0  0  0  0  0  0  0
    0.0862  -10.5568    6.5344 C   0  0  0  0  0  0  0  0  0  0  0  0
   -0.5124  -11.5293    5.7354 C   0  0  0  0  0  0  0  0  0  0  0  0
   -1.1225  -12.5355    6.4443 C   0  0  0  0  0  0  0  0  0  0  0  0
   -1.1318  -12.5754    7.8456 C   0  0  0  0  0  0  0  0  0  0  0  0
   -0.5366  -11.6286    8.6446 C   0  0  0  0  0  0  0  0  0  0  0  0
    0.0870  -10.5906    7.9437 C   0  0  0  0  0  0  0  0  0  0  0  0
    0.7950   -9.4132    8.4403 C   0  0  0  0  0  0  0  0  0  0  0  0
    1.0604   -9.1454    9.7578 C   0  0  0  0  0  0  0  0  0  0  0  0
    0.6795   -9.9746   10.8345 C   0  0  0  0  0  0  0  0  0  0  0  0
    0.4033  -10.5937   11.7611 N   0  0  0  0  0  0  0  0  0  0  0  0
    1.7609   -8.0233   10.2494 C   0  0  0  0  0  0  0  0  0  0  0  0
    2.3211   -7.1479   10.7390 N   0  0  0  0  0  0  0  0  0  0  0  0
   -1.9401  -13.8482    7.8836 C   0  0  0  0  0  0  0  0  0  0  0  0
   -3.4396  -13.6998    8.2190 C   0  0  0  0  0  0  0  0  0  0  0  0
   -4.0516  -14.9884    7.7186 C   0  0  0  0  0  0  0  0  0  0  0  0
   -4.0422  -14.9512    6.3923 C   0  0  0  0  0  0  0  0  0  0  0  0
   -3.4237  -13.6369    5.9738 C   0  0  0  0  0  0  0  0  0  0  0  0
   -3.9113  -12.7400    7.1190 C   0  0  0  0  0  0  0  0  0  0  0  0
   -1.9289  -13.8041    6.3218 C   0  0  0  0  0  0  0  0  0  0  0  0
    2.0524   -6.4638    6.2939 C   0  0  0  0  0  0  0  0  0  0  0  0
    2.4786   -5.1755    6.5609 C   0  0  0  0  0  0  0  0  0  0  0  0
    2.7084   -4.3973    5.4154 C   0  0  0  0  0  0  0  0  0  0  0  0
    3.0661   -3.0320    5.3456 C   0  0  0  0  0  0  0  0  0  0  0  0
    3.1979   -2.2039    6.5475 C   0  0  0  0  0  0  0  0  0  0  0  0
    2.2065   -2.1882    7.5292 C   0  0  0  0  0  0  0  0  0  0  0  0
    2.3308   -1.3827    8.6386 C   0  0  0  0  0  0  0  0  0  0  0  0
    3.4488   -0.5679    8.8292 C   0  0  0  0  0  0  0  0  0  0  0  0
    3.4916    0.3767   10.3159 S   0  0  0  0  0  0  0  0  0  0  0  0
    4.5368    1.8339    9.9148 C   0  0  0  0  0  0  0  0  0  0  0  0
    4.2313    2.9361   10.9101 C   0  0  0  0  0  0  0  0  0  0  0  0
    4.4384   -0.6094    7.8511 C   0  0  0  0  0  0  0  0  0  0  0  0
    5.5746    0.1147    7.9746 F   0  0  0  0  0  0  0  0  0  0  0  0
    4.3154   -1.3945    6.7230 C   0  0  0  0  0  0  0  0  0  0  0  0
    3.2393   -2.5081    4.0786 C   0  0  0  0  0  0  0  0  0  0  0  0
    3.0644   -3.2719    2.8946 C   0  0  0  0  0  0  0  0  0  0  0  0
    2.6622   -4.6169    2.9638 C   0  0  0  0  0  0  0  0  0  0  0  0
    2.3534   -5.3524    1.7333 C   0  0  0  0  0  0  0  0  0  0  0  0
    2.8661   -6.6206    1.4735 C   0  0  0  0  0  0  0  0  0  0  0  0
    2.6090   -7.2412    0.2690 C   0  0  0  0  0  0  0  0  0  0  0  0
    1.8133   -6.6406   -0.7042 C   0  0  0  0  0  0  0  0  0  0  0  0
    1.5570   -7.5204   -2.2153 S   0  0  0  0  0  0  0  0  0  0  0  0
    1.6487   -6.2154   -3.4985 C   0  0  0  0  0  0  0  0  0  0  0  0
    2.9347   -5.4164   -3.4228 C   0  0  0  0  0  0  0  0  0  0  0  0
    1.2466   -5.4072   -0.3991 C   0  0  0  0  0  0  0  0  0  0  0  0
    1.5233   -4.7615    0.7850 C   0  0  0  0  0  0  0  0  0  0  0  0
    0.3864   -4.8038   -1.2514 F   0  0  0  0  0  0  0  0  0  0  0  0
    2.5049   -5.1575    4.2302 C   0  0  0  0  0  0  0  0  0  0  0  0
    1.9635   -6.7764    4.5723 S   0  0  0  0  0  0  0  0  0  0  0  0
    3.2619   -2.5010    1.7328 C   0  0  0  0  0  0  0  0  0  0  0  0
    3.4828   -1.1694    1.9751 C   0  0  0  0  0  0  0  0  0  0  0  0
    3.5680   -0.8386    3.7000 S   0  0  0  0  0  0  0  0  0  0  0  0
    3.4423   -0.1893    0.9473 C   0  0  0  0  0  0  0  0  0  0  0  0
    3.0788   -0.4445   -0.3745 C   0  0  0  0  0  0  0  0  0  0  0  0
    2.7890    0.8023   -0.9930 C   0  0  0  0  0  0  0  0  0  0  0  0
    3.1121    1.8535   -0.0659 C   0  0  0  0  0  0  0  0  0  0  0  0
    3.0948    3.0648   -0.1681 O   0  0  0  0  0  0  0  0  0  0  0  0
    3.5154    1.1755    1.1007 N   0  0  0  0  0  0  0  0  0  0  0  0
    3.9693    1.9151    2.2515 C   0  0  0  0  0  0  0  0  0  0  0  0
    5.4708    1.7609    2.4717 C   0  0  0  0  0  0  0  0  0  0  0  0
    2.2306    0.5610   -2.2385 C   0  0  0  0  0  0  0  0  0  0  0  0
    2.2971   -0.7971   -2.4603 N   0  0  0  0  0  0  0  0  0  0  0  0
    1.8700   -1.5101   -3.6379 C   0  0  0  0  0  0  0  0  0  0  0  0
    2.9827   -1.5944   -4.6793 C   0  0  0  0  0  0  0  0  0  0  0  0
    2.7760   -1.4801   -1.3327 C   0  0  0  0  0  0  0  0  0  0  0  0
    2.8738   -2.6954   -1.2905 O   0  0  0  0  0  0  0  0  0  0  0  0
    1.5310    1.5129   -3.0286 C   0  0  0  0  0  0  0  0  0  0  0  0
    0.7588    2.5546   -2.5094 C   0  0  0  0  0  0  0  0  0  0  0  0
    0.3596    2.7277   -1.2049 N   0  0  0  0  0  0  0  0  0  0  0  0
   -0.0405    4.0288   -0.8272 C   0  0  0  0  0  0  0  0  0  0  0  0
    0.8131    5.1049   -1.0492 C   0  0  0  0  0  0  0  0  0  0  0  0
    0.3786    6.3956   -0.8215 C   0  0  0  0  0  0  0  0  0  0  0  0
   -0.9187    6.6213   -0.3799 C   0  0  0  0  0  0  0  0  0  0  0  0
   -1.5851    8.2432   -0.1607 S   0  0  0  0  0  0  0  0  0  0  0  0
   -0.5896    9.2390   -1.3100 C   0  0  0  0  0  0  0  0  0  0  0  0
   -1.7480    5.5418   -0.0847 C   0  0  0  0  0  0  0  0  0  0  0  0
   -1.3116    4.2526   -0.3015 C   0  0  0  0  0  0  0  0  0  0  0  0
    0.1730    1.6707   -0.3111 C   0  0  0  0  0  0  0  0  0  0  0  0
    0.4402    1.8625    1.0448 C   0  0  0  0  0  0  0  0  0  0  0  0
    0.3282    0.8122    1.9308 C   0  0  0  0  0  0  0  0  0  0  0  0
   -0.0622   -0.4464    1.4862 C   0  0  0  0  0  0  0  0  0  0  0  0
   -0.0967   -1.7637    2.6686 S   0  0  0  0  0  0  0  0  0  0  0  0
   -1.4727   -2.7949    2.0742 C   0  0  0  0  0  0  0  0  0  0  0  0
   -0.3794   -0.6314    0.1458 C   0  0  0  0  0  0  0  0  0  0  0  0
   -0.2727    0.4200   -0.7393 C   0  0  0  0  0  0  0  0  0  0  0  0
    0.2927    3.3886   -3.5524 C   0  0  0  0  0  0  0  0  0  0  0  0
   -0.7262    4.7732   -3.5628 S   0  0  0  0  0  0  0  0  0  0  0  0
   -0.7253    4.7976   -5.3265 C   0  0  0  0  0  0  0  0  0  0  0  0
    0.0451    3.7549   -5.8636 C   0  0  0  0  0  0  0  0  0  0  0  0
    0.1932    3.4854   -7.1941 N   0  0  0  0  0  0  0  0  0  0  0  0
    1.3153    2.7562   -7.6274 C   0  0  0  0  0  0  0  0  0  0  0  0
    1.1679    1.7080   -8.5299 C   0  0  0  0  0  0  0  0  0  0  0  0
    2.2638    0.9764   -8.9420 C   0  0  0  0  0  0  0  0  0  0  0  0
    3.5292    1.2849   -8.4578 C   0  0  0  0  0  0  0  0  0  0  0  0
    4.9970    0.4099   -8.8871 S   0  0  0  0  0  0  0  0  0  0  0  0
    4.4394   -0.8202  -10.0998 C   0  0  0  0  0  0  0  0  0  0  0  0
    3.6822    2.3496   -7.5705 C   0  0  0  0  0  0  0  0  0  0  0  0
    2.5901    3.0802   -7.1612 C   0  0  0  0  0  0  0  0  0  0  0  0
   -0.8016    3.8044   -8.1419 C   0  0  0  0  0  0  0  0  0  0  0  0
   -0.4271    4.2891   -9.3936 C   0  0  0  0  0  0  0  0  0  0  0  0
   -1.3885    4.5932  -10.3316 C   0  0  0  0  0  0  0  0  0  0  0  0
   -2.7406    4.4209  -10.0392 C   0  0  0  0  0  0  0  0  0  0  0  0
   -3.8805    4.8449  -11.3147 S   0  0  0  0  0  0  0  0  0  0  0  0
   -5.5022    4.7186  -10.5095 C   0  0  0  0  0  0  0  0  0  0  0  0
   -3.1118    3.9207   -8.7970 C   0  0  0  0  0  0  0  0  0  0  0  0
   -2.1490    3.6084   -7.8582 C   0  0  0  0  0  0  0  0  0  0  0  0
    0.6232    2.9737   -4.8312 C   0  0  0  0  0  0  0  0  0  0  0  0
    1.5671    1.5241   -4.7903 S   0  0  0  0  0  0  0  0  0  0  0  0
   -1.3188    5.8885   -5.9875 C   0  0  0  0  0  0  0  0  0  0  0  0
   -2.1786    6.7925   -5.4263 C   0  0  0  0  0  0  0  0  0  0  0  0
   -2.2561    8.1835   -5.9342 C   0  0  0  0  0  0  0  0  0  0  0  0
   -1.8635    8.5934   -7.0049 O   0  0  0  0  0  0  0  0  0  0  0  0
   -2.8477    8.9653   -4.8257 C   0  0  0  0  0  0  0  0  0  0  0  0
   -2.9787   10.3489   -4.7378 C   0  0  0  0  0  0  0  0  0  0  0  0
   -3.5353   10.7862   -3.5584 C   0  0  0  0  0  0  0  0  0  0  0  0
   -3.9378    9.9144   -2.5380 C   0  0  0  0  0  0  0  0  0  0  0  0
   -3.8262    8.5465   -2.6128 C   0  0  0  0  0  0  0  0  0  0  0  0
   -3.2565    8.0857   -3.8006 C   0  0  0  0  0  0  0  0  0  0  0  0
   -2.9822    6.7187   -4.2289 C   0  0  0  0  0  0  0  0  0  0  0  0
   -3.5940    5.5932   -3.7316 C   0  0  0  0  0  0  0  0  0  0  0  0
   -4.4218    5.5695   -2.5949 C   0  0  0  0  0  0  0  0  0  0  0  0
   -5.0876    5.4764   -1.6633 N   0  0  0  0  0  0  0  0  0  0  0  0
   -3.4956    4.3356   -4.3557 C   0  0  0  0  0  0  0  0  0  0  0  0
   -3.4719    3.3067   -4.8676 N   0  0  0  0  0  0  0  0  0  0  0  0
   -4.3999   11.0388   -1.6469 C   0  0  0  0  0  0  0  0  0  0  0  0
   -5.9233   11.2949   -1.5449 C   0  0  0  0  0  0  0  0  0  0  0  0
   -6.5280   10.7948   -2.8334 C   0  0  0  0  0  0  0  0  0  0  0  0
   -6.1555   11.6202   -3.8025 C   0  0  0  0  0  0  0  0  0  0  0  0
   -5.2917   12.6931   -3.1868 C   0  0  0  0  0  0  0  0  0  0  0  0
   -5.9504   12.8098   -1.8029 C   0  0  0  0  0  0  0  0  0  0  0  0
   -3.9595   12.0119   -2.7866 C   0  0  0  0  0  0  0  0  0  0  0  0
    1.8985   -6.9367    8.3175 H   0  0  0  0  0  0  0  0  0  0  0  0
   -0.4795  -11.4580    4.6596 H   0  0  0  0  0  0  0  0  0  0  0  0
   -0.5526  -11.6770    9.7203 H   0  0  0  0  0  0  0  0  0  0  0  0
   -1.4733  -14.6932    8.3857 H   0  0  0  0  0  0  0  0  0  0  0  0
   -3.6503  -13.4251    9.2489 H   0  0  0  0  0  0  0  0  0  0  0  0
   -4.3674  -15.7907    8.3591 H   0  0  0  0  0  0  0  0  0  0  0  0
   -4.3483  -15.7164    5.7033 H   0  0  0  0  0  0  0  0  0  0  0  0
   -3.6203  -13.3046    4.9580 H   0  0  0  0  0  0  0  0  0  0  0  0
   -4.9934  -12.6196    7.1147 H   0  0  0  0  0  0  0  0  0  0  0  0
   -3.4367  -11.7609    7.1495 H   0  0  0  0  0  0  0  0  0  0  0  0
   -1.4542  -14.6200    5.7803 H   0  0  0  0  0  0  0  0  0  0  0  0
    2.6181   -4.8150    7.5650 H   0  0  0  0  0  0  0  0  0  0  0  0
    1.3165   -2.7841    7.3979 H   0  0  0  0  0  0  0  0  0  0  0  0
    1.5557   -1.3642    9.3889 H   0  0  0  0  0  0  0  0  0  0  0  0
    5.5823    1.5348    9.9682 H   0  0  0  0  0  0  0  0  0  0  0  0
    4.2900    2.1403    8.8996 H   0  0  0  0  0  0  0  0  0  0  0  0
    3.1821    3.2181   10.8588 H   0  0  0  0  0  0  0  0  0  0  0  0
    4.8406    3.8095   10.6879 H   0  0  0  0  0  0  0  0  0  0  0  0
    4.4504    2.6067   11.9232 H   0  0  0  0  0  0  0  0  0  0  0  0
    5.1203   -1.3911    6.0046 H   0  0  0  0  0  0  0  0  0  0  0  0
    3.5003   -7.1038    2.2000 H   0  0  0  0  0  0  0  0  0  0  0  0
    3.0329   -8.2097    0.0539 H   0  0  0  0  0  0  0  0  0  0  0  0
    0.7681   -5.5810   -3.4202 H   0  0  0  0  0  0  0  0  0  0  0  0
    1.5926   -6.7857   -4.4265 H   0  0  0  0  0  0  0  0  0  0  0  0
    3.0227   -4.7894   -4.3084 H   0  0  0  0  0  0  0  0  0  0  0  0
    2.9514   -4.7733   -2.5451 H   0  0  0  0  0  0  0  0  0  0  0  0
    3.7946   -6.0820   -3.3831 H   0  0  0  0  0  0  0  0  0  0  0  0
    1.0776   -3.7989    0.9727 H   0  0  0  0  0  0  0  0  0  0  0  0
    3.2215   -2.9042    0.7377 H   0  0  0  0  0  0  0  0  0  0  0  0
    3.4155    1.6032    3.1411 H   0  0  0  0  0  0  0  0  0  0  0  0
    3.7313    2.9613    2.0362 H   0  0  0  0  0  0  0  0  0  0  0  0
    5.7308    0.7209    2.6521 H   0  0  0  0  0  0  0  0  0  0  0  0
    5.7766    2.3485    3.3324 H   0  0  0  0  0  0  0  0  0  0  0  0
    6.0146    2.1107    1.5973 H   0  0  0  0  0  0  0  0  0  0  0  0
    1.5983   -2.5166   -3.3071 H   0  0  0  0  0  0  0  0  0  0  0  0
    0.9884   -1.0201   -4.0588 H   0  0  0  0  0  0  0  0  0  0  0  0
    3.2910   -0.6004   -4.9960 H   0  0  0  0  0  0  0  0  0  0  0  0
    2.6309   -2.1411   -5.5499 H   0  0  0  0  0  0  0  0  0  0  0  0
    3.8428   -2.1114   -4.2608 H   0  0  0  0  0  0  0  0  0  0  0  0
    1.8180    4.9138   -1.3920 H   0  0  0  0  0  0  0  0  0  0  0  0
    1.0541    7.2170   -0.9985 H   0  0  0  0  0  0  0  0  0  0  0  0
   -0.4991    8.7115   -2.2549 H   0  0  0  0  0  0  0  0  0  0  0  0
   -1.1377   10.1644   -1.4569 H   0  0  0  0  0  0  0  0  0  0  0  0
    0.3859    9.4528   -0.8832 H   0  0  0  0  0  0  0  0  0  0  0  0
   -2.7460    5.7242    0.2822 H   0  0  0  0  0  0  0  0  0  0  0  0
   -1.9660    3.4165   -0.1046 H   0  0  0  0  0  0  0  0  0  0  0  0
    0.7503    2.8373    1.3891 H   0  0  0  0  0  0  0  0  0  0  0  0
    0.5524    0.9545    2.9770 H   0  0  0  0  0  0  0  0  0  0  0  0
   -1.1973   -3.3359    1.1742 H   0  0  0  0  0  0  0  0  0  0  0  0
   -1.6775   -3.5006    2.8732 H   0  0  0  0  0  0  0  0  0  0  0  0
   -2.3383   -2.1638    1.8988 H   0  0  0  0  0  0  0  0  0  0  0  0
   -0.7052   -1.5929   -0.2181 H   0  0  0  0  0  0  0  0  0  0  0  0
   -0.5345    0.2692   -1.7758 H   0  0  0  0  0  0  0  0  0  0  0  0
    0.1849    1.4597   -8.9012 H   0  0  0  0  0  0  0  0  0  0  0  0
    2.1143    0.1632   -9.6331 H   0  0  0  0  0  0  0  0  0  0  0  0
    3.9937   -0.3219  -10.9557 H   0  0  0  0  0  0  0  0  0  0  0  0
    3.7431   -1.5129   -9.6362 H   0  0  0  0  0  0  0  0  0  0  0  0
    5.3348   -1.3507  -10.4083 H   0  0  0  0  0  0  0  0  0  0  0  0
    4.6694    2.5957   -7.2113 H   0  0  0  0  0  0  0  0  0  0  0  0
    2.7173    3.9113   -6.4835 H   0  0  0  0  0  0  0  0  0  0  0  0
    0.6189    4.4331   -9.6204 H   0  0  0  0  0  0  0  0  0  0  0  0
   -1.1052    4.9769  -11.2994 H   0  0  0  0  0  0  0  0  0  0  0  0
   -6.2205    5.0718  -11.2430 H   0  0  0  0  0  0  0  0  0  0  0  0
   -5.7165    3.6847  -10.2544 H   0  0  0  0  0  0  0  0  0  0  0  0
   -5.5260    5.3567   -9.6312 H   0  0  0  0  0  0  0  0  0  0  0  0
   -4.1465    3.7550   -8.5463 H   0  0  0  0  0  0  0  0  0  0  0  0
   -2.4513    3.2143   -6.8996 H   0  0  0  0  0  0  0  0  0  0  0  0
   -0.9643    6.1203   -6.9856 H   0  0  0  0  0  0  0  0  0  0  0  0
   -2.6586   10.9898   -5.5446 H   0  0  0  0  0  0  0  0  0  0  0  0
   -4.1269    7.8839   -1.8188 H   0  0  0  0  0  0  0  0  0  0  0  0
   -3.9005   11.1163   -0.6829 H   0  0  0  0  0  0  0  0  0  0  0  0
   -6.3803   10.9333   -0.6280 H   0  0  0  0  0  0  0  0  0  0  0  0
   -7.0978    9.8877   -2.9142 H   0  0  0  0  0  0  0  0  0  0  0  0
   -6.3522   11.5413   -4.8557 H   0  0  0  0  0  0  0  0  0  0  0  0
   -5.1755   13.6065   -3.7646 H   0  0  0  0  0  0  0  0  0  0  0  0
   -6.9614   13.2115   -1.8504 H   0  0  0  0  0  0  0  0  0  0  0  0
   -5.3604   13.3821   -1.0881 H   0  0  0  0  0  0  0  0  0  0  0  0
   -3.1754   12.7347   -2.5672 H   0  0  0  0  0  0  0  0  0  0  0  0
  1  2  2  0  0  0  0
  2  3  1  0  0  0  0
  3  4  2  0  0  0  0
  3  5  1  0  0  0  0
  5  6  2  0  0  0  0
  6  7  1  0  0  0  0
  7  8  2  0  0  0  0
  8  9  1  0  0  0  0
  9 10  2  0  0  0  0
 10 11  1  0  0  0  0
 11 12  2  0  0  0  0
 12 13  1  0  0  0  0
 13 14  3  0  0  0  0
 12 15  1  0  0  0  0
 15 16  3  0  0  0  0
  8 17  1  0  0  0  0
 17 18  1  0  0  0  0
 18 19  1  0  0  0  0
 19 20  2  0  0  0  0
 20 21  1  0  0  0  0
 21 22  1  0  0  0  0
 21 23  1  0  0  0  0
  1 24  1  0  0  0  0
 24 25  2  0  0  0  0
 25 26  1  0  0  0  0
 26 27  2  0  0  0  0
 27 28  1  0  0  0  0
 28 29  2  0  0  0  0
 29 30  1  0  0  0  0
 30 31  2  0  0  0  0
 31 32  1  0  0  0  0
 32 33  1  0  0  0  0
 33 34  1  0  0  0  0
 31 35  1  0  0  0  0
 35 36  1  0  0  0  0
 35 37  2  0  0  0  0
 27 38  1  0  0  0  0
 38 39  2  0  0  0  0
 39 40  1  0  0  0  0
 40 41  1  0  0  0  0
 41 42  2  0  0  0  0
 42 43  1  0  0  0  0
 43 44  2  0  0  0  0
 44 45  1  0  0  0  0
 45 46  1  0  0  0  0
 46 47  1  0  0  0  0
 44 48  1  0  0  0  0
 48 49  2  0  0  0  0
 48 50  1  0  0  0  0
 40 51  2  0  0  0  0
 51 52  1  0  0  0  0
 39 53  1  0  0  0  0
 53 54  2  0  0  0  0
 54 55  1  0  0  0  0
 54 56  1  0  0  0  0
 56 57  2  0  0  0  0
 57 58  1  0  0  0  0
 58 59  1  0  0  0  0
 59 60  2  0  0  0  0
 59 61  1  0  0  0  0
 61 62  1  0  0  0  0
 62 63  1  0  0  0  0
 58 64  2  0  0  0  0
 64 65  1  0  0  0  0
 65 66  1  0  0  0  0
 66 67  1  0  0  0  0
 65 68  1  0  0  0  0
 68 69  2  0  0  0  0
 64 70  1  0  0  0  0
 70 71  2  0  0  0  0
 71 72  1  0  0  0  0
 72 73  1  0  0  0  0
 73 74  2  0  0  0  0
 74 75  1  0  0  0  0
 75 76  2  0  0  0  0
 76 77  1  0  0  0  0
 77 78  1  0  0  0  0
 76 79  1  0  0  0  0
 79 80  2  0  0  0  0
 72 81  1  0  0  0  0
 81 82  2  0  0  0  0
 82 83  1  0  0  0  0
 83 84  2  0  0  0  0
 84 85  1  0  0  0  0
 85 86  1  0  0  0  0
 84 87  1  0  0  0  0
 87 88  2  0  0  0  0
 71 89  1  0  0  0  0
 89 90  1  0  0  0  0
 90 91  1  0  0  0  0
 91 92  2  0  0  0  0
 92 93  1  0  0  0  0
 93 94  1  0  0  0  0
 94 95  2  0  0  0  0
 95 96  1  0  0  0  0
 96 97  2  0  0  0  0
 97 98  1  0  0  0  0
 98 99  1  0  0  0  0
 97100  1  0  0  0  0
100101  2  0  0  0  0
 93102  1  0  0  0  0
102103  2  0  0  0  0
103104  1  0  0  0  0
104105  2  0  0  0  0
105106  1  0  0  0  0
106107  1  0  0  0  0
105108  1  0  0  0  0
108109  2  0  0  0  0
 92110  1  0  0  0  0
110111  1  0  0  0  0
 91112  1  0  0  0  0
112113  2  0  0  0  0
113114  1  0  0  0  0
114115  2  0  0  0  0
114116  1  0  0  0  0
116117  2  0  0  0  0
117118  1  0  0  0  0
118119  2  0  0  0  0
119120  1  0  0  0  0
120121  2  0  0  0  0
121122  1  0  0  0  0
122123  2  0  0  0  0
123124  1  0  0  0  0
124125  3  0  0  0  0
123126  1  0  0  0  0
126127  3  0  0  0  0
119128  1  0  0  0  0
128129  1  0  0  0  0
129130  1  0  0  0  0
130131  2  0  0  0  0
131132  1  0  0  0  0
132133  1  0  0  0  0
132134  1  0  0  0  0
 11  2  1  0  0  0  0
 23 17  1  0  0  0  0
 52 24  1  0  0  0  0
 61 56  1  0  0  0  0
111 70  1  0  0  0  0
122113  1  0  0  0  0
134128  1  0  0  0  0
 10  5  1  0  0  0  0
 22 18  1  0  0  0  0
 51 26  1  0  0  0  0
 68 57  1  0  0  0  0
 80 73  1  0  0  0  0
 88 81  1  0  0  0  0
110 89  2  0  0  0  0
121116  1  0  0  0  0
133129  1  0  0  0  0
 23  7  1  0  0  0  0
 37 28  1  0  0  0  0
 55 38  1  0  0  0  0
101 94  1  0  0  0  0
109102  1  0  0  0  0
134118  1  0  0  0  0
 49 41  1  0  0  0  0
  1135  1  0  0  0  0
  6136  1  0  0  0  0
  9137  1  0  0  0  0
 17138  1  0  0  0  0
 18139  1  0  0  0  0
 19140  1  0  0  0  0
 20141  1  0  0  0  0
 21142  1  0  0  0  0
 22143  1  0  0  0  0
 22144  1  0  0  0  0
 23145  1  0  0  0  0
 25146  1  0  0  0  0
 29147  1  0  0  0  0
 30148  1  0  0  0  0
 33149  1  0  0  0  0
 33150  1  0  0  0  0
 34151  1  0  0  0  0
 34152  1  0  0  0  0
 34153  1  0  0  0  0
 37154  1  0  0  0  0
 42155  1  0  0  0  0
 43156  1  0  0  0  0
 46157  1  0  0  0  0
 46158  1  0  0  0  0
 47159  1  0  0  0  0
 47160  1  0  0  0  0
 47161  1  0  0  0  0
 49162  1  0  0  0  0
 53163  1  0  0  0  0
 62164  1  0  0  0  0
 62165  1  0  0  0  0
 63166  1  0  0  0  0
 63167  1  0  0  0  0
 63168  1  0  0  0  0
 66169  1  0  0  0  0
 66170  1  0  0  0  0
 67171  1  0  0  0  0
 67172  1  0  0  0  0
 67173  1  0  0  0  0
 74174  1  0  0  0  0
 75175  1  0  0  0  0
 78176  1  0  0  0  0
 78177  1  0  0  0  0
 78178  1  0  0  0  0
 79179  1  0  0  0  0
 80180  1  0  0  0  0
 82181  1  0  0  0  0
 83182  1  0  0  0  0
 86183  1  0  0  0  0
 86184  1  0  0  0  0
 86185  1  0  0  0  0
 87186  1  0  0  0  0
 88187  1  0  0  0  0
 95188  1  0  0  0  0
 96189  1  0  0  0  0
 99190  1  0  0  0  0
 99191  1  0  0  0  0
 99192  1  0  0  0  0
100193  1  0  0  0  0
101194  1  0  0  0  0
103195  1  0  0  0  0
104196  1  0  0  0  0
107197  1  0  0  0  0
107198  1  0  0  0  0
107199  1  0  0  0  0
108200  1  0  0  0  0
109201  1  0  0  0  0
112202  1  0  0  0  0
117203  1  0  0  0  0
120204  1  0  0  0  0
128205  1  0  0  0  0
129206  1  0  0  0  0
130207  1  0  0  0  0
131208  1  0  0  0  0
132209  1  0  0  0  0
133210  1  0  0  0  0
133211  1  0  0  0  0
134212  1  0  0  0  0
M  END
