232

C         -7.88920        5.47110        4.20040
C         -8.95390        5.08540        3.45510
C        -10.32110        5.60550        3.73830
O        -10.60470        6.55900        4.42610
C        -11.23720        4.67900        3.04480
C        -12.63080        4.68290        3.08590
C        -13.21760        3.69520        2.33190
C        -12.47730        2.76360        1.59000
C        -11.10460        2.74910        1.53360
C        -10.48790        3.74910        2.29130
C         -9.07500        4.08570        2.41160
C         -8.08800        3.72530        1.53160
C         -8.22280        2.73560        0.53930
N         -8.24780        1.90600       -0.25450
C         -6.83250        4.36730        1.47760
N         -5.83040        4.91390        1.35150
C        -13.71320        2.06720        1.07870
C        -14.08120        0.72710        1.74980
C        -15.53910        0.53620        1.39870
C        -16.24110        1.41860        2.09810
C        -15.26980        2.22020        2.93440
C        -14.21600        1.14240        3.22050
C        -14.53900        3.10620        1.90320
C         -6.62330        4.82210        4.28550
C         -5.40630        5.41600        4.47340
C         -4.31340        4.52180        4.38190
C         -2.93870        4.82420        4.40270
C         -2.44920        6.20410        4.46210
C         -2.94200        7.17510        3.59450
C         -2.45640        8.46820        3.62170
C         -1.46260        8.83760        4.52280
S         -0.76010       10.44120        4.66940
C         -1.58930       11.39540        3.34380
C         -1.02180       12.80230        3.33250
C         -0.97770        7.85060        5.38490
F         -0.01630        8.17510        6.27330
C         -1.44520        6.55750        5.36250
C         -2.06530        3.75410        4.28150
C         -2.50750        2.41610        4.15060
C         -3.87940        2.11080        4.11710
C         -4.30230        0.72270        3.89020
C         -5.12690        0.37630        2.82550
C         -5.41210       -0.94770        2.54650
C         -4.87550       -1.96990        3.32100
S         -5.12370       -3.69440        3.06990
C         -5.80710       -3.81530        1.38320
C         -4.77220       -3.49630        0.32240
C         -4.08550       -1.60280        4.41130
C         -3.79920       -0.29050        4.70500
F         -3.56830       -2.57410        5.19690
C         -4.74730        3.18050        4.21450
S         -6.48130        3.07660        4.12400
C         -1.44240        1.52820        3.88850
C         -0.22620        2.14090        3.78570
S         -0.32970        3.86050        4.09170
C          0.95270        1.48240        3.31930
C          1.20110        0.12480        3.44870
N          0.54260       -0.73560        4.32210
C          0.33130       -0.33730        5.64610
C         -0.75860       -0.80090        6.38410
C         -0.97180       -0.35630        7.66980
C         -0.10710        0.56320        8.25860
S         -0.50280        1.07850        9.90080
C          0.79530        2.27950       10.30950
C          0.99390        1.00790        7.54030
C          1.20980        0.55770        6.25320
C         -0.02080       -1.89770        3.77790
C         -0.52390       -1.87540        2.47550
C         -1.09550       -3.00200        1.92660
C         -1.18850       -4.17160        2.67120
S         -1.94500       -5.57270        1.90190
C         -2.60680       -6.50060        3.31310
C         -0.67040       -4.20980        3.95820
C         -0.08670       -3.08460        4.50360
C          2.21460       -0.29110        2.55870
S          2.81520       -1.83550        2.08570
C          3.76140       -1.09390        0.79410
C          3.62110        0.28840        0.75900
N          4.14310        1.15970       -0.18490
C          4.15920        0.82870       -1.54530
C          5.19610        1.27420       -2.36800
C          5.27380        0.85320       -3.67740
C          4.32420       -0.02500       -4.19400
S          4.53230       -0.57370       -5.85930
C          3.73780       -2.20860       -5.84140
C          3.25620       -0.41950       -3.39870
C          3.17090        0.01090       -2.09010
C          4.50100        2.44650        0.24110
C          5.11480        2.62550        1.47830
C          5.43270        3.88990        1.93420
C          5.14760        5.00090        1.15290
S          5.50350        6.66220        1.63020
C          5.88380        6.52850        3.40070
C          4.55600        4.82420       -0.09710
C          4.23150        3.56540       -0.54800
C          2.74610        0.72820        1.78680
S          2.05550        2.26340        2.19800
C          4.34100       -1.99980       -0.14380
C          3.83800       -3.23710       -0.43050
C          4.43630       -3.85440       -1.55020
C          4.05060       -5.06230       -2.16900
C          2.95580       -5.85780       -1.65000
C          1.74720       -5.40490       -1.19790
C          0.88050       -6.37220       -0.64930
C          1.37910       -7.64150       -0.64880
S          0.66490       -9.10910       -0.02180
C         -1.12250       -8.72300       -0.03750
C         -1.66220       -8.57520       -1.44550
Se         3.08630       -7.73410       -1.42730
C          4.77220       -5.42060       -3.29980
C          5.78740       -4.61230       -3.87740
C          6.14190       -3.37310       -3.28170
C          7.04430       -2.44930       -3.91670
C          7.25630       -2.26620       -5.26210
C          8.16240       -1.25490       -5.61480
C          8.71910       -0.57830       -4.56300
S          9.80240        0.77800       -4.76110
C         10.34490        1.08050       -3.04390
C         11.36430        0.06190       -2.57560
Se         8.05890       -1.21210       -2.91860
C          5.47960       -3.06800       -2.09340
S          5.71530       -1.61730       -1.15680
C          6.30050       -5.18980       -5.05570
C          5.68850       -6.36310       -5.41560
S          4.48520       -6.85870       -4.23370
C          5.88940       -7.15690       -6.57040
C          6.19350       -6.67590       -7.81130
C          6.01160       -5.27090       -8.24770
O          5.83880       -4.28190       -7.56180
C          5.98160       -5.31450       -9.71970
C          5.73250       -4.24520      -10.57770
C          5.74960       -4.58190      -11.90950
C          5.98960       -5.88800      -12.35820
C          6.23460       -6.95230      -11.52300
C          6.22710       -6.63000      -10.16320
C          6.42830       -7.48030       -8.99540
C          6.84470       -8.78500       -9.00410
C          7.09810       -9.53200      -10.17250
N          7.31550      -10.19270      -11.08600
C          7.12230       -9.53650       -7.84200
N          7.38870      -10.19650       -6.94120
C          5.85360       -5.49950      -13.80890
C          7.15160       -5.34730      -14.63970
C          8.24560       -4.99120      -13.66370
C          8.02210       -3.75490      -13.23850
C          6.77290       -3.25250      -13.91940
C          6.89460       -3.97040      -15.27290
C          5.58970       -4.04400      -13.30910
H         -8.03160        6.34450        4.82870
H        -13.16580        5.42100        3.66270
H        -10.54200        2.03060        0.96020
H        -13.83090        2.04770       -0.00310
H        -13.41030       -0.09630        1.52030
H        -15.89220       -0.15960        0.66040
H        -17.29800        1.60680        2.06070
H        -15.68270        2.75610        3.78460
H        -14.60820        0.33820        3.84070
H        -13.29680        1.52570        3.65980
H        -15.20770        3.77980        1.37070
H         -5.29660        6.47550        4.61910
H         -3.69100        6.90530        2.86540
H         -2.85760        9.18820        2.92770
H         -1.39660       10.89050        2.39720
H         -2.65860       11.40900        3.55520
H         -1.50150       13.38750        2.55080
H          0.04900       12.77910        3.14460
H         -1.19310       13.29020        4.28920
H         -1.03980        5.83880        6.05720
H         -5.52750        1.14660        2.18360
H         -6.05180       -1.17260        1.70870
H         -6.68690       -3.17620        1.31900
H         -6.12730       -4.85490        1.31270
H         -4.40760       -2.47640        0.42790
H         -5.21170       -3.60780       -0.66670
H         -3.92800       -4.17690        0.40950
H         -3.18980       -0.05230        5.56240
H         -1.59420        0.48510        3.68550
H         -1.43840       -1.51570        5.95060
H         -1.82090       -0.71400        8.23220
H          0.77200        3.10640        9.60570
H          0.55680        2.63760       11.30620
H          1.76580        1.79160       10.31630
H          1.69790        1.70230        7.96960
H          2.07670        0.90880        5.71380
H         -0.47820       -0.96330        1.89740
H         -1.48810       -2.97820        0.92140
H         -3.10330       -5.80640        3.98430
H         -3.32650       -7.20200        2.90220
H         -1.81070       -7.04310        3.81510
H         -0.70860       -5.11500        4.54260
H          0.32850       -3.12700        5.49880
H          5.95850        1.92070       -1.96010
H          6.08540        1.18000       -4.31040
H          3.92680       -2.68480       -4.88440
H          2.67170       -2.11480       -6.02830
H          4.20680       -2.78350       -6.63460
H          2.48430       -1.06180       -3.79330
H          2.33910       -0.30540       -1.47750
H          5.34900        1.76430        2.08740
H          5.90850        3.99180        2.89610
H          5.07490        6.01190        3.90860
H          5.95540        7.54940        3.76270
H          6.83310        6.02090        3.54620
H          4.34050        5.69150       -0.70180
H          3.75310        3.44030       -1.50750
H          3.02490       -3.66990        0.12260
H          1.44900       -4.37330       -1.28670
H         -0.08360       -6.10840       -0.25000
H         -1.28150       -7.82560        0.55840
H         -1.57490       -9.57440        0.47050
H         -1.17470       -7.74910       -1.95860
H         -2.73180       -8.37860       -1.40990
H         -1.49150       -9.48570       -2.01550
H          6.71750       -2.81260       -6.01550
H          8.39170       -1.01250       -6.63790
H         10.76590        2.08530       -3.05810
H          9.44670        1.07310       -2.41770
H         10.93500       -0.94050       -2.58250
H         11.67890        0.29450       -1.56060
H         12.23620        0.07080       -3.22530
H          7.14610       -4.80420       -5.59090
H          5.69170       -8.21620       -6.45650
H          5.54670       -3.25490      -10.19150
H          6.40640       -7.95410      -11.88020
H          5.06200       -5.99970      -14.36340
H          7.35780       -6.17710      -15.31020
H          9.01260       -5.67450      -13.34950
H          8.56500       -3.19820      -12.49730
H          6.63460       -2.17460      -13.93460
H          7.73720       -3.61490      -15.86390
H          5.98390       -3.93010      -15.86910
H          4.62640       -3.59250      -13.53880
