258

C          2.90010       11.70360       -0.38420
C          3.91980       11.83540        0.50270
C          4.47250       13.18130        0.83080
O          4.36440       14.18880        0.17190
C          5.10440       13.02170        2.15560
C          5.59740       14.02730        2.98540
C          6.06920       13.57470        4.19460
C          6.04340       12.22250        4.56640
C          5.56710       11.21780        3.75930
C          5.09760       11.65720        2.51820
C          4.53610       10.88650        1.41640
C          4.77290        9.55610        1.19090
C          4.39120        8.86240        0.02260
N          4.16120        8.23540       -0.91140
C          5.47210        8.70530        2.06820
N          6.00820        7.93670        2.73260
C          6.64580       12.50000        5.92020
C          8.14020       12.15550        6.09260
C          8.55870       12.95830        7.30300
C          8.59090       14.23640        6.94810
C          8.19380       14.31920        5.49180
C          8.78260       12.99730        4.98250
C          6.68230       14.00560        5.50360
C          2.04100       10.57250       -0.45250
C          1.80510        9.69690        0.57080
C          1.02650        8.58280        0.20560
C          0.86130        7.40430        0.95260
C          1.58780        7.24500        2.21840
C          2.52730        6.22450        2.33390
C          3.36830        6.14110        3.42480
C          3.30060        7.08310        4.44570
S          4.36390        7.15110        5.84190
C          5.66560        5.92520        5.47390
C          5.27330        4.51120        5.85950
C          2.31930        8.07150        4.34080
F          2.21150        8.99660        5.32040
C          1.47530        8.16620        3.25730
C          0.18730        6.37570        0.32550
C         -0.30600        6.45290       -1.00290
C         -0.04750        7.59750       -1.77830
C         -0.25520        7.63850       -3.23090
C         -0.86300        8.72420       -3.85770
C         -0.87920        8.82290       -5.23250
C         -0.27990        7.85360       -6.03350
S         -0.28280        8.10340       -7.78170
C          1.37690        7.48100       -8.27970
C          1.83130        8.22680       -9.51850
C          0.26830        6.74670       -5.39440
C          0.28820        6.63070       -4.02130
F          0.82020        5.73570       -6.11110
C          0.60090        8.64920       -1.14440
S          1.17740       10.11000       -1.90810
C         -0.94640        5.24980       -1.40130
C         -0.90630        4.26910       -0.45360
S         -0.10870        4.81250        1.02020
C         -1.26320        2.88320       -0.45140
C         -2.27370        2.13190       -1.03080
N         -3.33660        2.58700       -1.79330
C         -3.17480        3.41170       -2.91190
C         -4.13100        4.39180       -3.18330
C         -4.03190        5.16060       -4.31900
C         -2.98050        4.96720       -5.21380
S         -2.98860        5.96850       -6.66650
C         -2.00740        4.99440       -7.84460
C         -2.00340        4.02270       -4.92680
C         -2.10110        3.25010       -3.78380
C         -4.60710        2.04640       -1.53250
C         -5.03930        1.87850       -0.22030
C         -6.29870        1.37700        0.04790
C         -7.14300        1.02440       -0.99530
S         -8.78570        0.42310       -0.76060
C         -8.85490        0.00520        1.00380
C         -6.70820        1.17670       -2.31020
C         -5.45650        1.68120       -2.57730
C         -2.15300        0.76360       -0.66500
S         -3.05640       -0.65340       -1.06190
C         -1.92370       -1.65150       -0.14980
C         -0.94520       -0.89950        0.48750
N         -0.01120       -1.38210        1.38000
C          1.13310       -0.60050        1.63240
C          1.92060       -0.14880        0.57810
C          2.96510        0.72770        0.80640
C          3.22920        1.16760        2.09580
S          4.45180        2.38070        2.48360
C          4.74920        3.19480        0.88720
C          2.49590        0.65050        3.16220
C          1.46080       -0.22750        2.93560
C         -0.30190       -2.45290        2.23940
C         -1.58480       -2.66410        2.74210
C         -1.83700       -3.75510        3.54190
C         -0.82730       -4.66200        3.85380
S         -1.28800       -6.03760        4.86070
C          0.01310       -7.26400        4.55060
C          0.46290       -4.42290        3.40050
C          0.72000       -3.32480        2.60350
C         -1.08170        0.47230        0.16010
S         -0.18580        1.89430        0.53410
C         -2.04720       -3.07280       -0.19570
C         -3.21160       -3.82060       -0.19460
N         -4.49600       -3.26830       -0.05230
C         -4.91000       -2.94060        1.25220
C         -4.90880       -3.90530        2.25200
C         -5.30730       -3.58890        3.53850
C         -5.69460       -2.29280        3.84590
S         -6.20960       -1.76570        5.45050
C         -5.87650       -3.20160        6.50830
C         -5.69370       -1.32180        2.84450
C         -5.31050       -1.64030        1.56120
C         -5.27190       -2.95530       -1.16090
C         -4.71810       -2.89550       -2.44100
C         -5.49480       -2.53490       -3.51970
C         -6.84620       -2.24730       -3.35630
S         -7.73320       -1.72850       -4.79580
C         -9.43030       -1.48620       -4.19750
C         -7.41830       -2.37460       -2.09960
C         -6.63790       -2.72150       -1.01640
C         -2.93710       -5.19820       -0.27450
S         -3.93260       -6.60160       -0.24490
C         -2.49950       -7.64200       -0.30380
C         -1.31340       -6.89410       -0.49240
N         -0.10950       -7.39430       -0.88840
C          1.06980       -6.63670       -0.72390
C          1.91680       -6.44820       -1.81030
C          3.08220       -5.71940       -1.67340
C          3.42400       -5.18970       -0.43570
S          4.86860       -4.22650       -0.12910
C          5.74060       -4.21570       -1.72080
C          2.59190       -5.41130        0.66020
C          1.41680       -6.11400        0.51880
C          0.02990       -8.65040       -1.49930
C          1.09620       -9.47560       -1.13660
C          1.20540      -10.74120       -1.66730
C          0.26110      -11.21260       -2.57840
S          0.44290      -12.88110       -3.10430
C         -0.96520      -13.15790       -4.21280
C         -0.75620      -10.36270       -3.00180
C         -0.86860       -9.09660       -2.46520
C         -1.58650       -5.51130       -0.38490
S         -0.61600       -4.07490       -0.36600
C         -2.70920       -9.01130       -0.15590
C         -1.77330       -9.93500        0.26650
C         -0.61630       -9.61820        1.11010
O         -0.27490       -8.52150        1.52640
C         -0.00610      -10.91590        1.46450
C          1.13020      -11.13050        2.23860
C          1.48030      -12.45460        2.36450
C          0.74380      -13.49170        1.78070
C         -0.38600      -13.29460        1.02160
C         -0.74780      -11.95510        0.87010
C         -1.83800      -11.35890        0.10220
C         -2.67210      -12.02730       -0.76160
C         -2.67820      -13.42050       -0.95670
N         -2.73940      -14.54570       -1.18260
C         -3.57000      -11.38950       -1.63900
N         -4.27740      -10.94490       -2.42840
C          1.67280      -14.55770        2.30660
C          2.66300      -15.16490        1.29070
C          3.73360      -15.78880        2.15610
C          4.43700      -14.80410        2.70040
C          3.85260      -13.49790        2.21250
C          3.41000      -13.91660        0.80450
C          2.50050      -13.39950        2.95090
H          2.70120       12.54420       -1.03790
H          5.58520       15.06000        2.67390
H          5.52670       10.18350        4.06060
H          6.03870       12.20850        6.77470
H          8.36200       11.09210        6.10860
H          8.72830       12.53390        8.27510
H          8.79290       15.09290        7.56420
H          8.46660       15.22740        4.96100
H          9.87010       12.98510        5.03370
H          8.46270       12.72590        3.97810
H          6.10410       14.72220        6.08390
H          2.18430        9.84610        1.56470
H          2.62670        5.50450        1.53700
H          4.09180        5.34470        3.45970
H          6.51200        6.26340        6.07210
H          5.92120        6.02680        4.42090
H          5.06540        4.45600        6.92580
H          6.08880        3.82910        5.62720
H          4.38880        4.17900        5.32160
H          0.73530        8.95160        3.23150
H         -1.31710        9.50020       -3.26110
H         -1.33970        9.67020       -5.71510
H          2.05070        7.66050       -7.44330
H          1.30470        6.41100       -8.47160
H          1.89230        9.29410       -9.31950
H          2.81300        7.87010       -9.82320
H          1.13280        8.06820      -10.33690
H          0.76360        5.77060       -3.57610
H         -1.38830        5.12430       -2.37110
H         -4.95660        4.52900       -2.50160
H         -4.77310        5.91330       -4.53780
H         -0.95770        5.00260       -7.57310
H         -2.39360        3.98030       -7.88130
H         -2.13960        5.48380       -8.80430
H         -1.16870        3.87050       -5.59200
H         -1.34760        2.50620       -3.56900
H         -4.39020        2.15820        0.59720
H         -6.61560        1.28680        1.07450
H         -8.03190       -0.65700        1.25610
H         -8.83570        0.90890        1.60620
H         -9.80140       -0.50700        1.14680
H         -7.35990        0.89520       -3.12180
H         -5.12700        1.79200       -3.59890
H          1.69790       -0.47370       -0.42780
H          3.55390        1.06900       -0.02980
H          3.79690        3.42800        0.42040
H          5.35580        2.56110        0.24640
H          5.28830        4.11060        1.11020
H          2.72910        0.97240        4.16530
H          0.87280       -0.60140        3.76050
H         -2.38290       -1.97460        2.50990
H         -2.82700       -3.91780        3.93480
H          0.05550       -7.49180        3.48900
H          0.96780       -6.90910        4.92730
H         -0.28930       -8.14920        5.10250
H          1.27170       -5.08660        3.66110
H          1.71970       -3.13330        2.24440
H         -4.60330       -4.91460        2.02230
H         -5.31600       -4.36610        4.28610
H         -6.53180       -4.02530        6.23980
H         -6.09470       -2.87450        7.52020
H         -4.83090       -3.48480        6.42900
H         -5.98690       -0.31390        3.09860
H         -5.30700       -0.88950        0.78440
H         -3.67240       -3.12220       -2.58690
H         -5.05750       -2.46660       -4.50410
H         -9.99380       -1.13280       -5.05560
H         -9.44810       -0.73910       -3.40850
H         -9.83860       -2.43190       -3.85300
H         -8.47050       -2.20470       -1.94550
H         -7.09690       -2.82230       -0.04420
H          1.65520       -6.86950       -2.77000
H          3.71070       -5.57460       -2.53690
H          5.13530       -3.71990       -2.47410
H          5.98750       -5.23130       -2.01540
H          6.65140       -3.65010       -1.55010
H          2.89190       -5.03060        1.62320
H          0.77160       -6.29580        1.36270
H          1.82160       -9.12300       -0.41910
H          2.01390      -11.39030       -1.36820
H         -1.89920      -12.99260       -3.68400
H         -0.89670      -14.19960       -4.51030
H         -0.88380      -12.51690       -5.08580
H         -1.47590      -10.67750       -3.73940
H         -1.67170       -8.45460       -2.79410
H         -3.71940       -9.35440       -0.34680
H          1.67050      -10.30510        2.67660
H         -0.94750      -14.10130        0.58070
H          1.22280      -15.30160        2.96120
H          2.20830      -15.80060        0.53620
H          3.83110      -16.84560        2.32230
H          5.23860      -14.87390        3.41230
H          4.48430      -12.61750        2.29880
H          4.25390      -14.16500        0.16300
H          2.77240      -13.19070        0.30350
H          2.60790      -13.37520        4.03400
