206

C          3.63480        9.63020       -5.97740
C          4.92840       10.06970       -5.96870
C          6.02900        9.59740       -5.09480
O          6.07590        8.60100       -4.40220
C          7.07770       10.63110       -5.18180
C          8.27480       10.66060       -4.46970
C          9.06320       11.75120       -4.74560
C          8.68980       12.74160       -5.66430
C          7.51350       12.72360       -6.37480
C          6.69560       11.62210       -6.10690
C          5.39240       11.26240       -6.65560
C          4.76180       11.89180       -7.69660
C          3.55740       11.46320       -8.29540
N          2.60040       11.17190       -8.85970
C          5.25690       13.03710       -8.35380
N          5.59480       13.97140       -8.92920
C          9.94720       13.54160       -5.43370
C          9.84440       14.80970       -4.55090
C          8.68070       14.58900       -3.61670
C          9.03240       13.65220       -2.74620
C         10.44070       13.22290       -3.07570
C         11.01580       14.55250       -3.58950
C         10.36270       12.43900       -4.40940
C          3.09230        8.46960       -5.38240
C          3.68480        7.28560       -5.01750
C          2.80240        6.36250       -4.42610
C          3.10060        5.07400       -3.92040
C          4.44600        4.54930       -3.89510
C          5.61530        5.23030       -3.68910
C          6.79180        4.45570       -3.75250
C          6.61930        3.13060       -4.02060
C          7.69770        2.10320       -4.16930
C          7.14660        0.71170       -4.44730
Se         4.79770        2.72320       -4.18910
C          2.02270        4.35130       -3.42370
C          0.69530        4.83680       -3.39050
C          0.38990        6.11490       -3.90950
C         -0.96860        6.61220       -3.93900
C         -2.09510        5.90360       -4.25070
C         -3.30790        6.62050       -4.17110
C         -3.20040        7.92080       -3.78270
C         -4.32310        8.88520       -3.57140
C         -3.90110       10.32910       -3.81260
Se        -1.40590        8.38860       -3.49120
C          1.46730        6.84850       -4.39080
S          1.35920        8.44450       -5.07260
C         -0.17600        3.92950       -2.74480
C          0.43600        2.78480       -2.30940
S          2.14770        2.78100       -2.67710
C         -0.12510        1.66760       -1.60660
C         -1.46750        1.52440       -1.26270
F         -2.36600        2.47210       -1.59000
C         -1.95460        0.39770       -0.60610
F         -3.27930        0.33390       -0.36030
C         -1.14130       -0.67080       -0.23070
C          0.26110       -0.48840       -0.43340
N          1.13370       -1.31130        0.16190
C          2.41980       -1.13730       -0.02170
C          3.35770       -1.97950        0.78860
C          2.65070       -2.70510        1.92610
C          2.88300       -0.17750       -0.96560
N          2.03410        0.67390       -1.48270
C          0.73260        0.61700       -1.17500
C          4.31050       -0.03450       -1.38790
C          4.98740        1.10100       -0.61770
C         -1.63180       -1.85360        0.35330
C         -1.24880       -3.17840        0.44310
N         -0.50980       -4.03950       -0.30820
C         -1.00920       -5.36870       -0.40460
C         -2.38640       -5.55790       -0.54330
C         -2.92910       -6.82030       -0.49760
C         -2.10750       -7.93640       -0.33660
S         -2.92350       -9.48980       -0.20690
C         -1.58110      -10.68770        0.00940
C         -0.73110       -7.75870       -0.28660
C         -0.18930       -6.48640       -0.31950
C          0.36720       -3.56740       -1.32040
C         -0.09230       -2.68280       -2.28930
C          0.77520       -2.13850       -3.21670
C          2.11620       -2.49900       -3.20580
S          3.32010       -1.81750       -4.29730
C          2.53870       -0.29050       -4.88820
C          2.55590       -3.45860       -2.29660
C          1.69420       -3.98200       -1.35720
C         -2.15880       -3.57780        1.51180
S         -0.73590       -5.71290        2.61960
C         -2.08540       -6.34850        3.63610
C         -2.99750       -5.35300        3.24820
N         -4.34010       -5.26920        3.34350
C         -4.96310       -4.01090        3.24410
C         -6.11040       -3.85500        2.46670
C         -6.69800       -2.61600        2.35570
C         -6.15500       -1.51640        3.02020
S         -6.93870        0.04150        2.77990
C         -5.56280        1.20540        3.01070
C         -5.04430       -1.68510        3.83810
C         -4.44360       -2.92480        3.94060
C         -5.14540       -6.40000        3.54310
C         -6.29190       -6.30480        4.33800
C         -7.05450       -7.41880        4.58950
C         -6.70150       -8.66030        4.05390
S         -7.71680      -10.01850        4.50990
C         -6.94180      -11.45090        3.71120
C         -5.59610       -8.74750        3.21720
C         -4.82310       -7.62850        2.97060
C         -2.11830       -4.60440        2.37180
S         -3.05000       -2.03470        1.48860
C         -2.09540       -7.51650        4.35520
C         -3.10810       -7.85840        5.24520
C         -3.89610       -6.86970        5.99020
O         -3.77060       -5.65650        5.96960
C         -4.81010       -7.65410        6.84770
C         -5.78610       -7.16280        7.70710
C         -6.53090       -8.13910        8.32630
C         -6.30890       -9.50500        8.11890
C         -5.33710      -10.00380        7.28280
C         -4.57980       -9.02740        6.63500
C         -3.50730       -9.16790        5.64850
C         -3.07420      -10.35150        5.08810
C         -3.57540      -11.62180        5.41810
N         -3.96180      -12.68750        5.61310
C         -2.11930      -10.43420        4.06090
N         -1.36420      -10.58010        3.20540
C         -7.41990       -9.91070        9.05450
C         -7.03260      -10.40990       10.46830
C         -5.70810       -9.76970       10.80190
C         -5.92130       -8.47520       10.99630
C         -7.39430       -8.21670       10.79760
C         -7.97440       -9.54160       11.31790
C         -7.67030       -8.38670        9.28350
H          2.89740       10.27030       -6.44850
H          8.52340        9.87600       -3.77200
H          7.23730       13.49520       -7.07400
H         10.58130       13.69290       -6.30500
H          9.84550       15.74530       -5.10350
H          7.73050       15.08010       -3.71730
H          8.43450       13.20420       -1.97430
H         10.98530       12.71460       -2.28410
H         11.97520       14.44440       -4.09360
H         11.09340       15.30750       -2.80860
H         11.26970       11.87210       -4.61070
H          4.71700        7.07560       -5.21550
H          5.64480        6.27940       -3.44940
H          7.76550        4.89230       -3.60120
H          8.29990        2.08640       -3.25540
H          8.36160        2.40470       -4.98580
H          7.95260       -0.00950       -4.55810
H          6.55850        0.71730       -5.36580
H          6.50130        0.39070       -3.62970
H         -2.05690        4.88050       -4.58610
H         -4.25550        6.16430       -4.40620
H         -5.14460        8.61630       -4.24050
H         -4.69260        8.78440       -2.54510
H         -3.10400       10.60510       -3.11960
H         -3.52890       10.44980       -4.82840
H         -4.73890       11.00590       -3.66310
H         -1.21380        4.14640       -2.57890
H          3.83400       -2.70610        0.12410
H          4.14770       -1.33910        1.18850
H          2.20200       -1.98780        2.60800
H          1.85730       -3.33820        1.54100
H          3.35880       -3.31770        2.47850
H          4.32530        0.22270       -2.44970
H          4.84710       -0.97110       -1.23900
H          4.47250        2.03660       -0.82160
H          4.96650        0.91760        0.45430
H          6.02280        1.19900       -0.93420
H         -3.03690       -4.70510       -0.67380
H         -3.99630       -6.95970       -0.58240
H         -0.90130      -10.63740       -0.83590
H         -2.06370      -11.66020        0.03610
H         -1.07890      -10.50600        0.95540
H         -0.06770       -8.60150       -0.18460
H          0.87820       -6.37530       -0.23240
H         -1.13530       -2.40580       -2.31330
H          0.39620       -1.43430       -3.93990
H          2.16250        0.27290       -4.03890
H          1.75240       -0.51800       -5.60210
H          3.32890        0.27240       -5.37880
H          3.59070       -3.76500       -2.32290
H          2.06540       -4.67800       -0.62310
H         -6.51770       -4.70340        1.93700
H         -7.57140       -2.47680        1.73810
H         -4.69850        0.83690        2.46700
H         -5.89640        2.14710        2.58650
H         -5.34360        1.33590        4.06630
H         -4.63620       -0.85560        4.39210
H         -3.58870       -3.07230        4.58240
H         -6.55160       -5.35680        4.78300
H         -7.92400       -7.35330        5.22480
H         -7.55920      -12.30210        3.98140
H         -6.94330      -11.32280        2.63280
H         -5.93670      -11.59610        4.09540
H         -5.31340       -9.67990        2.75550
H         -3.97590       -7.71280        2.30660
H         -1.26730       -8.19410        4.19750
H         -5.92680       -6.10080        7.83640
H         -5.17500      -11.05930        7.13790
H         -8.22180      -10.49690        8.61040
H         -7.09100      -11.48720       10.59870
H         -4.77190      -10.29670       10.80500
H         -5.19900       -7.70470       11.19370
H         -7.78270       -7.29710       11.22780
H         -7.82250       -9.67690       12.38780
H         -9.02720       -9.67880       11.07520
H         -8.63660       -7.98120        8.98920
