190

C          7.27110       -0.24970       -0.42730
C          8.33500        0.22410        0.24870
C          8.30930        1.27760        1.30830
O          7.43280        2.08390        1.51490
C          9.61890        1.18270        1.97760
C         10.02230        1.85680        3.12800
C         11.29680        1.55050        3.53900
C         12.11960        0.64500        2.85250
C         11.74260       -0.01510        1.70850
C         10.44560        0.27910        1.27440
C          9.71760       -0.21960        0.11530
C         10.24530       -0.90650       -0.94230
C         11.59730       -1.30220       -1.03760
N         12.68220       -1.64870       -1.17860
C          9.53450       -1.24640       -2.11240
N          9.03830       -1.53310       -3.10760
C         13.24960        0.80250        3.83840
C         13.45910       -0.32650        4.87830
C         12.11530       -0.98390        5.07510
C         11.33640       -0.12790        5.72300
C         12.13990        1.12390        5.97700
C         13.53890        0.51490        6.16220
C         12.33380        1.81050        4.60190
C          5.88870        0.09770       -0.19220
C          5.30370        0.19260        1.05540
F          6.00720       -0.08630        2.16050
C          3.93740        0.44880        1.20700
F          3.45170        0.44630        2.45970
C          3.06930        0.57360        0.13170
C          3.64760        0.51750       -1.16710
N          2.87450        0.59550       -2.25840
C          3.42680        0.53020       -3.45270
C          2.52370        0.39350       -4.56700
S          0.91460        1.02740       -4.44110
C          0.46660        0.38280       -5.97600
C         -0.89670        0.56310       -6.55190
C         -1.61100       -0.77920       -6.72420
C          1.52340       -0.30220       -6.51220
C          2.68870       -0.31150       -5.73160
F          1.46250       -0.91590       -7.70690
C          4.85370        0.50890       -3.59270
N          5.60810        0.33660       -2.52900
C          5.04300        0.29210       -1.31670
C          5.57430        0.73320       -4.82450
C          6.86640        0.35080       -5.07800
C          7.31350        0.82640       -6.32170
F          8.53800        0.55810       -6.80060
C          6.41190        1.58300       -7.01840
C          6.60180        2.26800       -8.32640
C          6.86030        3.76410       -8.13280
S          4.94380        1.71400       -6.11860
C          1.64130        0.66240        0.36130
C          0.61510       -0.12150       -0.15190
N          0.71530       -1.14670       -1.07070
C          1.89850       -1.87020       -1.24300
C          2.32090       -2.23160       -2.51940
C          3.57130       -2.78100       -2.71870
C          4.42070       -2.98750       -1.63950
S          6.09300       -3.52380       -1.79620
C          6.43080       -3.32480       -3.56780
C          3.94930       -2.75120       -0.34850
C          2.69970       -2.20880       -0.15070
C         -0.39450       -1.40850       -1.88920
C         -1.15530       -0.35980       -2.39970
C         -2.30090       -0.60830       -3.12860
C         -2.70540       -1.91560       -3.35770
S         -4.18320       -2.34020       -4.22580
C         -5.12390       -0.78630       -4.21620
C         -1.91570       -2.96880       -2.89910
C         -0.77230       -2.72060       -2.17350
C         -0.61860        0.20920        0.46850
S         -2.23780       -0.37230        0.29060
C         -2.79320        0.69870        1.57230
C         -1.77430        1.55750        2.02020
N         -1.88720        2.65010        2.84450
C         -0.76030        2.96640        3.63340
C         -0.16970        1.97760        4.41970
C          0.95540        2.26430        5.15750
C          1.51460        3.54210        5.12420
S          2.95870        3.78920        6.09790
C          3.55930        5.42340        5.58110
C          0.91380        4.53360        4.35730
C         -0.21570        4.24550        3.61690
C         -3.01970        3.45220        2.91420
C         -3.27490        4.20650        4.06530
C         -4.42390        4.95260        4.17000
C         -5.35370        4.97640        3.12970
S         -6.81810        5.91640        3.39430
C         -7.93670        5.34260        2.08460
C         -5.07430        4.28350        1.95770
C         -3.91650        3.54130        1.84900
C         -0.53920        1.21720        1.41260
S          1.08280        1.78640        1.58770
C         -4.12810        0.51760        2.00900
C         -5.05170       -0.17440        1.18720
C         -6.41960       -0.44640        1.56490
N         -7.07810       -1.07910        0.59090
S         -6.08440       -1.33550       -0.64710
N         -4.77620       -0.63050       -0.03360
C         -6.95020       -0.04160        2.80840
C         -6.03430        0.65630        3.62840
N         -6.29730        1.07420        4.86590
S         -4.95590        1.66340        5.52100
N         -3.97090        1.44510        4.27220
C         -4.65260        0.89560        3.26480
C         -8.27350       -0.27010        3.25870
C         -9.17260       -1.22240        2.87680
C        -10.61780       -1.02600        3.16360
O        -11.11010       -0.17750        3.87480
C        -11.32160       -2.04290        2.35550
C        -12.69740       -2.20310        2.21010
C        -13.05680       -3.23190        1.37240
C        -12.11770       -4.03420        0.71130
C        -10.75740       -3.89090        0.84840
C        -10.37210       -2.86250        1.71080
C         -9.03660       -2.45310        2.14070
C         -7.90780       -3.23000        2.05690
C         -6.70450       -2.94510        2.72940
N         -5.70640       -2.78260        3.27500
C         -7.82850       -4.44680        1.35340
N         -7.68720       -5.43030        0.77670
C        -13.18170       -4.86230        0.03520
C        -13.46030       -6.27550        0.60360
C        -13.06980       -6.23480        2.06030
C        -13.95730       -5.48140        2.69580
C        -14.96370       -4.99920        1.68040
C        -14.99050       -6.20800        0.73130
C        -14.22850       -3.97510        0.78000
H          7.41380       -0.95690       -1.23340
H          9.35780        2.54360        3.62830
H         12.38240       -0.71050        1.19050
H         14.18870        1.17220        3.43180
H         14.29170       -0.99020        4.66150
H         11.85920       -1.95150        4.68530
H         10.29950       -0.23720        5.98120
H         11.77130        1.78010        6.76110
H         14.33940        1.25340        6.14840
H         13.61650       -0.09520        7.06070
H         12.67490        2.83960        4.69600
H         -1.47310        1.21370       -5.89290
H         -0.81250        1.05010       -7.52780
H         -1.06550       -1.41310       -7.41760
H         -1.68760       -1.29520       -5.77050
H         -2.61140       -0.62220       -7.11890
H          3.58250       -0.83600       -6.01380
H          7.46560       -0.24390       -4.41210
H          5.71110        2.13160       -8.94380
H          7.45310        1.81120       -8.83550
H          7.75520        3.91890       -7.53490
H          6.99900        4.24610       -9.09670
H          6.01860        4.23070       -7.62610
H          1.67880       -2.04080       -3.36610
H          3.87910       -3.02430       -3.72290
H          5.93960       -4.11000       -4.13530
H          6.10640       -2.33830       -3.88470
H          7.50830       -3.40450       -3.67310
H          4.58370       -2.98560        0.49260
H          2.34300       -2.02460        0.85130
H         -0.84820        0.65810       -2.21630
H         -2.86910        0.22580       -3.50580
H         -6.13160       -1.04860       -4.52260
H         -5.13410       -0.37950       -3.20920
H         -4.69770       -0.08180       -4.92480
H         -2.22570       -3.98270       -3.09930
H         -0.17850       -3.54030       -1.79790
H         -0.60590        0.99070        4.44250
H          1.42130        1.50380        5.76410
H          2.86920        6.19900        5.90040
H          3.70250        5.43570        4.50480
H          4.51370        5.55460        6.08160
H          1.31910        5.53160        4.32090
H         -0.67490        5.01370        3.01230
H         -2.58730        4.15980        4.89490
H         -4.63120        5.51190        5.06910
H         -7.98260        4.25770        2.09540
H         -8.91030        5.75600        2.32850
H         -7.61190        5.71670        1.11780
H         -5.74970        4.31950        1.11780
H         -3.70940        3.02220        0.92570
H         -8.63610        0.44290        3.99290
H        -13.38900       -1.55890        2.73040
H        -10.04310       -4.51010        0.33110
H        -13.18180       -4.84450       -1.05310
H        -13.04130       -7.08890        0.01720
H        -12.18300       -6.69480        2.45500
H        -13.96020       -5.18620        3.72870
H        -15.91500       -4.65170        2.07520
H        -15.41440       -7.09790        1.19440
H        -15.49650       -6.00770       -0.21240
H        -14.91690       -3.38400        0.17860
