
  xtb     02142200303D
 energy: -408.642074931516 gnorm: 0.000677965015 xtb: 6.4.1 (unknown)
244269  0     0  0            999 V2000
   -0.3950    2.6053   -8.8418 C   0  0  0  0  0  0  0  0  0  0  0  0
   -1.0967    2.1402   -9.9031 C   0  0  0  0  0  0  0  0  0  0  0  0
   -2.2850    1.2423   -9.8178 C   0  0  0  0  0  0  0  0  0  0  0  0
   -2.8487    0.8643   -8.8158 O   0  0  0  0  0  0  0  0  0  0  0  0
   -2.7155    1.0214  -11.2091 C   0  0  0  0  0  0  0  0  0  0  0  0
   -3.7575    0.2008  -11.6368 C   0  0  0  0  0  0  0  0  0  0  0  0
   -3.9331    0.1832  -12.9991 C   0  0  0  0  0  0  0  0  0  0  0  0
   -3.1330    0.9312  -13.8750 C   0  0  0  0  0  0  0  0  0  0  0  0
   -2.1072    1.7486  -13.4672 C   0  0  0  0  0  0  0  0  0  0  0  0
   -1.9110    1.7836  -12.0815 C   0  0  0  0  0  0  0  0  0  0  0  0
   -0.9324    2.5267  -11.2955 C   0  0  0  0  0  0  0  0  0  0  0  0
   -0.0190    3.4187  -11.7938 C   0  0  0  0  0  0  0  0  0  0  0  0
    0.0916    3.7732  -13.1556 C   0  0  0  0  0  0  0  0  0  0  0  0
    0.2400    4.1174  -14.2408 N   0  0  0  0  0  0  0  0  0  0  0  0
    0.9375    4.1334  -11.0435 C   0  0  0  0  0  0  0  0  0  0  0  0
    1.7537    4.7585  -10.5301 N   0  0  0  0  0  0  0  0  0  0  0  0
   -3.8690    0.4386  -15.0957 C   0  0  0  0  0  0  0  0  0  0  0  0
   -4.8798    1.4162  -15.7319 C   0  0  0  0  0  0  0  0  0  0  0  0
   -5.7673    0.5240  -16.5695 C   0  0  0  0  0  0  0  0  0  0  0  0
   -6.5244   -0.1842  -15.7412 C   0  0  0  0  0  0  0  0  0  0  0  0
   -6.1616    0.2176  -14.3298 C   0  0  0  0  0  0  0  0  0  0  0  0
   -5.8236    1.6969  -14.5553 C   0  0  0  0  0  0  0  0  0  0  0  0
   -4.7602   -0.3951  -14.1199 C   0  0  0  0  0  0  0  0  0  0  0  0
   -0.5019    2.1345   -7.4870 C   0  0  0  0  0  0  0  0  0  0  0  0
   -0.6516    0.8062   -7.1171 C   0  0  0  0  0  0  0  0  0  0  0  0
   -0.5791   -0.1654   -8.0362 F   0  0  0  0  0  0  0  0  0  0  0  0
   -0.7705    0.4264   -5.7780 C   0  0  0  0  0  0  0  0  0  0  0  0
   -0.8861   -0.8843   -5.5010 F   0  0  0  0  0  0  0  0  0  0  0  0
   -0.7619    1.3421   -4.7381 C   0  0  0  0  0  0  0  0  0  0  0  0
   -0.5266    2.7007   -5.0745 C   0  0  0  0  0  0  0  0  0  0  0  0
   -0.2364    3.5694   -4.1010 N   0  0  0  0  0  0  0  0  0  0  0  0
    0.1550    4.7932   -4.4062 C   0  0  0  0  0  0  0  0  0  0  0  0
    0.7675    5.5120   -3.3185 C   0  0  0  0  0  0  0  0  0  0  0  0
    1.7672    6.9197   -3.5201 S   0  0  0  0  0  0  0  0  0  0  0  0
    2.2497    6.8984   -1.8640 C   0  0  0  0  0  0  0  0  0  0  0  0
    3.2101    7.8910   -1.3101 C   0  0  0  0  0  0  0  0  0  0  0  0
    4.6296    7.6296   -1.8192 C   0  0  0  0  0  0  0  0  0  0  0  0
    1.6552    5.8460   -1.2237 C   0  0  0  0  0  0  0  0  0  0  0  0
    0.8222    5.0536   -2.0239 C   0  0  0  0  0  0  0  0  0  0  0  0
    1.8725    5.5851    0.0775 F   0  0  0  0  0  0  0  0  0  0  0  0
    0.0900    5.2341   -5.7699 C   0  0  0  0  0  0  0  0  0  0  0  0
   -0.1393    4.3629   -6.7312 N   0  0  0  0  0  0  0  0  0  0  0  0
   -0.3804    3.0833   -6.4331 C   0  0  0  0  0  0  0  0  0  0  0  0
    0.2953    6.5741   -6.2536 C   0  0  0  0  0  0  0  0  0  0  0  0
   -0.0183    7.8060   -5.7426 C   0  0  0  0  0  0  0  0  0  0  0  0
    0.2995    8.8275   -6.6505 C   0  0  0  0  0  0  0  0  0  0  0  0
    0.0907   10.1273   -6.3673 F   0  0  0  0  0  0  0  0  0  0  0  0
    0.8398    8.4119   -7.8387 C   0  0  0  0  0  0  0  0  0  0  0  0
    1.2751    9.2507   -8.9907 C   0  0  0  0  0  0  0  0  0  0  0  0
    2.4626    8.6394   -9.7268 C   0  0  0  0  0  0  0  0  0  0  0  0
    0.9395    6.6935   -7.8623 S   0  0  0  0  0  0  0  0  0  0  0  0
   -0.8430    0.9077   -3.3628 C   0  0  0  0  0  0  0  0  0  0  0  0
   -0.0452   -0.0625   -2.7799 C   0  0  0  0  0  0  0  0  0  0  0  0
    1.1025   -0.5361   -3.3937 N   0  0  0  0  0  0  0  0  0  0  0  0
    1.8642    0.4417   -4.0710 C   0  0  0  0  0  0  0  0  0  0  0  0
    2.2515    0.2864   -5.3967 C   0  0  0  0  0  0  0  0  0  0  0  0
    2.8174    1.3448   -6.0859 C   0  0  0  0  0  0  0  0  0  0  0  0
    3.0193    2.5640   -5.4510 C   0  0  0  0  0  0  0  0  0  0  0  0
    3.6013    4.0247   -6.2509 S   0  0  0  0  0  0  0  0  0  0  0  0
    3.4819    3.6242   -8.0140 C   0  0  0  0  0  0  0  0  0  0  0  0
    2.7343    2.6816   -4.0918 C   0  0  0  0  0  0  0  0  0  0  0  0
    2.1541    1.6376   -3.4122 C   0  0  0  0  0  0  0  0  0  0  0  0
    1.5138   -1.8542   -3.2505 C   0  0  0  0  0  0  0  0  0  0  0  0
    0.5798   -2.8550   -2.9911 C   0  0  0  0  0  0  0  0  0  0  0  0
    0.9767   -4.1666   -2.8323 C   0  0  0  0  0  0  0  0  0  0  0  0
    2.3170   -4.5054   -2.9470 C   0  0  0  0  0  0  0  0  0  0  0  0
    2.9328   -6.1519   -2.7979 S   0  0  0  0  0  0  0  0  0  0  0  0
    1.4591   -7.1303   -2.3945 C   0  0  0  0  0  0  0  0  0  0  0  0
    3.2541   -3.5097   -3.2171 C   0  0  0  0  0  0  0  0  0  0  0  0
    2.8620   -2.1988   -3.3627 C   0  0  0  0  0  0  0  0  0  0  0  0
   -0.4520   -0.3209   -1.4503 C   0  0  0  0  0  0  0  0  0  0  0  0
    0.0927   -1.3730   -0.1976 S   0  0  0  0  0  0  0  0  0  0  0  0
   -1.1096   -0.7162    0.9047 C   0  0  0  0  0  0  0  0  0  0  0  0
   -1.8934    0.2652    0.3131 C   0  0  0  0  0  0  0  0  0  0  0  0
   -2.8542    1.0595    0.9429 N   0  0  0  0  0  0  0  0  0  0  0  0
   -4.0838    0.5635    1.3634 C   0  0  0  0  0  0  0  0  0  0  0  0
   -4.8902    1.3457    2.1940 C   0  0  0  0  0  0  0  0  0  0  0  0
   -6.1429    0.9102    2.5564 C   0  0  0  0  0  0  0  0  0  0  0  0
   -6.6162   -0.3215    2.1121 C   0  0  0  0  0  0  0  0  0  0  0  0
   -8.2767   -0.7475    2.5458 S   0  0  0  0  0  0  0  0  0  0  0  0
   -8.7372   -1.9389    1.2526 C   0  0  0  0  0  0  0  0  0  0  0  0
   -5.7908   -1.1370    1.3536 C   0  0  0  0  0  0  0  0  0  0  0  0
   -4.5375   -0.6952    0.9760 C   0  0  0  0  0  0  0  0  0  0  0  0
   -2.6877    2.4373    0.6782 C   0  0  0  0  0  0  0  0  0  0  0  0
   -3.6627    3.1889    0.0299 C   0  0  0  0  0  0  0  0  0  0  0  0
   -3.4080    4.4971   -0.3324 C   0  0  0  0  0  0  0  0  0  0  0  0
   -2.1760    5.0715   -0.0490 C   0  0  0  0  0  0  0  0  0  0  0  0
   -1.7428    6.7146   -0.5429 S   0  0  0  0  0  0  0  0  0  0  0  0
   -2.7208    6.9354   -2.0590 C   0  0  0  0  0  0  0  0  0  0  0  0
   -1.2220    4.3430    0.6554 C   0  0  0  0  0  0  0  0  0  0  0  0
   -1.4727    3.0349    1.0064 C   0  0  0  0  0  0  0  0  0  0  0  0
   -1.4945    0.4890   -1.0255 C   0  0  0  0  0  0  0  0  0  0  0  0
   -1.9999    1.6010   -2.2549 S   0  0  0  0  0  0  0  0  0  0  0  0
   -1.0525   -1.1252    2.2651 C   0  0  0  0  0  0  0  0  0  0  0  0
    0.0944   -1.5988    2.8885 C   0  0  0  0  0  0  0  0  0  0  0  0
    1.3139   -1.8015    2.2141 N   0  0  0  0  0  0  0  0  0  0  0  0
    2.2620   -0.7695    2.3494 C   0  0  0  0  0  0  0  0  0  0  0  0
    3.5953   -1.0313    2.6546 C   0  0  0  0  0  0  0  0  0  0  0  0
    4.4985    0.0063    2.7629 C   0  0  0  0  0  0  0  0  0  0  0  0
    4.1077    1.3292    2.5834 C   0  0  0  0  0  0  0  0  0  0  0  0
    5.1015    2.4432    2.7119 C   0  0  0  0  0  0  0  0  0  0  0  0
    2.7722    1.5853    2.3069 C   0  0  0  0  0  0  0  0  0  0  0  0
    1.8595    0.5544    2.1951 C   0  0  0  0  0  0  0  0  0  0  0  0
    1.6918   -3.0990    1.8489 C   0  0  0  0  0  0  0  0  0  0  0  0
    2.6700   -3.2841    0.8714 C   0  0  0  0  0  0  0  0  0  0  0  0
    3.0805   -4.5544    0.5252 C   0  0  0  0  0  0  0  0  0  0  0  0
    2.5159   -5.6787    1.1170 C   0  0  0  0  0  0  0  0  0  0  0  0
    3.0234   -7.0538    0.8049 C   0  0  0  0  0  0  0  0  0  0  0  0
    1.4911   -5.4886    2.0341 C   0  0  0  0  0  0  0  0  0  0  0  0
    1.0784   -4.2212    2.3981 C   0  0  0  0  0  0  0  0  0  0  0  0
   -0.0977   -1.7749    4.2696 C   0  0  0  0  0  0  0  0  0  0  0  0
    0.9427   -2.2253    5.5727 S   0  0  0  0  0  0  0  0  0  0  0  0
   -0.4141   -2.1101    6.6984 C   0  0  0  0  0  0  0  0  0  0  0  0
   -1.5975   -1.6554    6.0613 C   0  0  0  0  0  0  0  0  0  0  0  0
   -2.8115   -1.4465    6.6687 N   0  0  0  0  0  0  0  0  0  0  0  0
   -2.9192   -0.8221    7.9207 C   0  0  0  0  0  0  0  0  0  0  0  0
   -3.9274   -1.1814    8.8131 C   0  0  0  0  0  0  0  0  0  0  0  0
   -4.0090   -0.5643   10.0447 C   0  0  0  0  0  0  0  0  0  0  0  0
   -3.0957    0.4123   10.4255 C   0  0  0  0  0  0  0  0  0  0  0  0
   -3.1852    1.0444   11.7804 C   0  0  0  0  0  0  0  0  0  0  0  0
   -2.1036    0.7745    9.5223 C   0  0  0  0  0  0  0  0  0  0  0  0
   -2.0158    0.1757    8.2817 C   0  0  0  0  0  0  0  0  0  0  0  0
   -3.9608   -1.9396    6.0208 C   0  0  0  0  0  0  0  0  0  0  0  0
   -5.1485   -1.2163    6.0034 C   0  0  0  0  0  0  0  0  0  0  0  0
   -6.2844   -1.7675    5.4430 C   0  0  0  0  0  0  0  0  0  0  0  0
   -6.2623   -3.0383    4.8809 C   0  0  0  0  0  0  0  0  0  0  0  0
   -7.5117   -3.6821    4.3661 C   0  0  0  0  0  0  0  0  0  0  0  0
   -5.0566   -3.7293    4.8531 C   0  0  0  0  0  0  0  0  0  0  0  0
   -3.9182   -3.1943    5.4179 C   0  0  0  0  0  0  0  0  0  0  0  0
   -1.3953   -1.4895    4.6847 C   0  0  0  0  0  0  0  0  0  0  0  0
   -2.3942   -0.9417    3.3736 S   0  0  0  0  0  0  0  0  0  0  0  0
   -0.3984   -2.5571    8.0181 C   0  0  0  0  0  0  0  0  0  0  0  0
    0.6336   -3.0646    8.7744 C   0  0  0  0  0  0  0  0  0  0  0  0
    2.0495   -3.0752    8.4039 C   0  0  0  0  0  0  0  0  0  0  0  0
    2.5463   -2.7259    7.3458 O   0  0  0  0  0  0  0  0  0  0  0  0
    2.7813   -3.5701    9.5842 C   0  0  0  0  0  0  0  0  0  0  0  0
    4.1573   -3.7457    9.7065 C   0  0  0  0  0  0  0  0  0  0  0  0
    4.5509   -4.2376   10.9283 C   0  0  0  0  0  0  0  0  0  0  0  0
    3.6430   -4.5279   11.9541 C   0  0  0  0  0  0  0  0  0  0  0  0
    2.2830   -4.3538   11.8476 C   0  0  0  0  0  0  0  0  0  0  0  0
    1.8605   -3.8588   10.6109 C   0  0  0  0  0  0  0  0  0  0  0  0
    0.5118   -3.5781   10.1170 C   0  0  0  0  0  0  0  0  0  0  0  0
   -0.6527   -3.8201   10.8067 C   0  0  0  0  0  0  0  0  0  0  0  0
   -0.7126   -4.2729   12.1392 C   0  0  0  0  0  0  0  0  0  0  0  0
   -0.8432   -4.6299   13.2236 N   0  0  0  0  0  0  0  0  0  0  0  0
   -1.9533   -3.6979   10.2819 C   0  0  0  0  0  0  0  0  0  0  0  0
   -3.0470   -3.6663    9.9273 N   0  0  0  0  0  0  0  0  0  0  0  0
    4.7280   -4.9993   12.8907 C   0  0  0  0  0  0  0  0  0  0  0  0
    4.8779   -6.5264   13.0567 C   0  0  0  0  0  0  0  0  0  0  0  0
    6.2715   -6.6942   13.6177 C   0  0  0  0  0  0  0  0  0  0  0  0
    7.1330   -6.4180   12.6471 C   0  0  0  0  0  0  0  0  0  0  0  0
    6.3361   -6.0593   11.4136 C   0  0  0  0  0  0  0  0  0  0  0  0
    5.1206   -6.9747   11.6097 C   0  0  0  0  0  0  0  0  0  0  0  0
    5.7411   -4.6746   11.7465 C   0  0  0  0  0  0  0  0  0  0  0  0
    0.2637    3.4551   -8.9665 H   0  0  0  0  0  0  0  0  0  0  0  0
   -4.3434   -0.3623  -10.9275 H   0  0  0  0  0  0  0  0  0  0  0  0
   -1.5002    2.3136  -14.1544 H   0  0  0  0  0  0  0  0  0  0  0  0
   -3.2663   -0.0896  -15.8320 H   0  0  0  0  0  0  0  0  0  0  0  0
   -4.4328    2.2711  -16.2318 H   0  0  0  0  0  0  0  0  0  0  0  0
   -5.7157    0.4618  -17.6405 H   0  0  0  0  0  0  0  0  0  0  0  0
   -7.2313   -0.9562  -15.9822 H   0  0  0  0  0  0  0  0  0  0  0  0
   -6.8832   -0.0192  -13.5526 H   0  0  0  0  0  0  0  0  0  0  0  0
   -6.6947    2.2765  -14.8563 H   0  0  0  0  0  0  0  0  0  0  0  0
   -5.3430    2.1774  -13.7051 H   0  0  0  0  0  0  0  0  0  0  0  0
   -4.7528   -1.4801  -14.2049 H   0  0  0  0  0  0  0  0  0  0  0  0
    3.1879    7.8243   -0.2204 H   0  0  0  0  0  0  0  0  0  0  0  0
    2.9024    8.8974   -1.6025 H   0  0  0  0  0  0  0  0  0  0  0  0
    5.3143    8.3673   -1.4098 H   0  0  0  0  0  0  0  0  0  0  0  0
    4.6582    7.6897   -2.9048 H   0  0  0  0  0  0  0  0  0  0  0  0
    4.9647    6.6397   -1.5182 H   0  0  0  0  0  0  0  0  0  0  0  0
    0.2885    4.1869   -1.6832 H   0  0  0  0  0  0  0  0  0  0  0  0
   -0.4747    7.9844   -4.7871 H   0  0  0  0  0  0  0  0  0  0  0  0
    0.4375    9.3607   -9.6879 H   0  0  0  0  0  0  0  0  0  0  0  0
    1.5242   10.2481   -8.6194 H   0  0  0  0  0  0  0  0  0  0  0  0
    3.3119    8.5347   -9.0559 H   0  0  0  0  0  0  0  0  0  0  0  0
    2.2040    7.6549  -10.1109 H   0  0  0  0  0  0  0  0  0  0  0  0
    2.7539    9.2728  -10.5604 H   0  0  0  0  0  0  0  0  0  0  0  0
    2.0797   -0.6549   -5.8977 H   0  0  0  0  0  0  0  0  0  0  0  0
    3.0811    1.2103   -7.1228 H   0  0  0  0  0  0  0  0  0  0  0  0
    2.5015    3.2086   -8.2217 H   0  0  0  0  0  0  0  0  0  0  0  0
    3.5947    4.5631   -8.5461 H   0  0  0  0  0  0  0  0  0  0  0  0
    4.2725    2.9357   -8.2983 H   0  0  0  0  0  0  0  0  0  0  0  0
    2.9515    3.6102   -3.5875 H   0  0  0  0  0  0  0  0  0  0  0  0
    1.8985    1.7469   -2.3693 H   0  0  0  0  0  0  0  0  0  0  0  0
   -0.4691   -2.6071   -2.9408 H   0  0  0  0  0  0  0  0  0  0  0  0
    0.2256   -4.9133   -2.6342 H   0  0  0  0  0  0  0  0  0  0  0  0
    1.0152   -6.7588   -1.4756 H   0  0  0  0  0  0  0  0  0  0  0  0
    1.8109   -8.1475   -2.2527 H   0  0  0  0  0  0  0  0  0  0  0  0
    0.7547   -7.0971   -3.2207 H   0  0  0  0  0  0  0  0  0  0  0  0
    4.2956   -3.7790   -3.3074 H   0  0  0  0  0  0  0  0  0  0  0  0
    3.5954   -1.4315   -3.5604 H   0  0  0  0  0  0  0  0  0  0  0  0
   -4.5296    2.3044    2.5343 H   0  0  0  0  0  0  0  0  0  0  0  0
   -6.7758    1.5245    3.1781 H   0  0  0  0  0  0  0  0  0  0  0  0
   -9.8142   -2.0542    1.3231 H   0  0  0  0  0  0  0  0  0  0  0  0
   -8.4677   -1.5357    0.2814 H   0  0  0  0  0  0  0  0  0  0  0  0
   -8.2545   -2.8959    1.4270 H   0  0  0  0  0  0  0  0  0  0  0  0
   -6.1188   -2.1128    1.0328 H   0  0  0  0  0  0  0  0  0  0  0  0
   -3.9131   -1.3235    0.3580 H   0  0  0  0  0  0  0  0  0  0  0  0
   -4.6132    2.7375   -0.2117 H   0  0  0  0  0  0  0  0  0  0  0  0
   -4.1713    5.0560   -0.8499 H   0  0  0  0  0  0  0  0  0  0  0  0
   -3.7649    7.1131   -1.8191 H   0  0  0  0  0  0  0  0  0  0  0  0
   -2.6056    6.0580   -2.6889 H   0  0  0  0  0  0  0  0  0  0  0  0
   -2.3100    7.8105   -2.5528 H   0  0  0  0  0  0  0  0  0  0  0  0
   -0.2843    4.8066    0.9145 H   0  0  0  0  0  0  0  0  0  0  0  0
   -0.7210    2.4612    1.5272 H   0  0  0  0  0  0  0  0  0  0  0  0
    3.9170   -2.0487    2.8161 H   0  0  0  0  0  0  0  0  0  0  0  0
    5.5292   -0.2142    3.0014 H   0  0  0  0  0  0  0  0  0  0  0  0
    5.3693    2.5887    3.7587 H   0  0  0  0  0  0  0  0  0  0  0  0
    4.6906    3.3750    2.3312 H   0  0  0  0  0  0  0  0  0  0  0  0
    6.0135    2.2103    2.1648 H   0  0  0  0  0  0  0  0  0  0  0  0
    2.4396    2.6049    2.1714 H   0  0  0  0  0  0  0  0  0  0  0  0
    0.8246    0.7762    1.9816 H   0  0  0  0  0  0  0  0  0  0  0  0
    3.1115   -2.4234    0.3918 H   0  0  0  0  0  0  0  0  0  0  0  0
    3.8538   -4.6754   -0.2192 H   0  0  0  0  0  0  0  0  0  0  0  0
    3.7576   -7.3527    1.5542 H   0  0  0  0  0  0  0  0  0  0  0  0
    3.5091   -7.0775   -0.1673 H   0  0  0  0  0  0  0  0  0  0  0  0
    2.2166   -7.7841    0.8227 H   0  0  0  0  0  0  0  0  0  0  0  0
    1.0176   -6.3472    2.4896 H   0  0  0  0  0  0  0  0  0  0  0  0
    0.2896   -4.1070    3.1262 H   0  0  0  0  0  0  0  0  0  0  0  0
   -4.6300   -1.9545    8.5469 H   0  0  0  0  0  0  0  0  0  0  0  0
   -4.7868   -0.8618   10.7319 H   0  0  0  0  0  0  0  0  0  0  0  0
   -2.4567    1.8441   11.8877 H   0  0  0  0  0  0  0  0  0  0  0  0
   -2.9995    0.3002   12.5546 H   0  0  0  0  0  0  0  0  0  0  0  0
   -4.1809    1.4527   11.9465 H   0  0  0  0  0  0  0  0  0  0  0  0
   -1.3906    1.5414    9.7891 H   0  0  0  0  0  0  0  0  0  0  0  0
   -1.2421    0.4731    7.5888 H   0  0  0  0  0  0  0  0  0  0  0  0
   -5.1793   -0.2317    6.4455 H   0  0  0  0  0  0  0  0  0  0  0  0
   -7.2052   -1.2035    5.4462 H   0  0  0  0  0  0  0  0  0  0  0  0
   -8.2750   -2.9379    4.1582 H   0  0  0  0  0  0  0  0  0  0  0  0
   -7.9042   -4.3699    5.1160 H   0  0  0  0  0  0  0  0  0  0  0  0
   -7.3088   -4.2581    3.4651 H   0  0  0  0  0  0  0  0  0  0  0  0
   -5.0156   -4.7135    4.4089 H   0  0  0  0  0  0  0  0  0  0  0  0
   -2.9969   -3.7587    5.4249 H   0  0  0  0  0  0  0  0  0  0  0  0
   -1.3634   -2.5088    8.5068 H   0  0  0  0  0  0  0  0  0  0  0  0
    4.8209   -3.5082    8.8897 H   0  0  0  0  0  0  0  0  0  0  0  0
    1.5988   -4.5777   12.6488 H   0  0  0  0  0  0  0  0  0  0  0  0
    4.8131   -4.4587   13.8315 H   0  0  0  0  0  0  0  0  0  0  0  0
    4.0694   -7.0065   13.6013 H   0  0  0  0  0  0  0  0  0  0  0  0
    6.4804   -6.9335   14.6440 H   0  0  0  0  0  0  0  0  0  0  0  0
    8.2054   -6.3803   12.7006 H   0  0  0  0  0  0  0  0  0  0  0  0
    6.8568   -6.1146   10.4613 H   0  0  0  0  0  0  0  0  0  0  0  0
    4.2931   -6.7636   10.9350 H   0  0  0  0  0  0  0  0  0  0  0  0
    5.3844   -8.0291   11.5441 H   0  0  0  0  0  0  0  0  0  0  0  0
    6.5012   -3.9159   11.9244 H   0  0  0  0  0  0  0  0  0  0  0  0
  1  2  2  0  0  0  0
  2  3  1  0  0  0  0
  3  4  2  0  0  0  0
  3  5  1  0  0  0  0
  5  6  2  0  0  0  0
  6  7  1  0  0  0  0
  7  8  2  0  0  0  0
  8  9  1  0  0  0  0
  9 10  2  0  0  0  0
 10 11  1  0  0  0  0
 11 12  2  0  0  0  0
 12 13  1  0  0  0  0
 13 14  3  0  0  0  0
 12 15  1  0  0  0  0
 15 16  3  0  0  0  0
  8 17  1  0  0  0  0
 17 18  1  0  0  0  0
 18 19  1  0  0  0  0
 19 20  2  0  0  0  0
 20 21  1  0  0  0  0
 21 22  1  0  0  0  0
 21 23  1  0  0  0  0
  1 24  1  0  0  0  0
 24 25  2  0  0  0  0
 25 26  1  0  0  0  0
 25 27  1  0  0  0  0
 27 28  1  0  0  0  0
 27 29  2  0  0  0  0
 29 30  1  0  0  0  0
 30 31  2  0  0  0  0
 31 32  1  0  0  0  0
 32 33  1  0  0  0  0
 33 34  1  0  0  0  0
 34 35  1  0  0  0  0
 35 36  1  0  0  0  0
 36 37  1  0  0  0  0
 35 38  2  0  0  0  0
 38 39  1  0  0  0  0
 38 40  1  0  0  0  0
 32 41  2  0  0  0  0
 41 42  1  0  0  0  0
 42 43  2  0  0  0  0
 41 44  1  0  0  0  0
 44 45  2  0  0  0  0
 45 46  1  0  0  0  0
 46 47  1  0  0  0  0
 46 48  2  0  0  0  0
 48 49  1  0  0  0  0
 49 50  1  0  0  0  0
 48 51  1  0  0  0  0
 29 52  1  0  0  0  0
 52 53  2  0  0  0  0
 53 54  1  0  0  0  0
 54 55  1  0  0  0  0
 55 56  2  0  0  0  0
 56 57  1  0  0  0  0
 57 58  2  0  0  0  0
 58 59  1  0  0  0  0
 59 60  1  0  0  0  0
 58 61  1  0  0  0  0
 61 62  2  0  0  0  0
 54 63  1  0  0  0  0
 63 64  2  0  0  0  0
 64 65  1  0  0  0  0
 65 66  2  0  0  0  0
 66 67  1  0  0  0  0
 67 68  1  0  0  0  0
 66 69  1  0  0  0  0
 69 70  2  0  0  0  0
 53 71  1  0  0  0  0
 71 72  1  0  0  0  0
 72 73  1  0  0  0  0
 73 74  2  0  0  0  0
 74 75  1  0  0  0  0
 75 76  1  0  0  0  0
 76 77  2  0  0  0  0
 77 78  1  0  0  0  0
 78 79  2  0  0  0  0
 79 80  1  0  0  0  0
 80 81  1  0  0  0  0
 79 82  1  0  0  0  0
 82 83  2  0  0  0  0
 75 84  1  0  0  0  0
 84 85  2  0  0  0  0
 85 86  1  0  0  0  0
 86 87  2  0  0  0  0
 87 88  1  0  0  0  0
 88 89  1  0  0  0  0
 87 90  1  0  0  0  0
 90 91  2  0  0  0  0
 74 92  1  0  0  0  0
 92 93  1  0  0  0  0
 73 94  1  0  0  0  0
 94 95  2  0  0  0  0
 95 96  1  0  0  0  0
 96 97  1  0  0  0  0
 97 98  2  0  0  0  0
 98 99  1  0  0  0  0
 99100  2  0  0  0  0
100101  1  0  0  0  0
100102  1  0  0  0  0
102103  2  0  0  0  0
 96104  1  0  0  0  0
104105  2  0  0  0  0
105106  1  0  0  0  0
106107  2  0  0  0  0
107108  1  0  0  0  0
107109  1  0  0  0  0
109110  2  0  0  0  0
 95111  1  0  0  0  0
111112  1  0  0  0  0
112113  1  0  0  0  0
113114  2  0  0  0  0
114115  1  0  0  0  0
115116  1  0  0  0  0
116117  2  0  0  0  0
117118  1  0  0  0  0
118119  2  0  0  0  0
119120  1  0  0  0  0
119121  1  0  0  0  0
121122  2  0  0  0  0
115123  1  0  0  0  0
123124  2  0  0  0  0
124125  1  0  0  0  0
125126  2  0  0  0  0
126127  1  0  0  0  0
126128  1  0  0  0  0
128129  2  0  0  0  0
114130  1  0  0  0  0
130131  1  0  0  0  0
113132  1  0  0  0  0
132133  2  0  0  0  0
133134  1  0  0  0  0
134135  2  0  0  0  0
134136  1  0  0  0  0
136137  2  0  0  0  0
137138  1  0  0  0  0
138139  2  0  0  0  0
139140  1  0  0  0  0
140141  2  0  0  0  0
141142  1  0  0  0  0
142143  2  0  0  0  0
143144  1  0  0  0  0
144145  3  0  0  0  0
143146  1  0  0  0  0
146147  3  0  0  0  0
139148  1  0  0  0  0
148149  1  0  0  0  0
149150  1  0  0  0  0
150151  2  0  0  0  0
151152  1  0  0  0  0
152153  1  0  0  0  0
152154  1  0  0  0  0
 11  2  1  0  0  0  0
 23 17  1  0  0  0  0
 43 24  1  0  0  0  0
 51 44  1  0  0  0  0
 93 52  1  0  0  0  0
131 94  1  0  0  0  0
142133  1  0  0  0  0
154148  1  0  0  0  0
 10  5  1  0  0  0  0
 22 18  1  0  0  0  0
 43 30  1  0  0  0  0
 62 55  1  0  0  0  0
 70 63  1  0  0  0  0
 92 71  2  0  0  0  0
103 97  1  0  0  0  0
110104  1  0  0  0  0
130111  2  0  0  0  0
141136  1  0  0  0  0
153149  1  0  0  0  0
 23  7  1  0  0  0  0
 39 33  2  0  0  0  0
 83 76  1  0  0  0  0
 91 84  1  0  0  0  0
122116  1  0  0  0  0
129123  1  0  0  0  0
154138  1  0  0  0  0
  1155  1  0  0  0  0
  6156  1  0  0  0  0
  9157  1  0  0  0  0
 17158  1  0  0  0  0
 18159  1  0  0  0  0
 19160  1  0  0  0  0
 20161  1  0  0  0  0
 21162  1  0  0  0  0
 22163  1  0  0  0  0
 22164  1  0  0  0  0
 23165  1  0  0  0  0
 36166  1  0  0  0  0
 36167  1  0  0  0  0
 37168  1  0  0  0  0
 37169  1  0  0  0  0
 37170  1  0  0  0  0
 39171  1  0  0  0  0
 45172  1  0  0  0  0
 49173  1  0  0  0  0
 49174  1  0  0  0  0
 50175  1  0  0  0  0
 50176  1  0  0  0  0
 50177  1  0  0  0  0
 56178  1  0  0  0  0
 57179  1  0  0  0  0
 60180  1  0  0  0  0
 60181  1  0  0  0  0
 60182  1  0  0  0  0
 61183  1  0  0  0  0
 62184  1  0  0  0  0
 64185  1  0  0  0  0
 65186  1  0  0  0  0
 68187  1  0  0  0  0
 68188  1  0  0  0  0
 68189  1  0  0  0  0
 69190  1  0  0  0  0
 70191  1  0  0  0  0
 77192  1  0  0  0  0
 78193  1  0  0  0  0
 81194  1  0  0  0  0
 81195  1  0  0  0  0
 81196  1  0  0  0  0
 82197  1  0  0  0  0
 83198  1  0  0  0  0
 85199  1  0  0  0  0
 86200  1  0  0  0  0
 89201  1  0  0  0  0
 89202  1  0  0  0  0
 89203  1  0  0  0  0
 90204  1  0  0  0  0
 91205  1  0  0  0  0
 98206  1  0  0  0  0
 99207  1  0  0  0  0
101208  1  0  0  0  0
101209  1  0  0  0  0
101210  1  0  0  0  0
102211  1  0  0  0  0
103212  1  0  0  0  0
105213  1  0  0  0  0
106214  1  0  0  0  0
108215  1  0  0  0  0
108216  1  0  0  0  0
108217  1  0  0  0  0
109218  1  0  0  0  0
110219  1  0  0  0  0
117220  1  0  0  0  0
118221  1  0  0  0  0
120222  1  0  0  0  0
120223  1  0  0  0  0
120224  1  0  0  0  0
121225  1  0  0  0  0
122226  1  0  0  0  0
124227  1  0  0  0  0
125228  1  0  0  0  0
127229  1  0  0  0  0
127230  1  0  0  0  0
127231  1  0  0  0  0
128232  1  0  0  0  0
129233  1  0  0  0  0
132234  1  0  0  0  0
137235  1  0  0  0  0
140236  1  0  0  0  0
148237  1  0  0  0  0
149238  1  0  0  0  0
150239  1  0  0  0  0
151240  1  0  0  0  0
152241  1  0  0  0  0
153242  1  0  0  0  0
153243  1  0  0  0  0
154244  1  0  0  0  0
M  END
