
  xtb     02082212403D
 energy: -395.170562890423 gnorm: 0.000343396805 xtb: 6.4.1 (unknown)
231254  0     0  0            999 V2000
   -4.3505    6.4546   -8.4768 C   0  0  0  0  0  0  0  0  0  0  0  0
   -5.1928    7.5252   -8.3869 C   0  0  0  0  0  0  0  0  0  0  0  0
   -5.7102    8.1310   -7.1464 C   0  0  0  0  0  0  0  0  0  0  0  0
   -5.5667    7.7307   -6.0065 O   0  0  0  0  0  0  0  0  0  0  0  0
   -6.4453    9.3391   -7.5560 C   0  0  0  0  0  0  0  0  0  0  0  0
   -7.0754   10.2577   -6.7195 C   0  0  0  0  0  0  0  0  0  0  0  0
   -7.6801   11.2966   -7.3844 C   0  0  0  0  0  0  0  0  0  0  0  0
   -7.6521   11.4188   -8.7804 C   0  0  0  0  0  0  0  0  0  0  0  0
   -7.0324   10.5214   -9.6167 C   0  0  0  0  0  0  0  0  0  0  0  0
   -6.4195    9.4492   -8.9612 C   0  0  0  0  0  0  0  0  0  0  0  0
   -5.6866    8.3093   -9.5064 C   0  0  0  0  0  0  0  0  0  0  0  0
   -5.5459    8.0227  -10.8394 C   0  0  0  0  0  0  0  0  0  0  0  0
   -4.8952    6.8926  -11.3785 C   0  0  0  0  0  0  0  0  0  0  0  0
   -4.4014    5.9982  -11.9041 N   0  0  0  0  0  0  0  0  0  0  0  0
   -6.0705    8.8110  -11.8858 C   0  0  0  0  0  0  0  0  0  0  0  0
   -6.4667    9.3979  -12.7896 N   0  0  0  0  0  0  0  0  0  0  0  0
   -8.4592   12.6925   -8.7649 C   0  0  0  0  0  0  0  0  0  0  0  0
   -9.9559   12.6000   -9.1524 C   0  0  0  0  0  0  0  0  0  0  0  0
  -10.3964   11.1943   -8.8271 C   0  0  0  0  0  0  0  0  0  0  0  0
  -10.4263   11.0750   -7.5065 C   0  0  0  0  0  0  0  0  0  0  0  0
  -10.0067   12.3980   -6.9148 C   0  0  0  0  0  0  0  0  0  0  0  0
  -10.5778   13.3592   -7.9694 C   0  0  0  0  0  0  0  0  0  0  0  0
   -8.4940   12.5541   -7.2101 C   0  0  0  0  0  0  0  0  0  0  0  0
   -3.8066    5.6253   -7.4730 C   0  0  0  0  0  0  0  0  0  0  0  0
   -2.9296    4.6010   -7.7779 C   0  0  0  0  0  0  0  0  0  0  0  0
   -2.4992    3.8614   -6.6656 C   0  0  0  0  0  0  0  0  0  0  0  0
   -1.6042    2.7677   -6.6418 C   0  0  0  0  0  0  0  0  0  0  0  0
   -0.8556    2.3639   -7.8349 C   0  0  0  0  0  0  0  0  0  0  0  0
   -0.7372    1.0314   -8.2191 C   0  0  0  0  0  0  0  0  0  0  0  0
   -0.0053    0.6684   -9.3333 C   0  0  0  0  0  0  0  0  0  0  0  0
    0.6529    1.6243  -10.0992 C   0  0  0  0  0  0  0  0  0  0  0  0
    1.6430    1.3203  -11.5188 S   0  0  0  0  0  0  0  0  0  0  0  0
    1.5298   -0.4793  -11.7836 C   0  0  0  0  0  0  0  0  0  0  0  0
    0.2208   -0.8887  -12.4323 C   0  0  0  0  0  0  0  0  0  0  0  0
    0.5433    2.9556   -9.6885 C   0  0  0  0  0  0  0  0  0  0  0  0
    1.1999    3.9088  -10.3827 F   0  0  0  0  0  0  0  0  0  0  0  0
   -0.1936    3.3329   -8.5912 C   0  0  0  0  0  0  0  0  0  0  0  0
   -1.4202    2.1570   -5.4155 C   0  0  0  0  0  0  0  0  0  0  0  0
   -1.9927    2.6434   -4.2107 C   0  0  0  0  0  0  0  0  0  0  0  0
   -2.8387    3.7655   -4.2273 C   0  0  0  0  0  0  0  0  0  0  0  0
   -3.3894    4.3161   -2.9841 C   0  0  0  0  0  0  0  0  0  0  0  0
   -4.7428    4.6195   -2.8674 C   0  0  0  0  0  0  0  0  0  0  0  0
   -5.2648    5.1301   -1.6950 C   0  0  0  0  0  0  0  0  0  0  0  0
   -4.4481    5.3617   -0.5948 C   0  0  0  0  0  0  0  0  0  0  0  0
   -4.9840    5.9884    0.9642 S   0  0  0  0  0  0  0  0  0  0  0  0
   -6.5904    6.7700    0.5944 C   0  0  0  0  0  0  0  0  0  0  0  0
   -6.4443    7.9985   -0.2827 C   0  0  0  0  0  0  0  0  0  0  0  0
   -3.0955    5.0462   -0.7232 C   0  0  0  0  0  0  0  0  0  0  0  0
   -2.5605    4.5415   -1.8852 C   0  0  0  0  0  0  0  0  0  0  0  0
   -2.2794    5.2421    0.3329 F   0  0  0  0  0  0  0  0  0  0  0  0
   -3.1057    4.3289   -5.4677 C   0  0  0  0  0  0  0  0  0  0  0  0
   -4.1373    5.7034   -5.7537 S   0  0  0  0  0  0  0  0  0  0  0  0
   -1.5808    1.8808   -3.0968 C   0  0  0  0  0  0  0  0  0  0  0  0
   -0.7078    0.8675   -3.3933 C   0  0  0  0  0  0  0  0  0  0  0  0
   -0.3922    0.7768   -5.1154 S   0  0  0  0  0  0  0  0  0  0  0  0
   -0.1131    0.0266   -2.4076 C   0  0  0  0  0  0  0  0  0  0  0  0
    0.5137   -1.2115   -2.4603 C   0  0  0  0  0  0  0  0  0  0  0  0
    0.7450   -2.0058   -3.5748 N   0  0  0  0  0  0  0  0  0  0  0  0
    1.3774   -1.5218   -4.7191 C   0  0  0  0  0  0  0  0  0  0  0  0
    1.1295   -2.1253   -5.9543 C   0  0  0  0  0  0  0  0  0  0  0  0
    1.7276   -1.6417   -7.0934 C   0  0  0  0  0  0  0  0  0  0  0  0
    2.5824   -0.5436   -7.0323 C   0  0  0  0  0  0  0  0  0  0  0  0
    3.2917    0.0127   -8.5511 S   0  0  0  0  0  0  0  0  0  0  0  0
    3.6179    1.7675   -8.2300 C   0  0  0  0  0  0  0  0  0  0  0  0
    2.8556    0.0424   -5.8055 C   0  0  0  0  0  0  0  0  0  0  0  0
    2.2584   -0.4436   -4.6582 C   0  0  0  0  0  0  0  0  0  0  0  0
    0.5550   -3.3893   -3.4093 C   0  0  0  0  0  0  0  0  0  0  0  0
    1.5064   -4.3050   -3.8482 C   0  0  0  0  0  0  0  0  0  0  0  0
    1.3233   -5.6589   -3.6505 C   0  0  0  0  0  0  0  0  0  0  0  0
    0.1861   -6.1204   -3.0006 C   0  0  0  0  0  0  0  0  0  0  0  0
   -0.1524   -7.8232   -2.6948 S   0  0  0  0  0  0  0  0  0  0  0  0
    1.3884   -8.6686   -3.1441 C   0  0  0  0  0  0  0  0  0  0  0  0
   -0.7710   -5.2067   -2.5630 C   0  0  0  0  0  0  0  0  0  0  0  0
   -0.5919   -3.8573   -2.7674 C   0  0  0  0  0  0  0  0  0  0  0  0
    0.8758   -1.6489   -1.1594 C   0  0  0  0  0  0  0  0  0  0  0  0
    1.6294   -3.0829   -0.5562 S   0  0  0  0  0  0  0  0  0  0  0  0
    1.5931   -2.4307    1.0755 C   0  0  0  0  0  0  0  0  0  0  0  0
    0.9689   -1.1945    1.1511 C   0  0  0  0  0  0  0  0  0  0  0  0
    0.6811   -0.4951    2.3059 N   0  0  0  0  0  0  0  0  0  0  0  0
    0.4677   -1.1619    3.5202 C   0  0  0  0  0  0  0  0  0  0  0  0
   -0.2181   -2.3735    3.5520 C   0  0  0  0  0  0  0  0  0  0  0  0
   -0.2847   -3.1170    4.7139 C   0  0  0  0  0  0  0  0  0  0  0  0
    0.3264   -2.6532    5.8706 C   0  0  0  0  0  0  0  0  0  0  0  0
    0.4092   -3.5746    7.3739 S   0  0  0  0  0  0  0  0  0  0  0  0
   -0.1809   -5.2247    6.9029 C   0  0  0  0  0  0  0  0  0  0  0  0
    0.9258   -1.3948    5.8692 C   0  0  0  0  0  0  0  0  0  0  0  0
    0.9949   -0.6554    4.7100 C   0  0  0  0  0  0  0  0  0  0  0  0
    0.6677    0.9106    2.2640 C   0  0  0  0  0  0  0  0  0  0  0  0
   -0.3186    1.6237    2.9376 C   0  0  0  0  0  0  0  0  0  0  0  0
   -0.3406    3.0040    2.8990 C   0  0  0  0  0  0  0  0  0  0  0  0
    0.6280    3.6965    2.1824 C   0  0  0  0  0  0  0  0  0  0  0  0
    0.7220    5.4509    2.0779 S   0  0  0  0  0  0  0  0  0  0  0  0
   -0.6696    6.0347    3.0826 C   0  0  0  0  0  0  0  0  0  0  0  0
    1.6164    2.9826    1.5055 C   0  0  0  0  0  0  0  0  0  0  0  0
    1.6403    1.6070    1.5470 C   0  0  0  0  0  0  0  0  0  0  0  0
    0.5805   -0.7597   -0.1427 C   0  0  0  0  0  0  0  0  0  0  0  0
   -0.1952    0.6523   -0.7554 S   0  0  0  0  0  0  0  0  0  0  0  0
    2.1390   -3.2092    2.1450 C   0  0  0  0  0  0  0  0  0  0  0  0
    1.9346   -4.5338    2.3890 C   0  0  0  0  0  0  0  0  0  0  0  0
    2.5094   -4.9835    3.6039 C   0  0  0  0  0  0  0  0  0  0  0  0
    2.3746   -6.2452    4.2111 C   0  0  0  0  0  0  0  0  0  0  0  0
    1.7004   -7.3559    3.5283 C   0  0  0  0  0  0  0  0  0  0  0  0
    0.7650   -8.1525    4.1873 C   0  0  0  0  0  0  0  0  0  0  0  0
    0.1426   -9.1951    3.5337 C   0  0  0  0  0  0  0  0  0  0  0  0
    0.4297   -9.4904    2.2045 C   0  0  0  0  0  0  0  0  0  0  0  0
   -0.3806  -10.8802    1.4620 S   0  0  0  0  0  0  0  0  0  0  0  0
   -1.0192  -10.1646   -0.0968 C   0  0  0  0  0  0  0  0  0  0  0  0
   -2.0237   -9.0602    0.1596 C   0  0  0  0  0  0  0  0  0  0  0  0
    1.3845   -8.7055    1.5648 C   0  0  0  0  0  0  0  0  0  0  0  0
    1.7487   -8.9649    0.2898 F   0  0  0  0  0  0  0  0  0  0  0  0
    2.0039   -7.6495    2.2006 C   0  0  0  0  0  0  0  0  0  0  0  0
    2.9149   -6.3825    5.4837 C   0  0  0  0  0  0  0  0  0  0  0  0
    3.5821   -5.3262    6.1621 C   0  0  0  0  0  0  0  0  0  0  0  0
    3.7087   -4.0610    5.5552 C   0  0  0  0  0  0  0  0  0  0  0  0
    4.3163   -2.9275    6.2547 C   0  0  0  0  0  0  0  0  0  0  0  0
    5.2675   -2.1252    5.6322 C   0  0  0  0  0  0  0  0  0  0  0  0
    5.8254   -1.0415    6.2820 C   0  0  0  0  0  0  0  0  0  0  0  0
    5.4443   -0.7163    7.5785 C   0  0  0  0  0  0  0  0  0  0  0  0
    6.0459    0.6482    8.5135 S   0  0  0  0  0  0  0  0  0  0  0  0
    7.5304    1.1985    7.6035 C   0  0  0  0  0  0  0  0  0  0  0  0
    8.6769    0.2128    7.7251 C   0  0  0  0  0  0  0  0  0  0  0  0
    4.4752   -1.5206    8.1840 C   0  0  0  0  0  0  0  0  0  0  0  0
    3.9194   -2.6089    7.5535 C   0  0  0  0  0  0  0  0  0  0  0  0
    4.0629   -1.2151    9.4296 F   0  0  0  0  0  0  0  0  0  0  0  0
    3.1876   -3.9362    4.2798 C   0  0  0  0  0  0  0  0  0  0  0  0
    3.1702   -2.4633    3.3498 S   0  0  0  0  0  0  0  0  0  0  0  0
    4.1040   -5.7294    7.4070 C   0  0  0  0  0  0  0  0  0  0  0  0
    3.8543   -7.0434    7.7119 C   0  0  0  0  0  0  0  0  0  0  0  0
    2.9186   -7.8344    6.4406 S   0  0  0  0  0  0  0  0  0  0  0  0
    4.1664   -7.8309    8.8436 C   0  0  0  0  0  0  0  0  0  0  0  0
    5.0273   -7.6027    9.8789 C   0  0  0  0  0  0  0  0  0  0  0  0
    6.0576   -6.5400   10.0029 C   0  0  0  0  0  0  0  0  0  0  0  0
    6.2061   -5.5420    9.3283 O   0  0  0  0  0  0  0  0  0  0  0  0
    6.9241   -6.9584   11.1187 C   0  0  0  0  0  0  0  0  0  0  0  0
    8.0570   -6.3542   11.5821 C   0  0  0  0  0  0  0  0  0  0  0  0
    8.7531   -6.9357   12.6651 C   0  0  0  0  0  0  0  0  0  0  0  0
    9.9280   -6.3594   13.1864 C   0  0  0  0  0  0  0  0  0  0  0  0
   10.5894   -6.9438   14.2322 C   0  0  0  0  0  0  0  0  0  0  0  0
   10.1042   -8.1300   14.8029 C   0  0  0  0  0  0  0  0  0  0  0  0
    8.9651   -8.7148   14.3206 C   0  0  0  0  0  0  0  0  0  0  0  0
    8.2584   -8.1395   13.2449 C   0  0  0  0  0  0  0  0  0  0  0  0
    7.0788   -8.7386   12.7465 C   0  0  0  0  0  0  0  0  0  0  0  0
    6.4167   -8.1541   11.6993 C   0  0  0  0  0  0  0  0  0  0  0  0
    5.1983   -8.5251   10.9921 C   0  0  0  0  0  0  0  0  0  0  0  0
    4.3313   -9.5158   11.3734 C   0  0  0  0  0  0  0  0  0  0  0  0
    4.5504  -10.3722   12.4727 C   0  0  0  0  0  0  0  0  0  0  0  0
    4.6726  -11.1062   13.3471 N   0  0  0  0  0  0  0  0  0  0  0  0
    3.0858   -9.7943   10.7712 C   0  0  0  0  0  0  0  0  0  0  0  0
    2.0483  -10.0666   10.3602 N   0  0  0  0  0  0  0  0  0  0  0  0
   -4.0150    6.1782   -9.4694 H   0  0  0  0  0  0  0  0  0  0  0  0
   -7.0654   10.1283   -5.6485 H   0  0  0  0  0  0  0  0  0  0  0  0
   -7.0162   10.6349  -10.6875 H   0  0  0  0  0  0  0  0  0  0  0  0
   -7.9740   13.5695   -9.1883 H   0  0  0  0  0  0  0  0  0  0  0  0
  -10.1856   12.9555  -10.1531 H   0  0  0  0  0  0  0  0  0  0  0  0
  -10.5794   10.4380   -9.5678 H   0  0  0  0  0  0  0  0  0  0  0  0
  -10.6390   10.1983   -6.9230 H   0  0  0  0  0  0  0  0  0  0  0  0
  -10.2841   12.5700   -5.8781 H   0  0  0  0  0  0  0  0  0  0  0  0
  -10.2128   14.3804   -7.8690 H   0  0  0  0  0  0  0  0  0  0  0  0
  -11.6664   13.3583   -7.9943 H   0  0  0  0  0  0  0  0  0  0  0  0
   -8.0348   13.3428   -6.6172 H   0  0  0  0  0  0  0  0  0  0  0  0
   -2.6315    4.3856   -8.7891 H   0  0  0  0  0  0  0  0  0  0  0  0
   -1.2430    0.2643   -7.6532 H   0  0  0  0  0  0  0  0  0  0  0  0
    0.0554   -0.3747   -9.5934 H   0  0  0  0  0  0  0  0  0  0  0  0
    1.7083   -0.9714  -10.8289 H   0  0  0  0  0  0  0  0  0  0  0  0
    2.3705   -0.6935  -12.4434 H   0  0  0  0  0  0  0  0  0  0  0  0
    0.2070   -1.9659  -12.5886 H   0  0  0  0  0  0  0  0  0  0  0  0
   -0.6303   -0.6158  -11.8124 H   0  0  0  0  0  0  0  0  0  0  0  0
    0.1102   -0.3972  -13.3961 H   0  0  0  0  0  0  0  0  0  0  0  0
   -0.2217    4.3741   -8.3099 H   0  0  0  0  0  0  0  0  0  0  0  0
   -5.4056    4.4348   -3.6979 H   0  0  0  0  0  0  0  0  0  0  0  0
   -6.3213    5.3366   -1.6444 H   0  0  0  0  0  0  0  0  0  0  0  0
   -7.2500    6.0214    0.1571 H   0  0  0  0  0  0  0  0  0  0  0  0
   -6.9747    7.0373    1.5789 H   0  0  0  0  0  0  0  0  0  0  0  0
   -7.4189    8.4566   -0.4400 H   0  0  0  0  0  0  0  0  0  0  0  0
   -5.7912    8.7251    0.1954 H   0  0  0  0  0  0  0  0  0  0  0  0
   -6.0210    7.7412   -1.2514 H   0  0  0  0  0  0  0  0  0  0  0  0
   -1.4993    4.3541   -1.9334 H   0  0  0  0  0  0  0  0  0  0  0  0
   -1.9307    2.0601   -2.0962 H   0  0  0  0  0  0  0  0  0  0  0  0
    0.4504   -2.9625   -6.0102 H   0  0  0  0  0  0  0  0  0  0  0  0
    1.5336   -2.1059   -8.0479 H   0  0  0  0  0  0  0  0  0  0  0  0
    3.7363    2.2328   -9.2040 H   0  0  0  0  0  0  0  0  0  0  0  0
    4.5307    1.8841   -7.6526 H   0  0  0  0  0  0  0  0  0  0  0  0
    2.7648    2.1965   -7.7128 H   0  0  0  0  0  0  0  0  0  0  0  0
    3.5361    0.8756   -5.7302 H   0  0  0  0  0  0  0  0  0  0  0  0
    2.4762    0.0157   -3.7052 H   0  0  0  0  0  0  0  0  0  0  0  0
    2.4004   -3.9516   -4.3398 H   0  0  0  0  0  0  0  0  0  0  0  0
    2.0813   -6.3415   -3.9987 H   0  0  0  0  0  0  0  0  0  0  0  0
    2.2065   -8.2758   -2.5483 H   0  0  0  0  0  0  0  0  0  0  0  0
    1.2305   -9.7153   -2.9031 H   0  0  0  0  0  0  0  0  0  0  0  0
    1.5788   -8.5630   -4.2082 H   0  0  0  0  0  0  0  0  0  0  0  0
   -1.6563   -5.5710   -2.0645 H   0  0  0  0  0  0  0  0  0  0  0  0
   -1.3370   -3.1528   -2.4275 H   0  0  0  0  0  0  0  0  0  0  0  0
   -0.6832   -2.7492    2.6524 H   0  0  0  0  0  0  0  0  0  0  0  0
   -0.8072   -4.0599    4.6972 H   0  0  0  0  0  0  0  0  0  0  0  0
    0.3684   -5.5693    6.0316 H   0  0  0  0  0  0  0  0  0  0  0  0
   -1.2504   -5.2035    6.7134 H   0  0  0  0  0  0  0  0  0  0  0  0
    0.0281   -5.8659    7.7540 H   0  0  0  0  0  0  0  0  0  0  0  0
    1.3678   -1.0211    6.7797 H   0  0  0  0  0  0  0  0  0  0  0  0
    1.4995    0.2987    4.7055 H   0  0  0  0  0  0  0  0  0  0  0  0
   -1.0735    1.0884    3.4947 H   0  0  0  0  0  0  0  0  0  0  0  0
   -1.1237    3.5275    3.4223 H   0  0  0  0  0  0  0  0  0  0  0  0
   -0.5563    5.6920    4.1071 H   0  0  0  0  0  0  0  0  0  0  0  0
   -1.6043    5.6998    2.6454 H   0  0  0  0  0  0  0  0  0  0  0  0
   -0.6162    7.1183    3.0478 H   0  0  0  0  0  0  0  0  0  0  0  0
    2.3698    3.5254    0.9556 H   0  0  0  0  0  0  0  0  0  0  0  0
    2.4200    1.0615    1.0356 H   0  0  0  0  0  0  0  0  0  0  0  0
    1.3172   -5.1449    1.7553 H   0  0  0  0  0  0  0  0  0  0  0  0
    0.5031   -7.9439    5.2131 H   0  0  0  0  0  0  0  0  0  0  0  0
   -0.5846   -9.8035    4.0478 H   0  0  0  0  0  0  0  0  0  0  0  0
   -0.1813   -9.8114   -0.6917 H   0  0  0  0  0  0  0  0  0  0  0  0
   -1.4835  -11.0114   -0.6011 H   0  0  0  0  0  0  0  0  0  0  0  0
   -2.4061   -8.6936   -0.7905 H   0  0  0  0  0  0  0  0  0  0  0  0
   -1.5553   -8.2293    0.6846 H   0  0  0  0  0  0  0  0  0  0  0  0
   -2.8533   -9.4277    0.7595 H   0  0  0  0  0  0  0  0  0  0  0  0
    2.7535   -7.0871    1.6655 H   0  0  0  0  0  0  0  0  0  0  0  0
    5.5973   -2.3636    4.6324 H   0  0  0  0  0  0  0  0  0  0  0  0
    6.5583   -0.4469    5.7617 H   0  0  0  0  0  0  0  0  0  0  0  0
    7.2542    1.3943    6.5683 H   0  0  0  0  0  0  0  0  0  0  0  0
    7.7824    2.1464    8.0791 H   0  0  0  0  0  0  0  0  0  0  0  0
    9.5493    0.5922    7.1962 H   0  0  0  0  0  0  0  0  0  0  0  0
    8.4083   -0.7545    7.3057 H   0  0  0  0  0  0  0  0  0  0  0  0
    8.9385    0.0708    8.7709 H   0  0  0  0  0  0  0  0  0  0  0  0
    3.1564   -3.1774    8.0608 H   0  0  0  0  0  0  0  0  0  0  0  0
    4.6701   -5.0816    8.0491 H   0  0  0  0  0  0  0  0  0  0  0  0
    3.6475   -8.7832    8.8518 H   0  0  0  0  0  0  0  0  0  0  0  0
    8.4175   -5.4438   11.1266 H   0  0  0  0  0  0  0  0  0  0  0  0
   10.2966   -5.4460   12.7428 H   0  0  0  0  0  0  0  0  0  0  0  0
   11.4896   -6.4956   14.6255 H   0  0  0  0  0  0  0  0  0  0  0  0
   10.6377   -8.5781   15.6277 H   0  0  0  0  0  0  0  0  0  0  0  0
    8.5866   -9.6271   14.7579 H   0  0  0  0  0  0  0  0  0  0  0  0
    6.7328   -9.6519   13.2038 H   0  0  0  0  0  0  0  0  0  0  0  0
  1  2  2  0  0  0  0
  2  3  1  0  0  0  0
  3  4  2  0  0  0  0
  3  5  1  0  0  0  0
  5  6  2  0  0  0  0
  6  7  1  0  0  0  0
  7  8  2  0  0  0  0
  8  9  1  0  0  0  0
  9 10  2  0  0  0  0
 10 11  1  0  0  0  0
 11 12  2  0  0  0  0
 12 13  1  0  0  0  0
 13 14  3  0  0  0  0
 12 15  1  0  0  0  0
 15 16  3  0  0  0  0
  8 17  1  0  0  0  0
 17 18  1  0  0  0  0
 18 19  1  0  0  0  0
 19 20  2  0  0  0  0
 20 21  1  0  0  0  0
 21 22  1  0  0  0  0
 21 23  1  0  0  0  0
  1 24  1  0  0  0  0
 24 25  2  0  0  0  0
 25 26  1  0  0  0  0
 26 27  2  0  0  0  0
 27 28  1  0  0  0  0
 28 29  2  0  0  0  0
 29 30  1  0  0  0  0
 30 31  2  0  0  0  0
 31 32  1  0  0  0  0
 32 33  1  0  0  0  0
 33 34  1  0  0  0  0
 31 35  1  0  0  0  0
 35 36  1  0  0  0  0
 35 37  2  0  0  0  0
 27 38  1  0  0  0  0
 38 39  2  0  0  0  0
 39 40  1  0  0  0  0
 40 41  1  0  0  0  0
 41 42  2  0  0  0  0
 42 43  1  0  0  0  0
 43 44  2  0  0  0  0
 44 45  1  0  0  0  0
 45 46  1  0  0  0  0
 46 47  1  0  0  0  0
 44 48  1  0  0  0  0
 48 49  2  0  0  0  0
 48 50  1  0  0  0  0
 40 51  2  0  0  0  0
 51 52  1  0  0  0  0
 39 53  1  0  0  0  0
 53 54  2  0  0  0  0
 54 55  1  0  0  0  0
 54 56  1  0  0  0  0
 56 57  2  0  0  0  0
 57 58  1  0  0  0  0
 58 59  1  0  0  0  0
 59 60  2  0  0  0  0
 60 61  1  0  0  0  0
 61 62  2  0  0  0  0
 62 63  1  0  0  0  0
 63 64  1  0  0  0  0
 62 65  1  0  0  0  0
 65 66  2  0  0  0  0
 58 67  1  0  0  0  0
 67 68  2  0  0  0  0
 68 69  1  0  0  0  0
 69 70  2  0  0  0  0
 70 71  1  0  0  0  0
 71 72  1  0  0  0  0
 70 73  1  0  0  0  0
 73 74  2  0  0  0  0
 57 75  1  0  0  0  0
 75 76  1  0  0  0  0
 76 77  1  0  0  0  0
 77 78  2  0  0  0  0
 78 79  1  0  0  0  0
 79 80  1  0  0  0  0
 80 81  2  0  0  0  0
 81 82  1  0  0  0  0
 82 83  2  0  0  0  0
 83 84  1  0  0  0  0
 84 85  1  0  0  0  0
 83 86  1  0  0  0  0
 86 87  2  0  0  0  0
 79 88  1  0  0  0  0
 88 89  2  0  0  0  0
 89 90  1  0  0  0  0
 90 91  2  0  0  0  0
 91 92  1  0  0  0  0
 92 93  1  0  0  0  0
 91 94  1  0  0  0  0
 94 95  2  0  0  0  0
 78 96  1  0  0  0  0
 96 97  1  0  0  0  0
 77 98  1  0  0  0  0
 98 99  2  0  0  0  0
 99100  1  0  0  0  0
100101  2  0  0  0  0
101102  1  0  0  0  0
102103  2  0  0  0  0
103104  1  0  0  0  0
104105  2  0  0  0  0
105106  1  0  0  0  0
106107  1  0  0  0  0
107108  1  0  0  0  0
105109  1  0  0  0  0
109110  1  0  0  0  0
109111  2  0  0  0  0
101112  1  0  0  0  0
112113  2  0  0  0  0
113114  1  0  0  0  0
114115  1  0  0  0  0
115116  2  0  0  0  0
116117  1  0  0  0  0
117118  2  0  0  0  0
118119  1  0  0  0  0
119120  1  0  0  0  0
120121  1  0  0  0  0
118122  1  0  0  0  0
122123  2  0  0  0  0
122124  1  0  0  0  0
114125  2  0  0  0  0
125126  1  0  0  0  0
113127  1  0  0  0  0
127128  2  0  0  0  0
128129  1  0  0  0  0
128130  1  0  0  0  0
130131  2  0  0  0  0
131132  1  0  0  0  0
132133  2  0  0  0  0
132134  1  0  0  0  0
134135  2  0  0  0  0
135136  1  0  0  0  0
136137  2  0  0  0  0
137138  1  0  0  0  0
138139  2  0  0  0  0
139140  1  0  0  0  0
140141  2  0  0  0  0
141142  1  0  0  0  0
142143  2  0  0  0  0
143144  1  0  0  0  0
144145  2  0  0  0  0
145146  1  0  0  0  0
146147  3  0  0  0  0
145148  1  0  0  0  0
148149  3  0  0  0  0
 11  2  1  0  0  0  0
 23 17  1  0  0  0  0
 52 24  1  0  0  0  0
 97 56  1  0  0  0  0
126 98  1  0  0  0  0
144131  1  0  0  0  0
 10  5  1  0  0  0  0
 22 18  1  0  0  0  0
 51 26  1  0  0  0  0
 66 59  1  0  0  0  0
 74 67  1  0  0  0  0
 96 75  2  0  0  0  0
125100  1  0  0  0  0
143134  1  0  0  0  0
 23  7  1  0  0  0  0
 37 28  1  0  0  0  0
 55 38  1  0  0  0  0
 87 80  1  0  0  0  0
 95 88  1  0  0  0  0
111102  1  0  0  0  0
129112  1  0  0  0  0
141136  1  0  0  0  0
 49 41  1  0  0  0  0
123115  1  0  0  0  0
  1150  1  0  0  0  0
  6151  1  0  0  0  0
  9152  1  0  0  0  0
 17153  1  0  0  0  0
 18154  1  0  0  0  0
 19155  1  0  0  0  0
 20156  1  0  0  0  0
 21157  1  0  0  0  0
 22158  1  0  0  0  0
 22159  1  0  0  0  0
 23160  1  0  0  0  0
 25161  1  0  0  0  0
 29162  1  0  0  0  0
 30163  1  0  0  0  0
 33164  1  0  0  0  0
 33165  1  0  0  0  0
 34166  1  0  0  0  0
 34167  1  0  0  0  0
 34168  1  0  0  0  0
 37169  1  0  0  0  0
 42170  1  0  0  0  0
 43171  1  0  0  0  0
 46172  1  0  0  0  0
 46173  1  0  0  0  0
 47174  1  0  0  0  0
 47175  1  0  0  0  0
 47176  1  0  0  0  0
 49177  1  0  0  0  0
 53178  1  0  0  0  0
 60179  1  0  0  0  0
 61180  1  0  0  0  0
 64181  1  0  0  0  0
 64182  1  0  0  0  0
 64183  1  0  0  0  0
 65184  1  0  0  0  0
 66185  1  0  0  0  0
 68186  1  0  0  0  0
 69187  1  0  0  0  0
 72188  1  0  0  0  0
 72189  1  0  0  0  0
 72190  1  0  0  0  0
 73191  1  0  0  0  0
 74192  1  0  0  0  0
 81193  1  0  0  0  0
 82194  1  0  0  0  0
 85195  1  0  0  0  0
 85196  1  0  0  0  0
 85197  1  0  0  0  0
 86198  1  0  0  0  0
 87199  1  0  0  0  0
 89200  1  0  0  0  0
 90201  1  0  0  0  0
 93202  1  0  0  0  0
 93203  1  0  0  0  0
 93204  1  0  0  0  0
 94205  1  0  0  0  0
 95206  1  0  0  0  0
 99207  1  0  0  0  0
103208  1  0  0  0  0
104209  1  0  0  0  0
107210  1  0  0  0  0
107211  1  0  0  0  0
108212  1  0  0  0  0
108213  1  0  0  0  0
108214  1  0  0  0  0
111215  1  0  0  0  0
116216  1  0  0  0  0
117217  1  0  0  0  0
120218  1  0  0  0  0
120219  1  0  0  0  0
121220  1  0  0  0  0
121221  1  0  0  0  0
121222  1  0  0  0  0
123223  1  0  0  0  0
127224  1  0  0  0  0
130225  1  0  0  0  0
135226  1  0  0  0  0
137227  1  0  0  0  0
138228  1  0  0  0  0
139229  1  0  0  0  0
140230  1  0  0  0  0
142231  1  0  0  0  0
M  END
