220

C          7.54940       -3.82050       -3.20910
C          8.00240       -3.65590       -1.93230
C          9.26740       -2.90250       -1.72080
O         10.17400       -2.76260       -2.51110
C          9.11900       -2.27950       -0.38850
C          9.95400       -1.33130        0.19960
C          9.51360       -0.87840        1.42080
C          8.33310       -1.33530        2.02200
C          7.50530       -2.27850        1.46210
C          7.93360       -2.74580        0.21850
C          7.33400       -3.74700       -0.65680
C          6.46750       -4.73530       -0.26650
C          5.78230       -4.75110        0.95950
N          5.15360       -4.80440        1.92030
C          6.24510       -5.89670       -1.03730
N          6.10530       -6.89120       -1.59380
C          8.49500       -0.43040        3.21720
C          7.60780        0.83200        3.24450
C          8.30280        1.74170        4.23120
C          9.41890        2.17740        3.66090
C          9.49660        1.56970        2.27880
C          8.00340        1.51650        1.92990
C          9.80990        0.08200        2.54670
C          6.21960       -3.90180       -3.66690
C          5.78450       -3.57520       -4.95650
C          6.64980       -3.35510       -6.15070
C          7.02930       -1.87800       -6.27890
N          4.47190       -3.37420       -5.08580
C          3.81040       -3.56870       -3.97930
S          4.82380       -4.04850       -2.62620
C          2.45570       -3.28930       -3.70640
C          1.63070       -2.31050       -4.26740
N          1.84320       -1.63210       -5.43750
C          1.25230       -0.34650       -5.53750
C          1.69950        0.68340       -4.71460
C          1.01620        1.87890       -4.66760
C         -0.12610        2.05730       -5.44340
S         -1.03620        3.55250       -5.21740
C         -2.72800        3.04660       -5.65050
C         -0.51150        1.06930       -6.34150
C          0.17670       -0.12700       -6.38980
C          2.43780       -2.19960       -6.56810
C          2.34840       -3.56230       -6.83340
C          2.97040       -4.10500       -7.93900
C          3.69260       -3.29040       -8.80080
S          4.57110       -3.87500      -10.21610
C          4.40150       -5.67980      -10.12280
C          3.74710       -1.91850       -8.56170
C          3.12350       -1.37690       -7.46110
C          0.55370       -2.03490       -3.38820
S         -0.67670       -0.82480       -3.38060
C         -1.22370       -1.37210       -1.80410
C         -0.59270       -2.53740       -1.38950
N         -1.06150       -3.30030       -0.34490
C         -2.44920       -3.25630       -0.06880
C         -3.38980       -3.24240       -1.09840
C         -4.73430       -3.21970       -0.81150
C         -5.17700       -3.22040        0.51010
S         -6.92250       -3.25270        0.75580
C         -7.13100       -2.89570        2.51790
C         -4.24430       -3.25000        1.53790
C         -2.89120       -3.26950        1.24750
C         -0.33760       -4.39740        0.16260
C         -0.97250       -5.62850        0.33650
C         -0.26730       -6.71160        0.80830
C          1.08900       -6.59960        1.11260
S          1.89160       -8.05950        1.68910
C          3.65550       -7.68240        1.50680
C          1.71840       -5.37160        0.96710
C          1.00650       -4.28170        0.49870
C          0.47900       -2.85040       -2.26660
S          1.78440       -3.97920       -2.23230
C         -2.16120       -0.53670       -1.11670
C         -2.04130        0.05640        0.13270
N         -1.01310       -0.11600        1.04320
C          0.31790       -0.31530        0.65670
C          1.16680       -1.04360        1.49240
C          2.47720       -1.27160        1.13410
C          2.97270       -0.79360       -0.07800
S          4.65280       -1.20380       -0.45140
C          4.90930       -0.54550       -2.12180
C          2.14480       -0.03690       -0.89400
C          0.83610        0.21230       -0.52290
C         -1.27410        0.18570        2.39660
C         -0.43310        1.04860        3.09900
C         -0.70280        1.36490        4.41130
C         -1.80920        0.81740        5.05700
S         -2.09000        1.31230        6.72870
C         -3.02100       -0.08350        7.42870
C         -2.64470       -0.04890        4.36510
C         -2.38380       -0.35260        3.04240
C         -3.11090        0.95700        0.35670
S         -3.47440        2.06950        1.62330
C         -4.84790        2.71220        0.71050
C         -4.97210        2.09170       -0.54150
N         -5.93630        2.32840       -1.48570
C         -6.47360        1.21430       -2.16450
C         -6.82770        0.07660       -1.44630
C         -7.35980       -1.01980       -2.09350
C         -7.53610       -0.99550       -3.47080
S         -8.19000       -2.34610       -4.39640
C         -8.69180       -3.54400       -3.12770
C         -7.18180        0.14530       -4.19080
C         -6.65770        1.24330       -3.54510
C         -6.41610        3.61150       -1.75710
C         -7.75290        3.81150       -2.10540
C         -8.22350        5.08390       -2.33820
C         -7.37700        6.18570       -2.22350
S         -8.08130        7.77730       -2.50100
C         -6.93660        8.88340       -1.62510
C         -6.03650        5.98760       -1.91680
C         -5.56170        4.71160       -1.69000
C         -3.99790        1.07900       -0.69800
S         -3.55520        0.05200       -2.01410
C         -5.61610        3.73790        1.28230
C         -5.74320        4.00590        2.61980
C         -6.08910        5.36910        3.08620
O         -6.47320        6.29460        2.40190
C         -5.80160        5.36970        4.53710
C         -5.81480        6.45480        5.41020
C         -5.44220        6.14340        6.69760
C         -5.07820        4.84980        7.09270
C         -5.06810        3.76700        6.24600
C         -5.44970        4.06380        4.93710
C         -5.54890        3.18090        3.77940
C         -5.70660        1.81590        3.84780
C         -5.97620        0.98310        2.74850
N         -6.23400        0.22970        1.91810
C         -5.75200        1.08290        5.04400
N         -5.82750        0.40140        5.96790
C         -4.78850        5.27440        8.50950
C         -3.30060        5.43530        8.88620
C         -3.33450        6.29680       10.12770
C         -3.68110        7.52330        9.75840
C         -3.88570        7.51200        8.26040
C         -2.83090        6.47300        7.85850
C         -5.19580        6.71790        8.07180
H          8.29610       -3.65690       -3.97900
H         10.85670       -1.00430       -0.29230
H          6.59090       -2.61670        1.91990
H          8.56210       -0.92590        4.18380
H          6.55110        0.64140        3.41080
H          7.95200        1.92350        5.23020
H         10.18660        2.79540        4.08840
H         10.16070        2.05480        1.56830
H          7.56740        2.51000        1.83600
H          7.77320        0.93190        1.04120
H         10.75370       -0.06770        3.06760
H          6.07540       -3.64640       -7.03140
H          7.54740       -3.97110       -6.09080
H          7.61930       -1.55510       -5.42340
H          7.61250       -1.72220       -7.18240
H          6.12930       -1.27020       -6.33550
H          2.56930        0.52190       -4.09580
H          1.33720        2.67230       -4.01030
H         -2.94360        2.08910       -5.18530
H         -3.37950        3.81460       -5.24470
H         -2.84880        2.99850       -6.72860
H         -1.36160        1.21460       -6.98830
H         -0.13870       -0.91110       -7.06170
H          1.79250       -4.20410       -6.16740
H          2.88550       -5.16530       -8.11300
H          3.36220       -5.96530      -10.25760
H          4.99860       -6.07150      -10.94040
H          4.79130       -6.03980       -9.17510
H          4.29710       -1.28840       -9.24380
H          3.17850       -0.31430       -7.27470
H         -3.06390       -3.25920       -2.12780
H         -5.45500       -3.20890       -1.61370
H         -8.20220       -2.81980        2.67720
H         -6.72670       -3.70490        3.11920
H         -6.65680       -1.94490        2.74420
H         -4.55690       -3.26240        2.57020
H         -2.16590       -3.31150        2.04700
H         -2.01710       -5.73520        0.08450
H         -0.75500       -7.66620        0.93280
H          3.85890       -7.38110        0.48300
H          3.95610       -6.91030        2.20880
H          4.17780       -8.60760        1.72970
H          2.75820       -5.24140        1.22030
H          1.49840       -3.32720        0.41270
H          0.78610       -1.44150        2.42080
H          3.12720       -1.84350        1.77890
H          4.19990       -0.99560       -2.81160
H          4.82650        0.53770       -2.11470
H          5.91970       -0.83320       -2.39890
H          2.50530        0.38380       -1.81800
H          0.22060        0.83610       -1.15310
H          0.42760        1.47380        2.60460
H         -0.06240        2.04460        4.95180
H         -2.52470       -1.01080        7.15950
H         -2.99330        0.05590        8.50490
H         -4.05140       -0.06900        7.08090
H         -3.50670       -0.48420        4.84490
H         -3.05010       -1.00550        2.49880
H         -6.69710        0.05290       -0.37470
H         -7.63770       -1.87830       -1.50540
H         -9.15790       -4.36130       -3.66930
H         -7.82570       -3.90950       -2.58390
H         -9.41110       -3.08810       -2.45440
H         -7.32230        0.15630       -5.26070
H         -6.38670        2.12740       -4.10320
H         -8.41990        2.96530       -2.16860
H         -9.26010        5.24390       -2.59090
H         -6.73180        8.47750       -0.63890
H         -6.02300        9.01680       -2.19760
H         -7.45400        9.83360       -1.53720
H         -5.35260        6.81840       -1.85460
H         -4.51730        4.56150       -1.45750
H         -6.08970        4.45050        0.61590
H         -6.09660        7.43920        5.07060
H         -4.76600        2.77940        6.55270
H         -5.37290        4.77990        9.28310
H         -2.74390        4.50410        8.94570
H         -3.16420        5.92550       11.12130
H         -3.85810        8.38040       10.38150
H         -3.85930        8.47460        7.75630
H         -1.81740        6.81770        8.05680
H         -2.90580        6.13800        6.82580
H         -6.05180        7.18650        8.55400
