
  xtb     02092208343D
 energy: -384.369987020021 gnorm: 0.000556272211 xtb: 6.4.1 (unknown)
230255  0     0  0            999 V2000
   -2.9424   -7.9425   -6.9932 C   0  0  0  0  0  0  0  0  0  0  0  0
   -3.5169   -7.5314   -8.1583 C   0  0  0  0  0  0  0  0  0  0  0  0
   -3.5498   -6.1647   -8.7429 C   0  0  0  0  0  0  0  0  0  0  0  0
   -2.8403   -5.2130   -8.4970 O   0  0  0  0  0  0  0  0  0  0  0  0
   -4.6606   -6.1782   -9.7127 C   0  0  0  0  0  0  0  0  0  0  0  0
   -5.1561   -5.0848  -10.4198 C   0  0  0  0  0  0  0  0  0  0  0  0
   -6.2086   -5.3864  -11.2492 C   0  0  0  0  0  0  0  0  0  0  0  0
   -6.7342   -6.6810  -11.3668 C   0  0  0  0  0  0  0  0  0  0  0  0
   -6.2542   -7.7681  -10.6767 C   0  0  0  0  0  0  0  0  0  0  0  0
   -5.1789   -7.4829   -9.8295 C   0  0  0  0  0  0  0  0  0  0  0  0
   -4.4175   -8.3602   -8.9486 C   0  0  0  0  0  0  0  0  0  0  0  0
   -4.4779   -9.7277   -8.9354 C   0  0  0  0  0  0  0  0  0  0  0  0
   -3.6529  -10.5700   -8.1583 C   0  0  0  0  0  0  0  0  0  0  0  0
   -3.0100  -11.3241   -7.5784 N   0  0  0  0  0  0  0  0  0  0  0  0
   -5.3399  -10.4925   -9.7497 C   0  0  0  0  0  0  0  0  0  0  0  0
   -6.0153  -11.1749  -10.3788 N   0  0  0  0  0  0  0  0  0  0  0  0
   -7.7734   -6.2530  -12.3723 C   0  0  0  0  0  0  0  0  0  0  0  0
   -7.5183   -6.5928  -13.8616 C   0  0  0  0  0  0  0  0  0  0  0  0
   -6.0220   -6.6860  -14.0301 C   0  0  0  0  0  0  0  0  0  0  0  0
   -5.5249   -5.4614  -13.9195 C   0  0  0  0  0  0  0  0  0  0  0  0
   -6.6763   -4.5178  -13.6735 C   0  0  0  0  0  0  0  0  0  0  0  0
   -7.7766   -5.2140  -14.4900 C   0  0  0  0  0  0  0  0  0  0  0  0
   -7.1877   -4.8116  -12.2415 C   0  0  0  0  0  0  0  0  0  0  0  0
   -2.0811   -7.2489   -6.1081 C   0  0  0  0  0  0  0  0  0  0  0  0
   -1.3221   -6.1207   -6.2709 C   0  0  0  0  0  0  0  0  0  0  0  0
   -0.6250   -5.7317   -5.1077 C   0  0  0  0  0  0  0  0  0  0  0  0
    0.1460   -4.5657   -4.9322 C   0  0  0  0  0  0  0  0  0  0  0  0
    0.5114   -3.7361   -6.0827 C   0  0  0  0  0  0  0  0  0  0  0  0
    0.3851   -2.3509   -6.0688 C   0  0  0  0  0  0  0  0  0  0  0  0
    0.7459   -1.5876   -7.1618 C   0  0  0  0  0  0  0  0  0  0  0  0
    1.2665   -2.1801   -8.3064 C   0  0  0  0  0  0  0  0  0  0  0  0
    1.7606   -1.3326   -9.7674 S   0  0  0  0  0  0  0  0  0  0  0  0
    1.8693    0.4169   -9.2552 C   0  0  0  0  0  0  0  0  0  0  0  0
    3.0398    0.6733   -8.3250 C   0  0  0  0  0  0  0  0  0  0  0  0
    1.3869   -3.5717   -8.3082 C   0  0  0  0  0  0  0  0  0  0  0  0
    1.8918   -4.1823   -9.3985 F   0  0  0  0  0  0  0  0  0  0  0  0
    1.0194   -4.3445   -7.2319 C   0  0  0  0  0  0  0  0  0  0  0  0
    0.5235   -4.2748   -3.6320 C   0  0  0  0  0  0  0  0  0  0  0  0
    0.2744   -5.1390   -2.5332 C   0  0  0  0  0  0  0  0  0  0  0  0
   -0.4156   -6.3471   -2.7275 C   0  0  0  0  0  0  0  0  0  0  0  0
   -0.7060   -7.2793   -1.6299 C   0  0  0  0  0  0  0  0  0  0  0  0
   -0.4496   -8.6426   -1.7721 C   0  0  0  0  0  0  0  0  0  0  0  0
   -0.7334   -9.5226   -0.7505 C   0  0  0  0  0  0  0  0  0  0  0  0
   -1.3001   -9.0901    0.4475 C   0  0  0  0  0  0  0  0  0  0  0  0
   -1.6697  -10.3197    1.6617 S   0  0  0  0  0  0  0  0  0  0  0  0
   -1.2402   -9.5192    3.2525 C   0  0  0  0  0  0  0  0  0  0  0  0
    0.2067   -9.0733    3.2888 C   0  0  0  0  0  0  0  0  0  0  0  0
   -1.5825   -7.7326    0.5627 C   0  0  0  0  0  0  0  0  0  0  0  0
   -1.2810   -6.8367   -0.4428 C   0  0  0  0  0  0  0  0  0  0  0  0
   -2.1814   -7.2348    1.6683 F   0  0  0  0  0  0  0  0  0  0  0  0
   -0.8704   -6.6013   -4.0147 C   0  0  0  0  0  0  0  0  0  0  0  0
   -1.9005   -7.9220   -4.4863 S   0  0  0  0  0  0  0  0  0  0  0  0
    0.7304   -4.5810   -1.3105 C   0  0  0  0  0  0  0  0  0  0  0  0
    1.2175   -3.3177   -1.4394 C   0  0  0  0  0  0  0  0  0  0  0  0
    1.3232   -2.8150   -3.1149 S   0  0  0  0  0  0  0  0  0  0  0  0
    1.4783   -2.3641   -0.3986 C   0  0  0  0  0  0  0  0  0  0  0  0
    0.9170   -1.1022   -0.3093 C   0  0  0  0  0  0  0  0  0  0  0  0
   -0.0124   -0.5578   -1.1814 N   0  0  0  0  0  0  0  0  0  0  0  0
   -0.0009    0.8320   -1.3709 C   0  0  0  0  0  0  0  0  0  0  0  0
    1.2108    1.5079   -1.5192 C   0  0  0  0  0  0  0  0  0  0  0  0
    1.2302    2.8797   -1.6349 C   0  0  0  0  0  0  0  0  0  0  0  0
    0.0418    3.6060   -1.6142 C   0  0  0  0  0  0  0  0  0  0  0  0
    0.1862    5.3602   -1.7492 S   0  0  0  0  0  0  0  0  0  0  0  0
   -1.4840    5.9637   -1.3774 C   0  0  0  0  0  0  0  0  0  0  0  0
   -1.1683    2.9339   -1.5043 C   0  0  0  0  0  0  0  0  0  0  0  0
   -1.1874    1.5587   -1.3809 C   0  0  0  0  0  0  0  0  0  0  0  0
   -1.0022   -1.3500   -1.7753 C   0  0  0  0  0  0  0  0  0  0  0  0
   -1.5542   -2.4370   -1.1025 C   0  0  0  0  0  0  0  0  0  0  0  0
   -2.4310   -3.2926   -1.7412 C   0  0  0  0  0  0  0  0  0  0  0  0
   -2.7720   -3.0790   -3.0687 C   0  0  0  0  0  0  0  0  0  0  0  0
   -3.7668   -4.1765   -4.0280 S   0  0  0  0  0  0  0  0  0  0  0  0
   -4.1960   -5.5067   -2.8694 C   0  0  0  0  0  0  0  0  0  0  0  0
   -2.2948   -1.9408   -3.7171 C   0  0  0  0  0  0  0  0  0  0  0  0
   -1.4261   -1.0841   -3.0792 C   0  0  0  0  0  0  0  0  0  0  0  0
    1.3530   -0.4444    0.8671 C   0  0  0  0  0  0  0  0  0  0  0  0
    1.0633    1.1183    1.5316 S   0  0  0  0  0  0  0  0  0  0  0  0
    2.0632    0.7359    2.9325 C   0  0  0  0  0  0  0  0  0  0  0  0
    2.6171   -0.5346    2.8528 C   0  0  0  0  0  0  0  0  0  0  0  0
    3.4984   -1.1143    3.7503 N   0  0  0  0  0  0  0  0  0  0  0  0
    3.3903   -2.4971    3.9656 C   0  0  0  0  0  0  0  0  0  0  0  0
    2.1324   -3.0837    4.1104 C   0  0  0  0  0  0  0  0  0  0  0  0
    2.0163   -4.4443    4.2829 C   0  0  0  0  0  0  0  0  0  0  0  0
    3.1525   -5.2497    4.3254 C   0  0  0  0  0  0  0  0  0  0  0  0
    2.8788   -6.9787    4.5514 S   0  0  0  0  0  0  0  0  0  0  0  0
    4.5307   -7.7137    4.3999 C   0  0  0  0  0  0  0  0  0  0  0  0
    4.4070   -4.6685    4.1991 C   0  0  0  0  0  0  0  0  0  0  0  0
    4.5223   -3.3047    4.0152 C   0  0  0  0  0  0  0  0  0  0  0  0
    4.5393   -0.3870    4.3332 C   0  0  0  0  0  0  0  0  0  0  0  0
    4.9954   -0.7191    5.6074 C   0  0  0  0  0  0  0  0  0  0  0  0
    5.9907    0.0187    6.2163 C   0  0  0  0  0  0  0  0  0  0  0  0
    6.5396    1.1174    5.5682 C   0  0  0  0  0  0  0  0  0  0  0  0
    7.7766    2.1654    6.2688 S   0  0  0  0  0  0  0  0  0  0  0  0
    7.8563    1.6440    8.0065 C   0  0  0  0  0  0  0  0  0  0  0  0
    6.1066    1.4362    4.2825 C   0  0  0  0  0  0  0  0  0  0  0  0
    5.1279    0.6893    3.6672 C   0  0  0  0  0  0  0  0  0  0  0  0
    2.1874   -1.1981    1.6719 C   0  0  0  0  0  0  0  0  0  0  0  0
    2.4682   -2.7679    0.9944 S   0  0  0  0  0  0  0  0  0  0  0  0
    2.1505    1.7636    3.9158 C   0  0  0  0  0  0  0  0  0  0  0  0
    1.8107    3.0709    3.6968 C   0  0  0  0  0  0  0  0  0  0  0  0
    1.9345    3.8984    4.8317 C   0  0  0  0  0  0  0  0  0  0  0  0
    1.6330    5.2728    4.9373 C   0  0  0  0  0  0  0  0  0  0  0  0
    1.1497    6.0480    3.8129 C   0  0  0  0  0  0  0  0  0  0  0  0
    1.5673    6.0008    2.5142 C   0  0  0  0  0  0  0  0  0  0  0  0
    0.8690    6.8386    1.6157 C   0  0  0  0  0  0  0  0  0  0  0  0
   -0.1393    7.5731    2.1582 C   0  0  0  0  0  0  0  0  0  0  0  0
   -1.0520    8.5199    1.4474 C   0  0  0  0  0  0  0  0  0  0  0  0
   -1.3610    9.7560    2.2857 C   0  0  0  0  0  0  0  0  0  0  0  0
   -0.2904    7.2568    4.0036 Se  0  0  0  0  0  2  0  0  0  0  0  0
    1.7583    5.8185    6.2058 C   0  0  0  0  0  0  0  0  0  0  0  0
    2.1374    5.0891    7.3603 C   0  0  0  0  0  0  0  0  0  0  0  0
    2.4650    3.7198    7.2462 C   0  0  0  0  0  0  0  0  0  0  0  0
    2.8663    2.8995    8.3702 C   0  0  0  0  0  0  0  0  0  0  0  0
    3.8202    1.9206    8.3492 C   0  0  0  0  0  0  0  0  0  0  0  0
    3.9791    1.1963    9.5505 C   0  0  0  0  0  0  0  0  0  0  0  0
    3.1492    1.5519   10.5680 C   0  0  0  0  0  0  0  0  0  0  0  0
    3.0893    0.9570   11.9363 C   0  0  0  0  0  0  0  0  0  0  0  0
    1.6909    0.4393   12.2665 C   0  0  0  0  0  0  0  0  0  0  0  0
    2.0179    2.9560   10.0526 Se  0  0  0  0  0  2  0  0  0  0  0  0
    2.3583    3.1714    5.9713 C   0  0  0  0  0  0  0  0  0  0  0  0
    2.6132    1.4895    5.5800 S   0  0  0  0  0  0  0  0  0  0  0  0
    2.1170    5.9014    8.5164 C   0  0  0  0  0  0  0  0  0  0  0  0
    1.6953    7.1848    8.2892 C   0  0  0  0  0  0  0  0  0  0  0  0
    1.4452    7.4846    6.5793 S   0  0  0  0  0  0  0  0  0  0  0  0
    1.4878    8.2042    9.2579 C   0  0  0  0  0  0  0  0  0  0  0  0
    0.6945    9.2996    9.1400 C   0  0  0  0  0  0  0  0  0  0  0  0
    0.8964   10.4846   10.0181 C   0  0  0  0  0  0  0  0  0  0  0  0
    1.5087   10.5212   11.0611 O   0  0  0  0  0  0  0  0  0  0  0  0
    0.2499   11.6044    9.3046 C   0  0  0  0  0  0  0  0  0  0  0  0
    0.2703   12.9525    9.6566 C   0  0  0  0  0  0  0  0  0  0  0  0
   -0.4035   13.7710    8.7825 C   0  0  0  0  0  0  0  0  0  0  0  0
   -1.0525   13.2905    7.6361 C   0  0  0  0  0  0  0  0  0  0  0  0
   -1.0922   11.9638    7.2806 C   0  0  0  0  0  0  0  0  0  0  0  0
   -0.4134   11.1148    8.1582 C   0  0  0  0  0  0  0  0  0  0  0  0
   -0.2898    9.6627    8.1380 C   0  0  0  0  0  0  0  0  0  0  0  0
   -1.1255    8.7952    7.4850 C   0  0  0  0  0  0  0  0  0  0  0  0
   -2.0252    9.1613    6.4674 C   0  0  0  0  0  0  0  0  0  0  0  0
   -2.7280    9.3866    5.5864 N   0  0  0  0  0  0  0  0  0  0  0  0
   -1.1882    7.4178    7.7931 C   0  0  0  0  0  0  0  0  0  0  0  0
   -1.3141    6.3120    8.0743 N   0  0  0  0  0  0  0  0  0  0  0  0
   -1.5005   14.6674    7.2155 C   0  0  0  0  0  0  0  0  0  0  0  0
   -0.7227   15.3608    6.0696 C   0  0  0  0  0  0  0  0  0  0  0  0
    0.6727   14.7878    6.0893 C   0  0  0  0  0  0  0  0  0  0  0  0
    1.2825   15.2441    7.1752 C   0  0  0  0  0  0  0  0  0  0  0  0
    0.3100   16.1331    7.9100 C   0  0  0  0  0  0  0  0  0  0  0  0
   -0.4635   16.7280    6.7223 C   0  0  0  0  0  0  0  0  0  0  0  0
   -0.7819   15.2026    8.4940 C   0  0  0  0  0  0  0  0  0  0  0  0
   -3.2193   -8.9287   -6.6366 H   0  0  0  0  0  0  0  0  0  0  0  0
   -4.7239   -4.1043  -10.2959 H   0  0  0  0  0  0  0  0  0  0  0  0
   -6.6742   -8.7559  -10.7692 H   0  0  0  0  0  0  0  0  0  0  0  0
   -8.8104   -6.4106  -12.0825 H   0  0  0  0  0  0  0  0  0  0  0  0
   -8.0970   -7.4319  -14.2382 H   0  0  0  0  0  0  0  0  0  0  0  0
   -5.4902   -7.6113  -14.1514 H   0  0  0  0  0  0  0  0  0  0  0  0
   -4.4943   -5.1586  -13.9292 H   0  0  0  0  0  0  0  0  0  0  0  0
   -6.4888   -3.4671  -13.8791 H   0  0  0  0  0  0  0  0  0  0  0  0
   -7.5810   -5.1962  -15.5610 H   0  0  0  0  0  0  0  0  0  0  0  0
   -8.7752   -4.8266  -14.2919 H   0  0  0  0  0  0  0  0  0  0  0  0
   -7.8422   -4.0277  -11.8651 H   0  0  0  0  0  0  0  0  0  0  0  0
   -1.3032   -5.5598   -7.1856 H   0  0  0  0  0  0  0  0  0  0  0  0
   -0.0306   -1.8630   -5.2025 H   0  0  0  0  0  0  0  0  0  0  0  0
    0.6082   -0.5196   -7.1144 H   0  0  0  0  0  0  0  0  0  0  0  0
    0.9164    0.7143   -8.8196 H   0  0  0  0  0  0  0  0  0  0  0  0
    1.9999    0.9489  -10.1976 H   0  0  0  0  0  0  0  0  0  0  0  0
    3.9710    0.3871   -8.8081 H   0  0  0  0  0  0  0  0  0  0  0  0
    3.0884    1.7312   -8.0740 H   0  0  0  0  0  0  0  0  0  0  0  0
    2.9414    0.1017   -7.4046 H   0  0  0  0  0  0  0  0  0  0  0  0
    1.1582   -5.4130   -7.2832 H   0  0  0  0  0  0  0  0  0  0  0  0
    0.0005   -9.0097   -2.6812 H   0  0  0  0  0  0  0  0  0  0  0  0
   -0.5200  -10.5739   -0.8626 H   0  0  0  0  0  0  0  0  0  0  0  0
   -1.4283  -10.3058    3.9832 H   0  0  0  0  0  0  0  0  0  0  0  0
   -1.9276   -8.6962    3.4341 H   0  0  0  0  0  0  0  0  0  0  0  0
    0.3932   -8.2889    2.5580 H   0  0  0  0  0  0  0  0  0  0  0  0
    0.4488   -8.6807    4.2738 H   0  0  0  0  0  0  0  0  0  0  0  0
    0.8695   -9.9086    3.0734 H   0  0  0  0  0  0  0  0  0  0  0  0
   -1.5351   -5.7982   -0.2985 H   0  0  0  0  0  0  0  0  0  0  0  0
    0.6438   -5.0685   -0.3566 H   0  0  0  0  0  0  0  0  0  0  0  0
    2.1340    0.9478   -1.5371 H   0  0  0  0  0  0  0  0  0  0  0  0
    2.1663    3.4061   -1.7408 H   0  0  0  0  0  0  0  0  0  0  0  0
   -1.4077    7.0462   -1.3612 H   0  0  0  0  0  0  0  0  0  0  0  0
   -2.1770    5.6575   -2.1558 H   0  0  0  0  0  0  0  0  0  0  0  0
   -1.7929    5.6000   -0.4018 H   0  0  0  0  0  0  0  0  0  0  0  0
   -2.1044    3.4682   -1.4992 H   0  0  0  0  0  0  0  0  0  0  0  0
   -2.1299    1.0415   -1.2776 H   0  0  0  0  0  0  0  0  0  0  0  0
   -1.2861   -2.6186   -0.0721 H   0  0  0  0  0  0  0  0  0  0  0  0
   -2.8419   -4.1244   -1.1930 H   0  0  0  0  0  0  0  0  0  0  0  0
   -4.7927   -5.1117   -2.0523 H   0  0  0  0  0  0  0  0  0  0  0  0
   -3.2962   -5.9933   -2.5043 H   0  0  0  0  0  0  0  0  0  0  0  0
   -4.7851   -6.2141   -3.4450 H   0  0  0  0  0  0  0  0  0  0  0  0
   -2.5967   -1.7572   -4.7370 H   0  0  0  0  0  0  0  0  0  0  0  0
   -1.0408   -0.2150   -3.5922 H   0  0  0  0  0  0  0  0  0  0  0  0
    1.2494   -2.4624    4.0879 H   0  0  0  0  0  0  0  0  0  0  0  0
    1.0445   -4.9007    4.3918 H   0  0  0  0  0  0  0  0  0  0  0  0
    4.3794   -8.7864    4.4703 H   0  0  0  0  0  0  0  0  0  0  0  0
    5.1664   -7.3782    5.2142 H   0  0  0  0  0  0  0  0  0  0  0  0
    4.9580   -7.4636    3.4334 H   0  0  0  0  0  0  0  0  0  0  0  0
    5.3041   -5.2654    4.2309 H   0  0  0  0  0  0  0  0  0  0  0  0
    5.4998   -2.8602    3.9008 H   0  0  0  0  0  0  0  0  0  0  0  0
    4.5499   -1.5505    6.1323 H   0  0  0  0  0  0  0  0  0  0  0  0
    6.3180   -0.2659    7.2033 H   0  0  0  0  0  0  0  0  0  0  0  0
    6.8726    1.7217    8.4601 H   0  0  0  0  0  0  0  0  0  0  0  0
    8.2510    0.6346    8.0795 H   0  0  0  0  0  0  0  0  0  0  0  0
    8.5389    2.3386    8.4862 H   0  0  0  0  0  0  0  0  0  0  0  0
    6.5494    2.2789    3.7741 H   0  0  0  0  0  0  0  0  0  0  0  0
    4.8038    0.9462    2.6699 H   0  0  0  0  0  0  0  0  0  0  0  0
    1.4676    3.4222    2.7407 H   0  0  0  0  0  0  0  0  0  0  0  0
    2.4107    5.4084    2.2002 H   0  0  0  0  0  0  0  0  0  0  0  0
    1.1266    6.8875    0.5704 H   0  0  0  0  0  0  0  0  0  0  0  0
   -1.9915    8.0097    1.2095 H   0  0  0  0  0  0  0  0  0  0  0  0
   -0.5823    8.8111    0.5039 H   0  0  0  0  0  0  0  0  0  0  0  0
   -1.8608    9.4659    3.2116 H   0  0  0  0  0  0  0  0  0  0  0  0
   -0.4407   10.2787    2.5399 H   0  0  0  0  0  0  0  0  0  0  0  0
   -2.0113   10.4357    1.7404 H   0  0  0  0  0  0  0  0  0  0  0  0
    4.4319    1.7353    7.4822 H   0  0  0  0  0  0  0  0  0  0  0  0
    4.7067    0.4072    9.6520 H   0  0  0  0  0  0  0  0  0  0  0  0
    3.8131    0.1407   11.9945 H   0  0  0  0  0  0  0  0  0  0  0  0
    3.3737    1.7113   12.6769 H   0  0  0  0  0  0  0  0  0  0  0  0
    0.9709    1.2567   12.2198 H   0  0  0  0  0  0  0  0  0  0  0  0
    1.6677    0.0131   13.2664 H   0  0  0  0  0  0  0  0  0  0  0  0
    1.3911   -0.3246   11.5527 H   0  0  0  0  0  0  0  0  0  0  0  0
    2.3587    5.5512    9.5058 H   0  0  0  0  0  0  0  0  0  0  0  0
    2.0696    8.1294   10.1707 H   0  0  0  0  0  0  0  0  0  0  0  0
    0.7789   13.2852   10.5479 H   0  0  0  0  0  0  0  0  0  0  0  0
   -1.5896   11.5989    6.3965 H   0  0  0  0  0  0  0  0  0  0  0  0
   -2.5757   14.8147    7.1349 H   0  0  0  0  0  0  0  0  0  0  0  0
   -1.2317   15.3522    5.1094 H   0  0  0  0  0  0  0  0  0  0  0  0
    1.0421   14.0853    5.3653 H   0  0  0  0  0  0  0  0  0  0  0  0
    2.2631   14.9992    7.5391 H   0  0  0  0  0  0  0  0  0  0  0  0
    0.7410   16.8285    8.6254 H   0  0  0  0  0  0  0  0  0  0  0  0
    0.1512   17.3804    6.1039 H   0  0  0  0  0  0  0  0  0  0  0  0
   -1.3742   17.2489    7.0146 H   0  0  0  0  0  0  0  0  0  0  0  0
   -1.3889   15.6978    9.2495 H   0  0  0  0  0  0  0  0  0  0  0  0
  1  2  2  0  0  0  0
  2  3  1  0  0  0  0
  3  4  2  0  0  0  0
  3  5  1  0  0  0  0
  5  6  2  0  0  0  0
  6  7  1  0  0  0  0
  7  8  2  0  0  0  0
  8  9  1  0  0  0  0
  9 10  2  0  0  0  0
 10 11  1  0  0  0  0
 11 12  2  0  0  0  0
 12 13  1  0  0  0  0
 13 14  3  0  0  0  0
 12 15  1  0  0  0  0
 15 16  3  0  0  0  0
  8 17  1  0  0  0  0
 17 18  1  0  0  0  0
 18 19  1  0  0  0  0
 19 20  2  0  0  0  0
 20 21  1  0  0  0  0
 21 22  1  0  0  0  0
 21 23  1  0  0  0  0
  1 24  1  0  0  0  0
 24 25  2  0  0  0  0
 25 26  1  0  0  0  0
 26 27  2  0  0  0  0
 27 28  1  0  0  0  0
 28 29  2  0  0  0  0
 29 30  1  0  0  0  0
 30 31  2  0  0  0  0
 31 32  1  0  0  0  0
 32 33  1  0  0  0  0
 33 34  1  0  0  0  0
 31 35  1  0  0  0  0
 35 36  1  0  0  0  0
 35 37  2  0  0  0  0
 27 38  1  0  0  0  0
 38 39  2  0  0  0  0
 39 40  1  0  0  0  0
 40 41  1  0  0  0  0
 41 42  2  0  0  0  0
 42 43  1  0  0  0  0
 43 44  2  0  0  0  0
 44 45  1  0  0  0  0
 45 46  1  0  0  0  0
 46 47  1  0  0  0  0
 44 48  1  0  0  0  0
 48 49  2  0  0  0  0
 48 50  1  0  0  0  0
 40 51  2  0  0  0  0
 51 52  1  0  0  0  0
 39 53  1  0  0  0  0
 53 54  2  0  0  0  0
 54 55  1  0  0  0  0
 54 56  1  0  0  0  0
 56 57  2  0  0  0  0
 57 58  1  0  0  0  0
 58 59  1  0  0  0  0
 59 60  2  0  0  0  0
 60 61  1  0  0  0  0
 61 62  2  0  0  0  0
 62 63  1  0  0  0  0
 63 64  1  0  0  0  0
 62 65  1  0  0  0  0
 65 66  2  0  0  0  0
 58 67  1  0  0  0  0
 67 68  2  0  0  0  0
 68 69  1  0  0  0  0
 69 70  2  0  0  0  0
 70 71  1  0  0  0  0
 71 72  1  0  0  0  0
 70 73  1  0  0  0  0
 73 74  2  0  0  0  0
 57 75  1  0  0  0  0
 75 76  1  0  0  0  0
 76 77  1  0  0  0  0
 77 78  2  0  0  0  0
 78 79  1  0  0  0  0
 79 80  1  0  0  0  0
 80 81  2  0  0  0  0
 81 82  1  0  0  0  0
 82 83  2  0  0  0  0
 83 84  1  0  0  0  0
 84 85  1  0  0  0  0
 83 86  1  0  0  0  0
 86 87  2  0  0  0  0
 79 88  1  0  0  0  0
 88 89  2  0  0  0  0
 89 90  1  0  0  0  0
 90 91  2  0  0  0  0
 91 92  1  0  0  0  0
 92 93  1  0  0  0  0
 91 94  1  0  0  0  0
 94 95  2  0  0  0  0
 78 96  1  0  0  0  0
 96 97  1  0  0  0  0
 77 98  1  0  0  0  0
 98 99  2  0  0  0  0
 99100  1  0  0  0  0
100101  2  0  0  0  0
101102  1  0  0  0  0
102103  2  0  0  0  0
103104  1  0  0  0  0
104105  2  0  0  0  0
105106  1  0  0  0  0
106107  1  0  0  0  0
105108  1  0  0  0  0
101109  1  0  0  0  0
109110  2  0  0  0  0
110111  1  0  0  0  0
111112  1  0  0  0  0
112113  2  0  0  0  0
113114  1  0  0  0  0
114115  2  0  0  0  0
115116  1  0  0  0  0
116117  1  0  0  0  0
115118  1  0  0  0  0
111119  2  0  0  0  0
119120  1  0  0  0  0
110121  1  0  0  0  0
121122  2  0  0  0  0
122123  1  0  0  0  0
122124  1  0  0  0  0
124125  2  0  0  0  0
125126  1  0  0  0  0
126127  2  0  0  0  0
126128  1  0  0  0  0
128129  2  0  0  0  0
129130  1  0  0  0  0
130131  2  0  0  0  0
131132  1  0  0  0  0
132133  2  0  0  0  0
133134  1  0  0  0  0
134135  2  0  0  0  0
135136  1  0  0  0  0
136137  3  0  0  0  0
135138  1  0  0  0  0
138139  3  0  0  0  0
131140  1  0  0  0  0
140141  1  0  0  0  0
141142  1  0  0  0  0
142143  2  0  0  0  0
143144  1  0  0  0  0
144145  1  0  0  0  0
144146  1  0  0  0  0
 11  2  1  0  0  0  0
 23 17  1  0  0  0  0
 52 24  1  0  0  0  0
 97 56  1  0  0  0  0
120 98  1  0  0  0  0
134125  1  0  0  0  0
146140  1  0  0  0  0
 10  5  1  0  0  0  0
 22 18  1  0  0  0  0
 51 26  1  0  0  0  0
 66 59  1  0  0  0  0
 74 67  1  0  0  0  0
 96 75  2  0  0  0  0
119100  1  0  0  0  0
133128  1  0  0  0  0
145141  1  0  0  0  0
 23  7  1  0  0  0  0
 37 28  1  0  0  0  0
 55 38  1  0  0  0  0
 87 80  1  0  0  0  0
 95 88  1  0  0  0  0
108102  1  0  0  0  0
123109  1  0  0  0  0
146130  1  0  0  0  0
 49 41  1  0  0  0  0
118112  1  0  0  0  0
  1147  1  0  0  0  0
  6148  1  0  0  0  0
  9149  1  0  0  0  0
 17150  1  0  0  0  0
 18151  1  0  0  0  0
 19152  1  0  0  0  0
 20153  1  0  0  0  0
 21154  1  0  0  0  0
 22155  1  0  0  0  0
 22156  1  0  0  0  0
 23157  1  0  0  0  0
 25158  1  0  0  0  0
 29159  1  0  0  0  0
 30160  1  0  0  0  0
 33161  1  0  0  0  0
 33162  1  0  0  0  0
 34163  1  0  0  0  0
 34164  1  0  0  0  0
 34165  1  0  0  0  0
 37166  1  0  0  0  0
 42167  1  0  0  0  0
 43168  1  0  0  0  0
 46169  1  0  0  0  0
 46170  1  0  0  0  0
 47171  1  0  0  0  0
 47172  1  0  0  0  0
 47173  1  0  0  0  0
 49174  1  0  0  0  0
 53175  1  0  0  0  0
 60176  1  0  0  0  0
 61177  1  0  0  0  0
 64178  1  0  0  0  0
 64179  1  0  0  0  0
 64180  1  0  0  0  0
 65181  1  0  0  0  0
 66182  1  0  0  0  0
 68183  1  0  0  0  0
 69184  1  0  0  0  0
 72185  1  0  0  0  0
 72186  1  0  0  0  0
 72187  1  0  0  0  0
 73188  1  0  0  0  0
 74189  1  0  0  0  0
 81190  1  0  0  0  0
 82191  1  0  0  0  0
 85192  1  0  0  0  0
 85193  1  0  0  0  0
 85194  1  0  0  0  0
 86195  1  0  0  0  0
 87196  1  0  0  0  0
 89197  1  0  0  0  0
 90198  1  0  0  0  0
 93199  1  0  0  0  0
 93200  1  0  0  0  0
 93201  1  0  0  0  0
 94202  1  0  0  0  0
 95203  1  0  0  0  0
 99204  1  0  0  0  0
103205  1  0  0  0  0
104206  1  0  0  0  0
106207  1  0  0  0  0
106208  1  0  0  0  0
107209  1  0  0  0  0
107210  1  0  0  0  0
107211  1  0  0  0  0
113212  1  0  0  0  0
114213  1  0  0  0  0
116214  1  0  0  0  0
116215  1  0  0  0  0
117216  1  0  0  0  0
117217  1  0  0  0  0
117218  1  0  0  0  0
121219  1  0  0  0  0
124220  1  0  0  0  0
129221  1  0  0  0  0
132222  1  0  0  0  0
140223  1  0  0  0  0
141224  1  0  0  0  0
142225  1  0  0  0  0
143226  1  0  0  0  0
144227  1  0  0  0  0
145228  1  0  0  0  0
145229  1  0  0  0  0
146230  1  0  0  0  0
M  END
