
  xtb     02082223463D
 energy: -369.905310175833 gnorm: 0.000981468720 xtb: 6.4.1 (unknown)
218241  0     0  0            999 V2000
   10.3983    3.1280    2.1842 C   0  0  0  0  0  0  0  0  0  0  0  0
   11.0300    3.7893    3.1958 C   0  0  0  0  0  0  0  0  0  0  0  0
   10.4384    4.1734    4.4922 C   0  0  0  0  0  0  0  0  0  0  0  0
    9.3654    3.8289    4.9468 O   0  0  0  0  0  0  0  0  0  0  0  0
   11.4153    5.0648    5.1379 C   0  0  0  0  0  0  0  0  0  0  0  0
   11.2573    5.7415    6.3450 C   0  0  0  0  0  0  0  0  0  0  0  0
   12.3290    6.5304    6.6868 C   0  0  0  0  0  0  0  0  0  0  0  0
   13.4731    6.6420    5.8842 C   0  0  0  0  0  0  0  0  0  0  0  0
   13.6423    5.9781    4.6928 C   0  0  0  0  0  0  0  0  0  0  0  0
   12.5657    5.1636    4.3281 C   0  0  0  0  0  0  0  0  0  0  0  0
   12.3789    4.3277    3.1454 C   0  0  0  0  0  0  0  0  0  0  0  0
   13.3294    4.0765    2.1900 C   0  0  0  0  0  0  0  0  0  0  0  0
   13.1682    3.2336    1.0705 C   0  0  0  0  0  0  0  0  0  0  0  0
   13.1252    2.5676    0.1349 N   0  0  0  0  0  0  0  0  0  0  0  0
   14.6367    4.6073    2.2064 C   0  0  0  0  0  0  0  0  0  0  0  0
   15.7180    4.9903    2.1564 N   0  0  0  0  0  0  0  0  0  0  0  0
   14.1420    7.6042    6.8334 C   0  0  0  0  0  0  0  0  0  0  0  0
   15.2627    7.0521    7.7484 C   0  0  0  0  0  0  0  0  0  0  0  0
   14.9778    5.5823    7.9349 C   0  0  0  0  0  0  0  0  0  0  0  0
   13.8965    5.4729    8.6952 C   0  0  0  0  0  0  0  0  0  0  0  0
   13.4307    6.8667    9.0369 C   0  0  0  0  0  0  0  0  0  0  0  0
   14.7824    7.5954    9.1037 C   0  0  0  0  0  0  0  0  0  0  0  0
   12.8692    7.4770    7.7287 C   0  0  0  0  0  0  0  0  0  0  0  0
    9.0769    2.6367    2.0942 C   0  0  0  0  0  0  0  0  0  0  0  0
    8.5863    2.1008    0.9192 C   0  0  0  0  0  0  0  0  0  0  0  0
    7.2372    1.7165    0.9813 C   0  0  0  0  0  0  0  0  0  0  0  0
    6.4378    1.1880   -0.0554 C   0  0  0  0  0  0  0  0  0  0  0  0
    7.0060    0.8690   -1.3681 C   0  0  0  0  0  0  0  0  0  0  0  0
    8.1690    0.1091   -1.4720 C   0  0  0  0  0  0  0  0  0  0  0  0
    8.7171   -0.1989   -2.7011 C   0  0  0  0  0  0  0  0  0  0  0  0
    8.1268    0.2502   -3.8778 C   0  0  0  0  0  0  0  0  0  0  0  0
    8.7209   -0.0669   -5.5034 S   0  0  0  0  0  0  0  0  0  0  0  0
   10.4418   -0.6224   -5.2480 C   0  0  0  0  0  0  0  0  0  0  0  0
   11.3448    0.4960   -4.7642 C   0  0  0  0  0  0  0  0  0  0  0  0
    6.9505    0.9932   -3.7592 C   0  0  0  0  0  0  0  0  0  0  0  0
    6.3392    1.4353   -4.8777 F   0  0  0  0  0  0  0  0  0  0  0  0
    6.3914    1.3038   -2.5414 C   0  0  0  0  0  0  0  0  0  0  0  0
    5.1008    0.9979    0.2413 C   0  0  0  0  0  0  0  0  0  0  0  0
    4.5426    1.2435    1.5253 C   0  0  0  0  0  0  0  0  0  0  0  0
    5.3482    1.7365    2.5656 C   0  0  0  0  0  0  0  0  0  0  0  0
    4.8106    1.9874    3.9088 C   0  0  0  0  0  0  0  0  0  0  0  0
    4.0649    1.0226    4.5813 C   0  0  0  0  0  0  0  0  0  0  0  0
    3.5975    1.2424    5.8642 C   0  0  0  0  0  0  0  0  0  0  0  0
    3.8500    2.4422    6.5186 C   0  0  0  0  0  0  0  0  0  0  0  0
    3.3785    2.8511    8.1671 S   0  0  0  0  0  0  0  0  0  0  0  0
    2.2001    1.5436    8.6514 C   0  0  0  0  0  0  0  0  0  0  0  0
    0.8409    1.7365    8.0060 C   0  0  0  0  0  0  0  0  0  0  0  0
    4.5836    3.4074    5.8252 C   0  0  0  0  0  0  0  0  0  0  0  0
    5.0613    3.1985    4.5527 C   0  0  0  0  0  0  0  0  0  0  0  0
    4.8280    4.5897    6.4227 F   0  0  0  0  0  0  0  0  0  0  0  0
    6.6802    1.9883    2.2603 C   0  0  0  0  0  0  0  0  0  0  0  0
    7.8594    2.6618    3.3531 S   0  0  0  0  0  0  0  0  0  0  0  0
    3.1501    0.9941    1.5436 C   0  0  0  0  0  0  0  0  0  0  0  0
    2.6412    0.5927    0.3411 C   0  0  0  0  0  0  0  0  0  0  0  0
    3.8866    0.4403   -0.8781 S   0  0  0  0  0  0  0  0  0  0  0  0
    1.2527    0.3269    0.0757 C   0  0  0  0  0  0  0  0  0  0  0  0
    0.6047    0.5584   -1.1475 C   0  0  0  0  0  0  0  0  0  0  0  0
    1.1600    1.0922   -2.3411 C   0  0  0  0  0  0  0  0  0  0  0  0
    0.2525    1.2519   -3.3383 C   0  0  0  0  0  0  0  0  0  0  0  0
    0.4959    1.7208   -4.7082 C   0  0  0  0  0  0  0  0  0  0  0  0
   -0.3355    1.7044   -5.5826 O   0  0  0  0  0  0  0  0  0  0  0  0
    1.7513    2.1567   -4.8446 O   0  0  0  0  0  0  0  0  0  0  0  0
    2.1792    2.5643   -6.1469 C   0  0  0  0  0  0  0  0  0  0  0  0
    3.0810    1.5057   -6.7641 C   0  0  0  0  0  0  0  0  0  0  0  0
   -1.3553    0.7710   -2.8903 S   0  0  0  0  0  0  0  0  0  0  0  0
   -0.7886    0.3018   -1.3119 C   0  0  0  0  0  0  0  0  0  0  0  0
   -1.5968   -0.2410   -0.3219 C   0  0  0  0  0  0  0  0  0  0  0  0
   -0.9562   -0.4346    0.9145 C   0  0  0  0  0  0  0  0  0  0  0  0
    0.4313   -0.1618    1.1091 C   0  0  0  0  0  0  0  0  0  0  0  0
    0.7296   -0.5318    2.3684 N   0  0  0  0  0  0  0  0  0  0  0  0
   -0.3981   -0.9747    2.8510 N   0  0  0  0  0  0  0  0  0  0  0  0
   -0.5052   -1.4642    4.1958 C   0  0  0  0  0  0  0  0  0  0  0  0
   -0.1127   -0.3802    5.1892 C   0  0  0  0  0  0  0  0  0  0  0  0
   -1.4289   -0.9530    2.0583 N   0  0  0  0  0  0  0  0  0  0  0  0
   -2.9718   -0.6238   -0.4924 C   0  0  0  0  0  0  0  0  0  0  0  0
   -3.5534   -1.3370   -1.5323 C   0  0  0  0  0  0  0  0  0  0  0  0
   -2.8463   -1.9413   -2.5541 N   0  0  0  0  0  0  0  0  0  0  0  0
   -3.4756   -2.1619   -3.7872 C   0  0  0  0  0  0  0  0  0  0  0  0
   -4.3353   -1.2029   -4.3151 C   0  0  0  0  0  0  0  0  0  0  0  0
   -5.0335   -1.4563   -5.4777 C   0  0  0  0  0  0  0  0  0  0  0  0
   -4.8743   -2.6712   -6.1291 C   0  0  0  0  0  0  0  0  0  0  0  0
   -5.7962   -3.0909   -7.5752 S   0  0  0  0  0  0  0  0  0  0  0  0
   -7.3601   -2.2169   -7.2617 C   0  0  0  0  0  0  0  0  0  0  0  0
   -3.9614   -3.6025   -5.6440 C   0  0  0  0  0  0  0  0  0  0  0  0
   -3.2690   -3.3537   -4.4798 C   0  0  0  0  0  0  0  0  0  0  0  0
   -1.5243   -2.3629   -2.3447 C   0  0  0  0  0  0  0  0  0  0  0  0
   -0.5622   -2.1872   -3.3408 C   0  0  0  0  0  0  0  0  0  0  0  0
    0.7671   -2.4259   -3.0717 C   0  0  0  0  0  0  0  0  0  0  0  0
    1.1662   -2.8594   -1.8092 C   0  0  0  0  0  0  0  0  0  0  0  0
    2.9013   -3.0189   -1.5270 S   0  0  0  0  0  0  0  0  0  0  0  0
    3.0297   -3.0683    0.2851 C   0  0  0  0  0  0  0  0  0  0  0  0
    0.2017   -3.1433   -0.8524 C   0  0  0  0  0  0  0  0  0  0  0  0
   -1.1308   -2.8997   -1.1212 C   0  0  0  0  0  0  0  0  0  0  0  0
   -4.9506   -1.4870   -1.3171 C   0  0  0  0  0  0  0  0  0  0  0  0
   -6.2775   -2.0661   -2.2634 S   0  0  0  0  0  0  0  0  0  0  0  0
   -7.3936   -1.7373   -0.9356 C   0  0  0  0  0  0  0  0  0  0  0  0
   -6.7433   -1.1343    0.1640 C   0  0  0  0  0  0  0  0  0  0  0  0
   -7.3354   -0.7111    1.3308 N   0  0  0  0  0  0  0  0  0  0  0  0
   -6.5552   -0.7263    2.5005 C   0  0  0  0  0  0  0  0  0  0  0  0
   -6.5378    0.3638    3.3633 C   0  0  0  0  0  0  0  0  0  0  0  0
   -5.7029    0.3741    4.4643 C   0  0  0  0  0  0  0  0  0  0  0  0
   -4.8713   -0.7083    4.7159 C   0  0  0  0  0  0  0  0  0  0  0  0
   -3.7134   -0.7798    6.0476 S   0  0  0  0  0  0  0  0  0  0  0  0
   -3.7931    0.8731    6.7932 C   0  0  0  0  0  0  0  0  0  0  0  0
   -4.9249   -1.8245    3.8839 C   0  0  0  0  0  0  0  0  0  0  0  0
   -5.7606   -1.8366    2.7914 C   0  0  0  0  0  0  0  0  0  0  0  0
   -8.6342   -0.1780    1.3697 C   0  0  0  0  0  0  0  0  0  0  0  0
   -9.1115    0.6111    0.3205 C   0  0  0  0  0  0  0  0  0  0  0  0
  -10.4231    1.0245    0.3107 C   0  0  0  0  0  0  0  0  0  0  0  0
  -11.2793    0.6842    1.3585 C   0  0  0  0  0  0  0  0  0  0  0  0
  -12.9653    1.1808    1.2060 S   0  0  0  0  0  0  0  0  0  0  0  0
  -13.8258    0.0846    2.3684 C   0  0  0  0  0  0  0  0  0  0  0  0
  -10.7794   -0.0143    2.4487 C   0  0  0  0  0  0  0  0  0  0  0  0
   -9.4684   -0.4505    2.4495 C   0  0  0  0  0  0  0  0  0  0  0  0
   -5.3701   -0.9853   -0.0893 C   0  0  0  0  0  0  0  0  0  0  0  0
   -4.0780   -0.2723    0.8129 S   0  0  0  0  0  0  0  0  0  0  0  0
   -8.7536   -2.0578   -0.9351 C   0  0  0  0  0  0  0  0  0  0  0  0
   -9.6105   -2.3360   -1.9704 C   0  0  0  0  0  0  0  0  0  0  0  0
   -9.2907   -2.3130   -3.4014 C   0  0  0  0  0  0  0  0  0  0  0  0
   -8.1862   -2.2908   -3.9189 O   0  0  0  0  0  0  0  0  0  0  0  0
  -10.5871   -2.3046   -4.1075 C   0  0  0  0  0  0  0  0  0  0  0  0
  -10.8032   -2.2181   -5.4810 C   0  0  0  0  0  0  0  0  0  0  0  0
  -12.1296   -2.2116   -5.8419 C   0  0  0  0  0  0  0  0  0  0  0  0
  -13.1702   -2.2835   -4.9076 C   0  0  0  0  0  0  0  0  0  0  0  0
  -12.9728   -2.3688   -3.5495 C   0  0  0  0  0  0  0  0  0  0  0  0
  -11.6303   -2.3774   -3.1616 C   0  0  0  0  0  0  0  0  0  0  0  0
  -11.0433   -2.4512   -1.8261 C   0  0  0  0  0  0  0  0  0  0  0  0
  -11.7453   -2.5923   -0.6542 C   0  0  0  0  0  0  0  0  0  0  0  0
  -11.1813   -2.7898    0.6202 C   0  0  0  0  0  0  0  0  0  0  0  0
  -10.8253   -2.9852    1.6965 N   0  0  0  0  0  0  0  0  0  0  0  0
  -13.1499   -2.5796   -0.5461 C   0  0  0  0  0  0  0  0  0  0  0  0
  -14.2821   -2.5552   -0.3518 N   0  0  0  0  0  0  0  0  0  0  0  0
  -14.2380   -2.2238   -5.9716 C   0  0  0  0  0  0  0  0  0  0  0  0
  -14.9315   -3.5546   -6.3310 C   0  0  0  0  0  0  0  0  0  0  0  0
  -15.5468   -3.2875   -7.6858 C   0  0  0  0  0  0  0  0  0  0  0  0
  -14.5606   -3.2217   -8.5710 C   0  0  0  0  0  0  0  0  0  0  0  0
  -13.2620   -3.4431   -7.8293 C   0  0  0  0  0  0  0  0  0  0  0  0
  -13.7383   -4.4233   -6.7496 C   0  0  0  0  0  0  0  0  0  0  0  0
  -13.0768   -2.1456   -7.0143 C   0  0  0  0  0  0  0  0  0  0  0  0
   10.9603    2.9780    1.2698 H   0  0  0  0  0  0  0  0  0  0  0  0
   10.3550    5.6331    6.9262 H   0  0  0  0  0  0  0  0  0  0  0  0
   14.5253    6.0818    4.0846 H   0  0  0  0  0  0  0  0  0  0  0  0
   14.3833    8.5840    6.4261 H   0  0  0  0  0  0  0  0  0  0  0  0
   16.2702    7.3096    7.4333 H   0  0  0  0  0  0  0  0  0  0  0  0
   15.5406    4.7991    7.4617 H   0  0  0  0  0  0  0  0  0  0  0  0
   13.3746    4.5795    8.9844 H   0  0  0  0  0  0  0  0  0  0  0  0
   12.7706    6.9555    9.8956 H   0  0  0  0  0  0  0  0  0  0  0  0
   14.6899    8.6803    9.1282 H   0  0  0  0  0  0  0  0  0  0  0  0
   15.4009    7.2600    9.9347 H   0  0  0  0  0  0  0  0  0  0  0  0
   12.2800    8.3740    7.9090 H   0  0  0  0  0  0  0  0  0  0  0  0
    9.1870    2.0248    0.0299 H   0  0  0  0  0  0  0  0  0  0  0  0
    8.6380   -0.2705   -0.5767 H   0  0  0  0  0  0  0  0  0  0  0  0
    9.6091   -0.8027   -2.7343 H   0  0  0  0  0  0  0  0  0  0  0  0
   10.4371   -1.4780   -4.5738 H   0  0  0  0  0  0  0  0  0  0  0  0
   10.7450   -0.9646   -6.2376 H   0  0  0  0  0  0  0  0  0  0  0  0
   11.3381    1.3181   -5.4760 H   0  0  0  0  0  0  0  0  0  0  0  0
   11.0186    0.8763   -3.7986 H   0  0  0  0  0  0  0  0  0  0  0  0
   12.3648    0.1305   -4.6646 H   0  0  0  0  0  0  0  0  0  0  0  0
    5.4985    1.9076   -2.5164 H   0  0  0  0  0  0  0  0  0  0  0  0
    3.8724    0.0721    4.1066 H   0  0  0  0  0  0  0  0  0  0  0  0
    3.0459    0.4584    6.3582 H   0  0  0  0  0  0  0  0  0  0  0  0
    2.1329    1.6462    9.7343 H   0  0  0  0  0  0  0  0  0  0  0  0
    2.6378    0.5732    8.4228 H   0  0  0  0  0  0  0  0  0  0  0  0
    0.1616    0.9480    8.3246 H   0  0  0  0  0  0  0  0  0  0  0  0
    0.9198    1.7136    6.9219 H   0  0  0  0  0  0  0  0  0  0  0  0
    0.4227    2.6965    8.2989 H   0  0  0  0  0  0  0  0  0  0  0  0
    5.6124    3.9882    4.0686 H   0  0  0  0  0  0  0  0  0  0  0  0
    2.5281    1.1553    2.4037 H   0  0  0  0  0  0  0  0  0  0  0  0
    2.1924    1.3552   -2.4693 H   0  0  0  0  0  0  0  0  0  0  0  0
    2.7230    3.5014   -6.0036 H   0  0  0  0  0  0  0  0  0  0  0  0
    1.2953    2.7376   -6.7692 H   0  0  0  0  0  0  0  0  0  0  0  0
    3.4232    1.8445   -7.7373 H   0  0  0  0  0  0  0  0  0  0  0  0
    2.5356    0.5732   -6.8872 H   0  0  0  0  0  0  0  0  0  0  0  0
    3.9453    1.3291   -6.1297 H   0  0  0  0  0  0  0  0  0  0  0  0
   -1.5428   -1.7696    4.3383 H   0  0  0  0  0  0  0  0  0  0  0  0
    0.1552   -2.3295    4.3052 H   0  0  0  0  0  0  0  0  0  0  0  0
   -0.7906    0.4658    5.1096 H   0  0  0  0  0  0  0  0  0  0  0  0
   -0.1673   -0.7761    6.1987 H   0  0  0  0  0  0  0  0  0  0  0  0
    0.9004   -0.0430    4.9845 H   0  0  0  0  0  0  0  0  0  0  0  0
   -4.4454   -0.2528   -3.8144 H   0  0  0  0  0  0  0  0  0  0  0  0
   -5.6982   -0.7031   -5.8676 H   0  0  0  0  0  0  0  0  0  0  0  0
   -7.5849   -2.2879   -6.2007 H   0  0  0  0  0  0  0  0  0  0  0  0
   -7.2866   -1.1806   -7.5811 H   0  0  0  0  0  0  0  0  0  0  0  0
   -8.1125   -2.7299   -7.8539 H   0  0  0  0  0  0  0  0  0  0  0  0
   -3.8232   -4.5319   -6.1746 H   0  0  0  0  0  0  0  0  0  0  0  0
   -2.5840   -4.0895   -4.0852 H   0  0  0  0  0  0  0  0  0  0  0  0
   -0.8620   -1.8196   -4.3107 H   0  0  0  0  0  0  0  0  0  0  0  0
    1.5172   -2.2481   -3.8267 H   0  0  0  0  0  0  0  0  0  0  0  0
    4.0845   -2.9378    0.5066 H   0  0  0  0  0  0  0  0  0  0  0  0
    2.6932   -4.0298    0.6625 H   0  0  0  0  0  0  0  0  0  0  0  0
    2.4573   -2.2528    0.7177 H   0  0  0  0  0  0  0  0  0  0  0  0
    0.4756   -3.5463    0.1098 H   0  0  0  0  0  0  0  0  0  0  0  0
   -1.8715   -3.1062   -0.3626 H   0  0  0  0  0  0  0  0  0  0  0  0
   -7.1671    1.2170    3.1582 H   0  0  0  0  0  0  0  0  0  0  0  0
   -5.7021    1.2403    5.1059 H   0  0  0  0  0  0  0  0  0  0  0  0
   -4.7708    1.0365    7.2368 H   0  0  0  0  0  0  0  0  0  0  0  0
   -3.0332    0.8835    7.5685 H   0  0  0  0  0  0  0  0  0  0  0  0
   -3.5685    1.6266    6.0440 H   0  0  0  0  0  0  0  0  0  0  0  0
   -4.3013   -2.6775    4.1027 H   0  0  0  0  0  0  0  0  0  0  0  0
   -5.7967   -2.7010    2.1459 H   0  0  0  0  0  0  0  0  0  0  0  0
   -8.4558    0.8663   -0.4986 H   0  0  0  0  0  0  0  0  0  0  0  0
  -10.8064    1.6094   -0.5113 H   0  0  0  0  0  0  0  0  0  0  0  0
  -13.6568    0.4092    3.3912 H   0  0  0  0  0  0  0  0  0  0  0  0
  -13.4924   -0.9374    2.2162 H   0  0  0  0  0  0  0  0  0  0  0  0
  -14.8801    0.1677    2.1241 H   0  0  0  0  0  0  0  0  0  0  0  0
  -11.4084   -0.2554    3.2894 H   0  0  0  0  0  0  0  0  0  0  0  0
   -9.0979   -1.0344    3.2777 H   0  0  0  0  0  0  0  0  0  0  0  0
   -9.2099   -2.0057    0.0451 H   0  0  0  0  0  0  0  0  0  0  0  0
   -9.9791   -2.1551   -6.1735 H   0  0  0  0  0  0  0  0  0  0  0  0
  -13.7817   -2.4150   -2.8396 H   0  0  0  0  0  0  0  0  0  0  0  0
  -14.9312   -1.3879   -5.9002 H   0  0  0  0  0  0  0  0  0  0  0  0
  -15.5918   -3.9459   -5.5619 H   0  0  0  0  0  0  0  0  0  0  0  0
  -16.5962   -3.1237   -7.8464 H   0  0  0  0  0  0  0  0  0  0  0  0
  -14.6215   -2.9920   -9.6186 H   0  0  0  0  0  0  0  0  0  0  0  0
  -12.4014   -3.7339   -8.4260 H   0  0  0  0  0  0  0  0  0  0  0  0
  -13.0140   -4.5948   -5.9554 H   0  0  0  0  0  0  0  0  0  0  0  0
  -14.0512   -5.3777   -7.1697 H   0  0  0  0  0  0  0  0  0  0  0  0
  -12.9975   -1.2580   -7.6395 H   0  0  0  0  0  0  0  0  0  0  0  0
  1  2  2  0  0  0  0
  2  3  1  0  0  0  0
  3  4  2  0  0  0  0
  3  5  1  0  0  0  0
  5  6  2  0  0  0  0
  6  7  1  0  0  0  0
  7  8  2  0  0  0  0
  8  9  1  0  0  0  0
  9 10  2  0  0  0  0
 10 11  1  0  0  0  0
 11 12  2  0  0  0  0
 12 13  1  0  0  0  0
 13 14  3  0  0  0  0
 12 15  1  0  0  0  0
 15 16  3  0  0  0  0
  8 17  1  0  0  0  0
 17 18  1  0  0  0  0
 18 19  1  0  0  0  0
 19 20  2  0  0  0  0
 20 21  1  0  0  0  0
 21 22  1  0  0  0  0
 21 23  1  0  0  0  0
  1 24  1  0  0  0  0
 24 25  2  0  0  0  0
 25 26  1  0  0  0  0
 26 27  2  0  0  0  0
 27 28  1  0  0  0  0
 28 29  2  0  0  0  0
 29 30  1  0  0  0  0
 30 31  2  0  0  0  0
 31 32  1  0  0  0  0
 32 33  1  0  0  0  0
 33 34  1  0  0  0  0
 31 35  1  0  0  0  0
 35 36  1  0  0  0  0
 35 37  2  0  0  0  0
 27 38  1  0  0  0  0
 38 39  2  0  0  0  0
 39 40  1  0  0  0  0
 40 41  1  0  0  0  0
 41 42  2  0  0  0  0
 42 43  1  0  0  0  0
 43 44  2  0  0  0  0
 44 45  1  0  0  0  0
 45 46  1  0  0  0  0
 46 47  1  0  0  0  0
 44 48  1  0  0  0  0
 48 49  2  0  0  0  0
 48 50  1  0  0  0  0
 40 51  2  0  0  0  0
 51 52  1  0  0  0  0
 39 53  1  0  0  0  0
 53 54  2  0  0  0  0
 54 55  1  0  0  0  0
 54 56  1  0  0  0  0
 56 57  2  0  0  0  0
 57 58  1  0  0  0  0
 58 59  2  0  0  0  0
 59 60  1  0  0  0  0
 60 61  2  0  0  0  0
 60 62  1  0  0  0  0
 62 63  1  0  0  0  0
 63 64  1  0  0  0  0
 59 65  1  0  0  0  0
 65 66  1  0  0  0  0
 66 67  2  0  0  0  0
 67 68  1  0  0  0  0
 68 69  1  0  0  0  0
 69 70  2  0  0  0  0
 70 71  1  0  0  0  0
 71 72  1  0  0  0  0
 72 73  1  0  0  0  0
 71 74  1  0  0  0  0
 67 75  1  0  0  0  0
 75 76  2  0  0  0  0
 76 77  1  0  0  0  0
 77 78  1  0  0  0  0
 78 79  2  0  0  0  0
 79 80  1  0  0  0  0
 80 81  2  0  0  0  0
 81 82  1  0  0  0  0
 82 83  1  0  0  0  0
 81 84  1  0  0  0  0
 84 85  2  0  0  0  0
 77 86  1  0  0  0  0
 86 87  2  0  0  0  0
 87 88  1  0  0  0  0
 88 89  2  0  0  0  0
 89 90  1  0  0  0  0
 90 91  1  0  0  0  0
 89 92  1  0  0  0  0
 92 93  2  0  0  0  0
 76 94  1  0  0  0  0
 94 95  1  0  0  0  0
 95 96  1  0  0  0  0
 96 97  2  0  0  0  0
 97 98  1  0  0  0  0
 98 99  1  0  0  0  0
 99100  2  0  0  0  0
100101  1  0  0  0  0
101102  2  0  0  0  0
102103  1  0  0  0  0
103104  1  0  0  0  0
102105  1  0  0  0  0
105106  2  0  0  0  0
 98107  1  0  0  0  0
107108  2  0  0  0  0
108109  1  0  0  0  0
109110  2  0  0  0  0
110111  1  0  0  0  0
111112  1  0  0  0  0
110113  1  0  0  0  0
113114  2  0  0  0  0
 97115  1  0  0  0  0
115116  1  0  0  0  0
 96117  1  0  0  0  0
117118  2  0  0  0  0
118119  1  0  0  0  0
119120  2  0  0  0  0
119121  1  0  0  0  0
121122  2  0  0  0  0
122123  1  0  0  0  0
123124  2  0  0  0  0
124125  1  0  0  0  0
125126  2  0  0  0  0
126127  1  0  0  0  0
127128  2  0  0  0  0
128129  1  0  0  0  0
129130  3  0  0  0  0
128131  1  0  0  0  0
131132  3  0  0  0  0
124133  1  0  0  0  0
133134  1  0  0  0  0
134135  1  0  0  0  0
135136  2  0  0  0  0
136137  1  0  0  0  0
137138  1  0  0  0  0
137139  1  0  0  0  0
 11  2  1  0  0  0  0
 23 17  1  0  0  0  0
 52 24  1  0  0  0  0
 69 56  1  0  0  0  0
116 75  1  0  0  0  0
127118  1  0  0  0  0
139133  1  0  0  0  0
 10  5  1  0  0  0  0
 22 18  1  0  0  0  0
 51 26  1  0  0  0  0
 66 57  1  0  0  0  0
 74 68  2  0  0  0  0
 85 78  1  0  0  0  0
 93 86  1  0  0  0  0
115 94  2  0  0  0  0
126121  1  0  0  0  0
138134  1  0  0  0  0
 23  7  1  0  0  0  0
 37 28  1  0  0  0  0
 55 38  1  0  0  0  0
106 99  1  0  0  0  0
114107  1  0  0  0  0
139123  1  0  0  0  0
 49 41  1  0  0  0  0
  1140  1  0  0  0  0
  6141  1  0  0  0  0
  9142  1  0  0  0  0
 17143  1  0  0  0  0
 18144  1  0  0  0  0
 19145  1  0  0  0  0
 20146  1  0  0  0  0
 21147  1  0  0  0  0
 22148  1  0  0  0  0
 22149  1  0  0  0  0
 23150  1  0  0  0  0
 25151  1  0  0  0  0
 29152  1  0  0  0  0
 30153  1  0  0  0  0
 33154  1  0  0  0  0
 33155  1  0  0  0  0
 34156  1  0  0  0  0
 34157  1  0  0  0  0
 34158  1  0  0  0  0
 37159  1  0  0  0  0
 42160  1  0  0  0  0
 43161  1  0  0  0  0
 46162  1  0  0  0  0
 46163  1  0  0  0  0
 47164  1  0  0  0  0
 47165  1  0  0  0  0
 47166  1  0  0  0  0
 49167  1  0  0  0  0
 53168  1  0  0  0  0
 58169  1  0  0  0  0
 63170  1  0  0  0  0
 63171  1  0  0  0  0
 64172  1  0  0  0  0
 64173  1  0  0  0  0
 64174  1  0  0  0  0
 72175  1  0  0  0  0
 72176  1  0  0  0  0
 73177  1  0  0  0  0
 73178  1  0  0  0  0
 73179  1  0  0  0  0
 79180  1  0  0  0  0
 80181  1  0  0  0  0
 83182  1  0  0  0  0
 83183  1  0  0  0  0
 83184  1  0  0  0  0
 84185  1  0  0  0  0
 85186  1  0  0  0  0
 87187  1  0  0  0  0
 88188  1  0  0  0  0
 91189  1  0  0  0  0
 91190  1  0  0  0  0
 91191  1  0  0  0  0
 92192  1  0  0  0  0
 93193  1  0  0  0  0
100194  1  0  0  0  0
101195  1  0  0  0  0
104196  1  0  0  0  0
104197  1  0  0  0  0
104198  1  0  0  0  0
105199  1  0  0  0  0
106200  1  0  0  0  0
108201  1  0  0  0  0
109202  1  0  0  0  0
112203  1  0  0  0  0
112204  1  0  0  0  0
112205  1  0  0  0  0
113206  1  0  0  0  0
114207  1  0  0  0  0
117208  1  0  0  0  0
122209  1  0  0  0  0
125210  1  0  0  0  0
133211  1  0  0  0  0
134212  1  0  0  0  0
135213  1  0  0  0  0
136214  1  0  0  0  0
137215  1  0  0  0  0
138216  1  0  0  0  0
138217  1  0  0  0  0
139218  1  0  0  0  0
M  END
