
  xtb     02082208573D
 energy: -428.706451408151 gnorm: 0.000715491503 xtb: 6.4.1 (unknown)
258284  0     0  0            999 V2000
    2.9001   11.7036   -0.3842 C   0  0  0  0  0  0  0  0  0  0  0  0
    3.9198   11.8354    0.5027 C   0  0  0  0  0  0  0  0  0  0  0  0
    4.4725   13.1813    0.8308 C   0  0  0  0  0  0  0  0  0  0  0  0
    4.3644   14.1888    0.1719 O   0  0  0  0  0  0  0  0  0  0  0  0
    5.1044   13.0217    2.1556 C   0  0  0  0  0  0  0  0  0  0  0  0
    5.5974   14.0273    2.9854 C   0  0  0  0  0  0  0  0  0  0  0  0
    6.0692   13.5747    4.1946 C   0  0  0  0  0  0  0  0  0  0  0  0
    6.0434   12.2225    4.5664 C   0  0  0  0  0  0  0  0  0  0  0  0
    5.5671   11.2178    3.7593 C   0  0  0  0  0  0  0  0  0  0  0  0
    5.0976   11.6572    2.5182 C   0  0  0  0  0  0  0  0  0  0  0  0
    4.5361   10.8865    1.4164 C   0  0  0  0  0  0  0  0  0  0  0  0
    4.7729    9.5561    1.1909 C   0  0  0  0  0  0  0  0  0  0  0  0
    4.3912    8.8624    0.0226 C   0  0  0  0  0  0  0  0  0  0  0  0
    4.1612    8.2354   -0.9114 N   0  0  0  0  0  0  0  0  0  0  0  0
    5.4721    8.7053    2.0682 C   0  0  0  0  0  0  0  0  0  0  0  0
    6.0082    7.9367    2.7326 N   0  0  0  0  0  0  0  0  0  0  0  0
    6.6458   12.5000    5.9202 C   0  0  0  0  0  0  0  0  0  0  0  0
    8.1402   12.1555    6.0926 C   0  0  0  0  0  0  0  0  0  0  0  0
    8.5587   12.9583    7.3030 C   0  0  0  0  0  0  0  0  0  0  0  0
    8.5909   14.2364    6.9481 C   0  0  0  0  0  0  0  0  0  0  0  0
    8.1938   14.3192    5.4918 C   0  0  0  0  0  0  0  0  0  0  0  0
    8.7826   12.9973    4.9825 C   0  0  0  0  0  0  0  0  0  0  0  0
    6.6823   14.0056    5.5036 C   0  0  0  0  0  0  0  0  0  0  0  0
    2.0410   10.5725   -0.4525 C   0  0  0  0  0  0  0  0  0  0  0  0
    1.8051    9.6969    0.5708 C   0  0  0  0  0  0  0  0  0  0  0  0
    1.0265    8.5828    0.2056 C   0  0  0  0  0  0  0  0  0  0  0  0
    0.8613    7.4043    0.9526 C   0  0  0  0  0  0  0  0  0  0  0  0
    1.5878    7.2450    2.2184 C   0  0  0  0  0  0  0  0  0  0  0  0
    2.5273    6.2245    2.3339 C   0  0  0  0  0  0  0  0  0  0  0  0
    3.3683    6.1411    3.4248 C   0  0  0  0  0  0  0  0  0  0  0  0
    3.3006    7.0831    4.4457 C   0  0  0  0  0  0  0  0  0  0  0  0
    4.3639    7.1511    5.8419 S   0  0  0  0  0  0  0  0  0  0  0  0
    5.6656    5.9252    5.4739 C   0  0  0  0  0  0  0  0  0  0  0  0
    5.2733    4.5112    5.8595 C   0  0  0  0  0  0  0  0  0  0  0  0
    2.3193    8.0715    4.3408 C   0  0  0  0  0  0  0  0  0  0  0  0
    2.2115    8.9966    5.3204 F   0  0  0  0  0  0  0  0  0  0  0  0
    1.4753    8.1662    3.2573 C   0  0  0  0  0  0  0  0  0  0  0  0
    0.1873    6.3757    0.3255 C   0  0  0  0  0  0  0  0  0  0  0  0
   -0.3060    6.4529   -1.0029 C   0  0  0  0  0  0  0  0  0  0  0  0
   -0.0475    7.5975   -1.7783 C   0  0  0  0  0  0  0  0  0  0  0  0
   -0.2552    7.6385   -3.2309 C   0  0  0  0  0  0  0  0  0  0  0  0
   -0.8630    8.7242   -3.8577 C   0  0  0  0  0  0  0  0  0  0  0  0
   -0.8792    8.8229   -5.2325 C   0  0  0  0  0  0  0  0  0  0  0  0
   -0.2799    7.8536   -6.0335 C   0  0  0  0  0  0  0  0  0  0  0  0
   -0.2828    8.1034   -7.7817 S   0  0  0  0  0  0  0  0  0  0  0  0
    1.3769    7.4810   -8.2797 C   0  0  0  0  0  0  0  0  0  0  0  0
    1.8313    8.2268   -9.5185 C   0  0  0  0  0  0  0  0  0  0  0  0
    0.2683    6.7467   -5.3944 C   0  0  0  0  0  0  0  0  0  0  0  0
    0.2882    6.6307   -4.0213 C   0  0  0  0  0  0  0  0  0  0  0  0
    0.8202    5.7357   -6.1111 F   0  0  0  0  0  0  0  0  0  0  0  0
    0.6009    8.6492   -1.1444 C   0  0  0  0  0  0  0  0  0  0  0  0
    1.1774   10.1100   -1.9081 S   0  0  0  0  0  0  0  0  0  0  0  0
   -0.9464    5.2498   -1.4013 C   0  0  0  0  0  0  0  0  0  0  0  0
   -0.9063    4.2691   -0.4536 C   0  0  0  0  0  0  0  0  0  0  0  0
   -0.1087    4.8125    1.0202 S   0  0  0  0  0  0  0  0  0  0  0  0
   -1.2632    2.8832   -0.4514 C   0  0  0  0  0  0  0  0  0  0  0  0
   -2.2737    2.1319   -1.0308 C   0  0  0  0  0  0  0  0  0  0  0  0
   -3.3366    2.5870   -1.7933 N   0  0  0  0  0  0  0  0  0  0  0  0
   -3.1748    3.4117   -2.9119 C   0  0  0  0  0  0  0  0  0  0  0  0
   -4.1310    4.3918   -3.1833 C   0  0  0  0  0  0  0  0  0  0  0  0
   -4.0319    5.1606   -4.3190 C   0  0  0  0  0  0  0  0  0  0  0  0
   -2.9805    4.9672   -5.2138 C   0  0  0  0  0  0  0  0  0  0  0  0
   -2.9886    5.9685   -6.6665 S   0  0  0  0  0  0  0  0  0  0  0  0
   -2.0074    4.9944   -7.8446 C   0  0  0  0  0  0  0  0  0  0  0  0
   -2.0034    4.0227   -4.9268 C   0  0  0  0  0  0  0  0  0  0  0  0
   -2.1011    3.2501   -3.7838 C   0  0  0  0  0  0  0  0  0  0  0  0
   -4.6071    2.0464   -1.5325 C   0  0  0  0  0  0  0  0  0  0  0  0
   -5.0393    1.8785   -0.2203 C   0  0  0  0  0  0  0  0  0  0  0  0
   -6.2987    1.3770    0.0479 C   0  0  0  0  0  0  0  0  0  0  0  0
   -7.1430    1.0244   -0.9953 C   0  0  0  0  0  0  0  0  0  0  0  0
   -8.7857    0.4231   -0.7606 S   0  0  0  0  0  0  0  0  0  0  0  0
   -8.8549    0.0052    1.0038 C   0  0  0  0  0  0  0  0  0  0  0  0
   -6.7082    1.1767   -2.3102 C   0  0  0  0  0  0  0  0  0  0  0  0
   -5.4565    1.6812   -2.5773 C   0  0  0  0  0  0  0  0  0  0  0  0
   -2.1530    0.7636   -0.6650 C   0  0  0  0  0  0  0  0  0  0  0  0
   -3.0564   -0.6534   -1.0619 S   0  0  0  0  0  0  0  0  0  0  0  0
   -1.9237   -1.6515   -0.1498 C   0  0  0  0  0  0  0  0  0  0  0  0
   -0.9452   -0.8995    0.4875 C   0  0  0  0  0  0  0  0  0  0  0  0
   -0.0112   -1.3821    1.3800 N   0  0  0  0  0  0  0  0  0  0  0  0
    1.1331   -0.6005    1.6324 C   0  0  0  0  0  0  0  0  0  0  0  0
    1.9206   -0.1488    0.5781 C   0  0  0  0  0  0  0  0  0  0  0  0
    2.9651    0.7277    0.8064 C   0  0  0  0  0  0  0  0  0  0  0  0
    3.2292    1.1676    2.0958 C   0  0  0  0  0  0  0  0  0  0  0  0
    4.4518    2.3807    2.4836 S   0  0  0  0  0  0  0  0  0  0  0  0
    4.7492    3.1948    0.8872 C   0  0  0  0  0  0  0  0  0  0  0  0
    2.4959    0.6505    3.1622 C   0  0  0  0  0  0  0  0  0  0  0  0
    1.4608   -0.2275    2.9356 C   0  0  0  0  0  0  0  0  0  0  0  0
   -0.3019   -2.4529    2.2394 C   0  0  0  0  0  0  0  0  0  0  0  0
   -1.5848   -2.6641    2.7421 C   0  0  0  0  0  0  0  0  0  0  0  0
   -1.8370   -3.7551    3.5419 C   0  0  0  0  0  0  0  0  0  0  0  0
   -0.8273   -4.6620    3.8538 C   0  0  0  0  0  0  0  0  0  0  0  0
   -1.2880   -6.0376    4.8607 S   0  0  0  0  0  0  0  0  0  0  0  0
    0.0131   -7.2640    4.5506 C   0  0  0  0  0  0  0  0  0  0  0  0
    0.4629   -4.4229    3.4005 C   0  0  0  0  0  0  0  0  0  0  0  0
    0.7200   -3.3248    2.6035 C   0  0  0  0  0  0  0  0  0  0  0  0
   -1.0817    0.4723    0.1601 C   0  0  0  0  0  0  0  0  0  0  0  0
   -0.1858    1.8943    0.5341 S   0  0  0  0  0  0  0  0  0  0  0  0
   -2.0472   -3.0728   -0.1957 C   0  0  0  0  0  0  0  0  0  0  0  0
   -3.2116   -3.8206   -0.1946 C   0  0  0  0  0  0  0  0  0  0  0  0
   -4.4960   -3.2683   -0.0523 N   0  0  0  0  0  0  0  0  0  0  0  0
   -4.9100   -2.9406    1.2522 C   0  0  0  0  0  0  0  0  0  0  0  0
   -4.9088   -3.9053    2.2520 C   0  0  0  0  0  0  0  0  0  0  0  0
   -5.3073   -3.5889    3.5385 C   0  0  0  0  0  0  0  0  0  0  0  0
   -5.6946   -2.2928    3.8459 C   0  0  0  0  0  0  0  0  0  0  0  0
   -6.2096   -1.7657    5.4505 S   0  0  0  0  0  0  0  0  0  0  0  0
   -5.8765   -3.2016    6.5083 C   0  0  0  0  0  0  0  0  0  0  0  0
   -5.6937   -1.3218    2.8445 C   0  0  0  0  0  0  0  0  0  0  0  0
   -5.3105   -1.6403    1.5612 C   0  0  0  0  0  0  0  0  0  0  0  0
   -5.2719   -2.9553   -1.1609 C   0  0  0  0  0  0  0  0  0  0  0  0
   -4.7181   -2.8955   -2.4410 C   0  0  0  0  0  0  0  0  0  0  0  0
   -5.4948   -2.5349   -3.5197 C   0  0  0  0  0  0  0  0  0  0  0  0
   -6.8462   -2.2473   -3.3563 C   0  0  0  0  0  0  0  0  0  0  0  0
   -7.7332   -1.7285   -4.7958 S   0  0  0  0  0  0  0  0  0  0  0  0
   -9.4303   -1.4862   -4.1975 C   0  0  0  0  0  0  0  0  0  0  0  0
   -7.4183   -2.3746   -2.0996 C   0  0  0  0  0  0  0  0  0  0  0  0
   -6.6379   -2.7215   -1.0164 C   0  0  0  0  0  0  0  0  0  0  0  0
   -2.9371   -5.1982   -0.2745 C   0  0  0  0  0  0  0  0  0  0  0  0
   -3.9326   -6.6016   -0.2449 S   0  0  0  0  0  0  0  0  0  0  0  0
   -2.4995   -7.6420   -0.3038 C   0  0  0  0  0  0  0  0  0  0  0  0
   -1.3134   -6.8941   -0.4924 C   0  0  0  0  0  0  0  0  0  0  0  0
   -0.1095   -7.3943   -0.8884 N   0  0  0  0  0  0  0  0  0  0  0  0
    1.0698   -6.6367   -0.7239 C   0  0  0  0  0  0  0  0  0  0  0  0
    1.9168   -6.4482   -1.8103 C   0  0  0  0  0  0  0  0  0  0  0  0
    3.0822   -5.7194   -1.6734 C   0  0  0  0  0  0  0  0  0  0  0  0
    3.4240   -5.1897   -0.4357 C   0  0  0  0  0  0  0  0  0  0  0  0
    4.8686   -4.2265   -0.1291 S   0  0  0  0  0  0  0  0  0  0  0  0
    5.7406   -4.2157   -1.7208 C   0  0  0  0  0  0  0  0  0  0  0  0
    2.5919   -5.4113    0.6602 C   0  0  0  0  0  0  0  0  0  0  0  0
    1.4168   -6.1140    0.5188 C   0  0  0  0  0  0  0  0  0  0  0  0
    0.0299   -8.6504   -1.4993 C   0  0  0  0  0  0  0  0  0  0  0  0
    1.0962   -9.4756   -1.1366 C   0  0  0  0  0  0  0  0  0  0  0  0
    1.2054  -10.7412   -1.6673 C   0  0  0  0  0  0  0  0  0  0  0  0
    0.2611  -11.2126   -2.5784 C   0  0  0  0  0  0  0  0  0  0  0  0
    0.4429  -12.8811   -3.1043 S   0  0  0  0  0  0  0  0  0  0  0  0
   -0.9652  -13.1579   -4.2128 C   0  0  0  0  0  0  0  0  0  0  0  0
   -0.7562  -10.3627   -3.0018 C   0  0  0  0  0  0  0  0  0  0  0  0
   -0.8686   -9.0966   -2.4652 C   0  0  0  0  0  0  0  0  0  0  0  0
   -1.5865   -5.5113   -0.3849 C   0  0  0  0  0  0  0  0  0  0  0  0
   -0.6160   -4.0749   -0.3660 S   0  0  0  0  0  0  0  0  0  0  0  0
   -2.7092   -9.0113   -0.1559 C   0  0  0  0  0  0  0  0  0  0  0  0
   -1.7733   -9.9350    0.2665 C   0  0  0  0  0  0  0  0  0  0  0  0
   -0.6163   -9.6182    1.1101 C   0  0  0  0  0  0  0  0  0  0  0  0
   -0.2749   -8.5215    1.5264 O   0  0  0  0  0  0  0  0  0  0  0  0
   -0.0061  -10.9159    1.4645 C   0  0  0  0  0  0  0  0  0  0  0  0
    1.1302  -11.1305    2.2386 C   0  0  0  0  0  0  0  0  0  0  0  0
    1.4803  -12.4546    2.3645 C   0  0  0  0  0  0  0  0  0  0  0  0
    0.7438  -13.4917    1.7807 C   0  0  0  0  0  0  0  0  0  0  0  0
   -0.3860  -13.2946    1.0216 C   0  0  0  0  0  0  0  0  0  0  0  0
   -0.7478  -11.9551    0.8701 C   0  0  0  0  0  0  0  0  0  0  0  0
   -1.8380  -11.3589    0.1022 C   0  0  0  0  0  0  0  0  0  0  0  0
   -2.6721  -12.0273   -0.7616 C   0  0  0  0  0  0  0  0  0  0  0  0
   -2.6782  -13.4205   -0.9567 C   0  0  0  0  0  0  0  0  0  0  0  0
   -2.7394  -14.5457   -1.1826 N   0  0  0  0  0  0  0  0  0  0  0  0
   -3.5700  -11.3895   -1.6390 C   0  0  0  0  0  0  0  0  0  0  0  0
   -4.2774  -10.9449   -2.4284 N   0  0  0  0  0  0  0  0  0  0  0  0
    1.6728  -14.5577    2.3066 C   0  0  0  0  0  0  0  0  0  0  0  0
    2.6630  -15.1649    1.2907 C   0  0  0  0  0  0  0  0  0  0  0  0
    3.7336  -15.7888    2.1561 C   0  0  0  0  0  0  0  0  0  0  0  0
    4.4370  -14.8041    2.7004 C   0  0  0  0  0  0  0  0  0  0  0  0
    3.8526  -13.4979    2.2125 C   0  0  0  0  0  0  0  0  0  0  0  0
    3.4100  -13.9166    0.8045 C   0  0  0  0  0  0  0  0  0  0  0  0
    2.5005  -13.3995    2.9509 C   0  0  0  0  0  0  0  0  0  0  0  0
    2.7012   12.5442   -1.0379 H   0  0  0  0  0  0  0  0  0  0  0  0
    5.5852   15.0600    2.6739 H   0  0  0  0  0  0  0  0  0  0  0  0
    5.5267   10.1835    4.0606 H   0  0  0  0  0  0  0  0  0  0  0  0
    6.0387   12.2085    6.7747 H   0  0  0  0  0  0  0  0  0  0  0  0
    8.3620   11.0921    6.1086 H   0  0  0  0  0  0  0  0  0  0  0  0
    8.7283   12.5339    8.2751 H   0  0  0  0  0  0  0  0  0  0  0  0
    8.7929   15.0929    7.5642 H   0  0  0  0  0  0  0  0  0  0  0  0
    8.4666   15.2274    4.9610 H   0  0  0  0  0  0  0  0  0  0  0  0
    9.8701   12.9851    5.0337 H   0  0  0  0  0  0  0  0  0  0  0  0
    8.4627   12.7259    3.9781 H   0  0  0  0  0  0  0  0  0  0  0  0
    6.1041   14.7222    6.0839 H   0  0  0  0  0  0  0  0  0  0  0  0
    2.1843    9.8461    1.5647 H   0  0  0  0  0  0  0  0  0  0  0  0
    2.6267    5.5045    1.5370 H   0  0  0  0  0  0  0  0  0  0  0  0
    4.0918    5.3447    3.4597 H   0  0  0  0  0  0  0  0  0  0  0  0
    6.5120    6.2634    6.0721 H   0  0  0  0  0  0  0  0  0  0  0  0
    5.9212    6.0268    4.4209 H   0  0  0  0  0  0  0  0  0  0  0  0
    5.0654    4.4560    6.9258 H   0  0  0  0  0  0  0  0  0  0  0  0
    6.0888    3.8291    5.6272 H   0  0  0  0  0  0  0  0  0  0  0  0
    4.3888    4.1790    5.3216 H   0  0  0  0  0  0  0  0  0  0  0  0
    0.7353    8.9516    3.2315 H   0  0  0  0  0  0  0  0  0  0  0  0
   -1.3171    9.5002   -3.2611 H   0  0  0  0  0  0  0  0  0  0  0  0
   -1.3397    9.6702   -5.7151 H   0  0  0  0  0  0  0  0  0  0  0  0
    2.0507    7.6605   -7.4433 H   0  0  0  0  0  0  0  0  0  0  0  0
    1.3047    6.4110   -8.4716 H   0  0  0  0  0  0  0  0  0  0  0  0
    1.8923    9.2941   -9.3195 H   0  0  0  0  0  0  0  0  0  0  0  0
    2.8130    7.8701   -9.8232 H   0  0  0  0  0  0  0  0  0  0  0  0
    1.1328    8.0682  -10.3369 H   0  0  0  0  0  0  0  0  0  0  0  0
    0.7636    5.7706   -3.5761 H   0  0  0  0  0  0  0  0  0  0  0  0
   -1.3883    5.1243   -2.3711 H   0  0  0  0  0  0  0  0  0  0  0  0
   -4.9566    4.5290   -2.5016 H   0  0  0  0  0  0  0  0  0  0  0  0
   -4.7731    5.9133   -4.5378 H   0  0  0  0  0  0  0  0  0  0  0  0
   -0.9577    5.0026   -7.5731 H   0  0  0  0  0  0  0  0  0  0  0  0
   -2.3936    3.9803   -7.8813 H   0  0  0  0  0  0  0  0  0  0  0  0
   -2.1396    5.4838   -8.8043 H   0  0  0  0  0  0  0  0  0  0  0  0
   -1.1687    3.8705   -5.5920 H   0  0  0  0  0  0  0  0  0  0  0  0
   -1.3476    2.5062   -3.5690 H   0  0  0  0  0  0  0  0  0  0  0  0
   -4.3902    2.1582    0.5972 H   0  0  0  0  0  0  0  0  0  0  0  0
   -6.6156    1.2868    1.0745 H   0  0  0  0  0  0  0  0  0  0  0  0
   -8.0319   -0.6570    1.2561 H   0  0  0  0  0  0  0  0  0  0  0  0
   -8.8357    0.9089    1.6062 H   0  0  0  0  0  0  0  0  0  0  0  0
   -9.8014   -0.5070    1.1468 H   0  0  0  0  0  0  0  0  0  0  0  0
   -7.3599    0.8952   -3.1218 H   0  0  0  0  0  0  0  0  0  0  0  0
   -5.1270    1.7920   -3.5989 H   0  0  0  0  0  0  0  0  0  0  0  0
    1.6979   -0.4737   -0.4278 H   0  0  0  0  0  0  0  0  0  0  0  0
    3.5539    1.0690   -0.0298 H   0  0  0  0  0  0  0  0  0  0  0  0
    3.7969    3.4280    0.4204 H   0  0  0  0  0  0  0  0  0  0  0  0
    5.3558    2.5611    0.2464 H   0  0  0  0  0  0  0  0  0  0  0  0
    5.2883    4.1106    1.1102 H   0  0  0  0  0  0  0  0  0  0  0  0
    2.7291    0.9724    4.1653 H   0  0  0  0  0  0  0  0  0  0  0  0
    0.8728   -0.6014    3.7605 H   0  0  0  0  0  0  0  0  0  0  0  0
   -2.3829   -1.9746    2.5099 H   0  0  0  0  0  0  0  0  0  0  0  0
   -2.8270   -3.9178    3.9348 H   0  0  0  0  0  0  0  0  0  0  0  0
    0.0555   -7.4918    3.4890 H   0  0  0  0  0  0  0  0  0  0  0  0
    0.9678   -6.9091    4.9273 H   0  0  0  0  0  0  0  0  0  0  0  0
   -0.2893   -8.1492    5.1025 H   0  0  0  0  0  0  0  0  0  0  0  0
    1.2717   -5.0866    3.6611 H   0  0  0  0  0  0  0  0  0  0  0  0
    1.7197   -3.1333    2.2444 H   0  0  0  0  0  0  0  0  0  0  0  0
   -4.6033   -4.9146    2.0223 H   0  0  0  0  0  0  0  0  0  0  0  0
   -5.3160   -4.3661    4.2861 H   0  0  0  0  0  0  0  0  0  0  0  0
   -6.5318   -4.0253    6.2398 H   0  0  0  0  0  0  0  0  0  0  0  0
   -6.0947   -2.8745    7.5202 H   0  0  0  0  0  0  0  0  0  0  0  0
   -4.8309   -3.4848    6.4290 H   0  0  0  0  0  0  0  0  0  0  0  0
   -5.9869   -0.3139    3.0986 H   0  0  0  0  0  0  0  0  0  0  0  0
   -5.3070   -0.8895    0.7844 H   0  0  0  0  0  0  0  0  0  0  0  0
   -3.6724   -3.1222   -2.5869 H   0  0  0  0  0  0  0  0  0  0  0  0
   -5.0575   -2.4666   -4.5041 H   0  0  0  0  0  0  0  0  0  0  0  0
   -9.9938   -1.1328   -5.0556 H   0  0  0  0  0  0  0  0  0  0  0  0
   -9.4481   -0.7391   -3.4085 H   0  0  0  0  0  0  0  0  0  0  0  0
   -9.8386   -2.4319   -3.8530 H   0  0  0  0  0  0  0  0  0  0  0  0
   -8.4705   -2.2047   -1.9455 H   0  0  0  0  0  0  0  0  0  0  0  0
   -7.0969   -2.8223   -0.0442 H   0  0  0  0  0  0  0  0  0  0  0  0
    1.6552   -6.8695   -2.7700 H   0  0  0  0  0  0  0  0  0  0  0  0
    3.7107   -5.5746   -2.5369 H   0  0  0  0  0  0  0  0  0  0  0  0
    5.1353   -3.7199   -2.4741 H   0  0  0  0  0  0  0  0  0  0  0  0
    5.9875   -5.2313   -2.0154 H   0  0  0  0  0  0  0  0  0  0  0  0
    6.6514   -3.6501   -1.5501 H   0  0  0  0  0  0  0  0  0  0  0  0
    2.8919   -5.0306    1.6232 H   0  0  0  0  0  0  0  0  0  0  0  0
    0.7716   -6.2958    1.3627 H   0  0  0  0  0  0  0  0  0  0  0  0
    1.8216   -9.1230   -0.4191 H   0  0  0  0  0  0  0  0  0  0  0  0
    2.0139  -11.3903   -1.3682 H   0  0  0  0  0  0  0  0  0  0  0  0
   -1.8992  -12.9926   -3.6840 H   0  0  0  0  0  0  0  0  0  0  0  0
   -0.8967  -14.1996   -4.5103 H   0  0  0  0  0  0  0  0  0  0  0  0
   -0.8838  -12.5169   -5.0858 H   0  0  0  0  0  0  0  0  0  0  0  0
   -1.4759  -10.6775   -3.7394 H   0  0  0  0  0  0  0  0  0  0  0  0
   -1.6717   -8.4546   -2.7941 H   0  0  0  0  0  0  0  0  0  0  0  0
   -3.7194   -9.3544   -0.3468 H   0  0  0  0  0  0  0  0  0  0  0  0
    1.6705  -10.3051    2.6766 H   0  0  0  0  0  0  0  0  0  0  0  0
   -0.9475  -14.1013    0.5807 H   0  0  0  0  0  0  0  0  0  0  0  0
    1.2228  -15.3016    2.9612 H   0  0  0  0  0  0  0  0  0  0  0  0
    2.2083  -15.8006    0.5362 H   0  0  0  0  0  0  0  0  0  0  0  0
    3.8311  -16.8456    2.3223 H   0  0  0  0  0  0  0  0  0  0  0  0
    5.2386  -14.8739    3.4123 H   0  0  0  0  0  0  0  0  0  0  0  0
    4.4843  -12.6175    2.2988 H   0  0  0  0  0  0  0  0  0  0  0  0
    4.2539  -14.1650    0.1630 H   0  0  0  0  0  0  0  0  0  0  0  0
    2.7724  -13.1907    0.3035 H   0  0  0  0  0  0  0  0  0  0  0  0
    2.6079  -13.3752    4.0340 H   0  0  0  0  0  0  0  0  0  0  0  0
  1  2  2  0  0  0  0
  2  3  1  0  0  0  0
  3  4  2  0  0  0  0
  3  5  1  0  0  0  0
  5  6  2  0  0  0  0
  6  7  1  0  0  0  0
  7  8  2  0  0  0  0
  8  9  1  0  0  0  0
  9 10  2  0  0  0  0
 10 11  1  0  0  0  0
 11 12  2  0  0  0  0
 12 13  1  0  0  0  0
 13 14  3  0  0  0  0
 12 15  1  0  0  0  0
 15 16  3  0  0  0  0
  8 17  1  0  0  0  0
 17 18  1  0  0  0  0
 18 19  1  0  0  0  0
 19 20  2  0  0  0  0
 20 21  1  0  0  0  0
 21 22  1  0  0  0  0
 21 23  1  0  0  0  0
  1 24  1  0  0  0  0
 24 25  2  0  0  0  0
 25 26  1  0  0  0  0
 26 27  2  0  0  0  0
 27 28  1  0  0  0  0
 28 29  2  0  0  0  0
 29 30  1  0  0  0  0
 30 31  2  0  0  0  0
 31 32  1  0  0  0  0
 32 33  1  0  0  0  0
 33 34  1  0  0  0  0
 31 35  1  0  0  0  0
 35 36  1  0  0  0  0
 35 37  2  0  0  0  0
 27 38  1  0  0  0  0
 38 39  2  0  0  0  0
 39 40  1  0  0  0  0
 40 41  1  0  0  0  0
 41 42  2  0  0  0  0
 42 43  1  0  0  0  0
 43 44  2  0  0  0  0
 44 45  1  0  0  0  0
 45 46  1  0  0  0  0
 46 47  1  0  0  0  0
 44 48  1  0  0  0  0
 48 49  2  0  0  0  0
 48 50  1  0  0  0  0
 40 51  2  0  0  0  0
 51 52  1  0  0  0  0
 39 53  1  0  0  0  0
 53 54  2  0  0  0  0
 54 55  1  0  0  0  0
 54 56  1  0  0  0  0
 56 57  2  0  0  0  0
 57 58  1  0  0  0  0
 58 59  1  0  0  0  0
 59 60  2  0  0  0  0
 60 61  1  0  0  0  0
 61 62  2  0  0  0  0
 62 63  1  0  0  0  0
 63 64  1  0  0  0  0
 62 65  1  0  0  0  0
 65 66  2  0  0  0  0
 58 67  1  0  0  0  0
 67 68  2  0  0  0  0
 68 69  1  0  0  0  0
 69 70  2  0  0  0  0
 70 71  1  0  0  0  0
 71 72  1  0  0  0  0
 70 73  1  0  0  0  0
 73 74  2  0  0  0  0
 57 75  1  0  0  0  0
 75 76  1  0  0  0  0
 76 77  1  0  0  0  0
 77 78  2  0  0  0  0
 78 79  1  0  0  0  0
 79 80  1  0  0  0  0
 80 81  2  0  0  0  0
 81 82  1  0  0  0  0
 82 83  2  0  0  0  0
 83 84  1  0  0  0  0
 84 85  1  0  0  0  0
 83 86  1  0  0  0  0
 86 87  2  0  0  0  0
 79 88  1  0  0  0  0
 88 89  2  0  0  0  0
 89 90  1  0  0  0  0
 90 91  2  0  0  0  0
 91 92  1  0  0  0  0
 92 93  1  0  0  0  0
 91 94  1  0  0  0  0
 94 95  2  0  0  0  0
 78 96  1  0  0  0  0
 96 97  1  0  0  0  0
 77 98  1  0  0  0  0
 98 99  2  0  0  0  0
 99100  1  0  0  0  0
100101  1  0  0  0  0
101102  2  0  0  0  0
102103  1  0  0  0  0
103104  2  0  0  0  0
104105  1  0  0  0  0
105106  1  0  0  0  0
104107  1  0  0  0  0
107108  2  0  0  0  0
100109  1  0  0  0  0
109110  2  0  0  0  0
110111  1  0  0  0  0
111112  2  0  0  0  0
112113  1  0  0  0  0
113114  1  0  0  0  0
112115  1  0  0  0  0
115116  2  0  0  0  0
 99117  1  0  0  0  0
117118  1  0  0  0  0
118119  1  0  0  0  0
119120  2  0  0  0  0
120121  1  0  0  0  0
121122  1  0  0  0  0
122123  2  0  0  0  0
123124  1  0  0  0  0
124125  2  0  0  0  0
125126  1  0  0  0  0
126127  1  0  0  0  0
125128  1  0  0  0  0
128129  2  0  0  0  0
121130  1  0  0  0  0
130131  2  0  0  0  0
131132  1  0  0  0  0
132133  2  0  0  0  0
133134  1  0  0  0  0
134135  1  0  0  0  0
133136  1  0  0  0  0
136137  2  0  0  0  0
120138  1  0  0  0  0
138139  1  0  0  0  0
119140  1  0  0  0  0
140141  2  0  0  0  0
141142  1  0  0  0  0
142143  2  0  0  0  0
142144  1  0  0  0  0
144145  2  0  0  0  0
145146  1  0  0  0  0
146147  2  0  0  0  0
147148  1  0  0  0  0
148149  2  0  0  0  0
149150  1  0  0  0  0
150151  2  0  0  0  0
151152  1  0  0  0  0
152153  3  0  0  0  0
151154  1  0  0  0  0
154155  3  0  0  0  0
147156  1  0  0  0  0
156157  1  0  0  0  0
157158  1  0  0  0  0
158159  2  0  0  0  0
159160  1  0  0  0  0
160161  1  0  0  0  0
160162  1  0  0  0  0
 11  2  1  0  0  0  0
 23 17  1  0  0  0  0
 52 24  1  0  0  0  0
 97 56  1  0  0  0  0
139 98  1  0  0  0  0
150141  1  0  0  0  0
162156  1  0  0  0  0
 10  5  1  0  0  0  0
 22 18  1  0  0  0  0
 51 26  1  0  0  0  0
 66 59  1  0  0  0  0
 74 67  1  0  0  0  0
 96 75  2  0  0  0  0
108101  1  0  0  0  0
116109  1  0  0  0  0
138117  2  0  0  0  0
149144  1  0  0  0  0
161157  1  0  0  0  0
 23  7  1  0  0  0  0
 37 28  1  0  0  0  0
 55 38  1  0  0  0  0
 87 80  1  0  0  0  0
 95 88  1  0  0  0  0
129122  1  0  0  0  0
137130  1  0  0  0  0
162146  1  0  0  0  0
 49 41  1  0  0  0  0
  1163  1  0  0  0  0
  6164  1  0  0  0  0
  9165  1  0  0  0  0
 17166  1  0  0  0  0
 18167  1  0  0  0  0
 19168  1  0  0  0  0
 20169  1  0  0  0  0
 21170  1  0  0  0  0
 22171  1  0  0  0  0
 22172  1  0  0  0  0
 23173  1  0  0  0  0
 25174  1  0  0  0  0
 29175  1  0  0  0  0
 30176  1  0  0  0  0
 33177  1  0  0  0  0
 33178  1  0  0  0  0
 34179  1  0  0  0  0
 34180  1  0  0  0  0
 34181  1  0  0  0  0
 37182  1  0  0  0  0
 42183  1  0  0  0  0
 43184  1  0  0  0  0
 46185  1  0  0  0  0
 46186  1  0  0  0  0
 47187  1  0  0  0  0
 47188  1  0  0  0  0
 47189  1  0  0  0  0
 49190  1  0  0  0  0
 53191  1  0  0  0  0
 60192  1  0  0  0  0
 61193  1  0  0  0  0
 64194  1  0  0  0  0
 64195  1  0  0  0  0
 64196  1  0  0  0  0
 65197  1  0  0  0  0
 66198  1  0  0  0  0
 68199  1  0  0  0  0
 69200  1  0  0  0  0
 72201  1  0  0  0  0
 72202  1  0  0  0  0
 72203  1  0  0  0  0
 73204  1  0  0  0  0
 74205  1  0  0  0  0
 81206  1  0  0  0  0
 82207  1  0  0  0  0
 85208  1  0  0  0  0
 85209  1  0  0  0  0
 85210  1  0  0  0  0
 86211  1  0  0  0  0
 87212  1  0  0  0  0
 89213  1  0  0  0  0
 90214  1  0  0  0  0
 93215  1  0  0  0  0
 93216  1  0  0  0  0
 93217  1  0  0  0  0
 94218  1  0  0  0  0
 95219  1  0  0  0  0
102220  1  0  0  0  0
103221  1  0  0  0  0
106222  1  0  0  0  0
106223  1  0  0  0  0
106224  1  0  0  0  0
107225  1  0  0  0  0
108226  1  0  0  0  0
110227  1  0  0  0  0
111228  1  0  0  0  0
114229  1  0  0  0  0
114230  1  0  0  0  0
114231  1  0  0  0  0
115232  1  0  0  0  0
116233  1  0  0  0  0
123234  1  0  0  0  0
124235  1  0  0  0  0
127236  1  0  0  0  0
127237  1  0  0  0  0
127238  1  0  0  0  0
128239  1  0  0  0  0
129240  1  0  0  0  0
131241  1  0  0  0  0
132242  1  0  0  0  0
135243  1  0  0  0  0
135244  1  0  0  0  0
135245  1  0  0  0  0
136246  1  0  0  0  0
137247  1  0  0  0  0
140248  1  0  0  0  0
145249  1  0  0  0  0
148250  1  0  0  0  0
156251  1  0  0  0  0
157252  1  0  0  0  0
158253  1  0  0  0  0
159254  1  0  0  0  0
160255  1  0  0  0  0
161256  1  0  0  0  0
161257  1  0  0  0  0
162258  1  0  0  0  0
M  END
