
  xtb     02132204503D
 energy: -267.788627621730 gnorm: 0.000577112622 xtb: 6.4.1 (unknown)
162179  0     0  0            999 V2000
   -4.2965    0.5397   -6.1007 C   0  0  0  0  0  0  0  0  0  0  0  0
   -3.4301    0.9098   -7.0967 C   0  0  0  0  0  0  0  0  0  0  0  0
   -1.9683    1.0270   -6.9874 C   0  0  0  0  0  0  0  0  0  0  0  0
   -1.2498    0.6301   -6.0886 O   0  0  0  0  0  0  0  0  0  0  0  0
   -1.5277    1.7580   -8.1906 C   0  0  0  0  0  0  0  0  0  0  0  0
   -0.2355    2.1843   -8.4856 C   0  0  0  0  0  0  0  0  0  0  0  0
   -0.1319    2.8776   -9.6677 C   0  0  0  0  0  0  0  0  0  0  0  0
   -1.2339    3.1329  -10.4943 C   0  0  0  0  0  0  0  0  0  0  0  0
   -2.5135    2.7136  -10.2171 C   0  0  0  0  0  0  0  0  0  0  0  0
   -2.6393    2.0013   -9.0217 C   0  0  0  0  0  0  0  0  0  0  0  0
   -3.8206    1.4085   -8.3990 C   0  0  0  0  0  0  0  0  0  0  0  0
   -5.0532    1.2817   -8.9889 C   0  0  0  0  0  0  0  0  0  0  0  0
   -6.1491    0.5963   -8.4267 C   0  0  0  0  0  0  0  0  0  0  0  0
   -7.0753    0.0317   -8.0464 N   0  0  0  0  0  0  0  0  0  0  0  0
   -5.3783    1.7698  -10.2705 C   0  0  0  0  0  0  0  0  0  0  0  0
   -5.7144    2.1414  -11.3040 N   0  0  0  0  0  0  0  0  0  0  0  0
   -0.4034    3.8839  -11.5046 C   0  0  0  0  0  0  0  0  0  0  0  0
   -0.0297    3.1537  -12.8179 C   0  0  0  0  0  0  0  0  0  0  0  0
   -0.0288    1.6785  -12.5022 C   0  0  0  0  0  0  0  0  0  0  0  0
    1.0149    1.4324  -11.7216 C   0  0  0  0  0  0  0  0  0  0  0  0
    1.7386    2.7368  -11.4955 C   0  0  0  0  0  0  0  0  0  0  0  0
    1.4828    3.4262  -12.8452 C   0  0  0  0  0  0  0  0  0  0  0  0
    0.8255    3.5956  -10.5858 C   0  0  0  0  0  0  0  0  0  0  0  0
   -4.0357    0.0697   -4.8074 C   0  0  0  0  0  0  0  0  0  0  0  0
   -5.0300   -0.1569   -3.8363 C   0  0  0  0  0  0  0  0  0  0  0  0
   -6.5018   -0.0103   -4.0315 C   0  0  0  0  0  0  0  0  0  0  0  0
   -7.0704   -1.2103   -4.7936 C   0  0  0  0  0  0  0  0  0  0  0  0
   -4.5915   -0.5745   -2.6569 N   0  0  0  0  0  0  0  0  0  0  0  0
   -3.2856   -0.7315   -2.6301 C   0  0  0  0  0  0  0  0  0  0  0  0
   -2.4755   -0.3223   -4.1252 S   0  0  0  0  0  0  0  0  0  0  0  0
   -2.5526   -1.1082   -1.4867 C   0  0  0  0  0  0  0  0  0  0  0  0
   -3.0034   -1.2879   -0.1741 C   0  0  0  0  0  0  0  0  0  0  0  0
   -4.3100   -1.3028    0.2497 N   0  0  0  0  0  0  0  0  0  0  0  0
   -4.5956   -0.7508    1.5107 C   0  0  0  0  0  0  0  0  0  0  0  0
   -5.4420   -1.4018    2.4027 C   0  0  0  0  0  0  0  0  0  0  0  0
   -5.7080   -0.8594    3.6445 C   0  0  0  0  0  0  0  0  0  0  0  0
   -5.1225    0.3432    4.0196 C   0  0  0  0  0  0  0  0  0  0  0  0
   -5.3810    1.1314    5.5748 S   0  0  0  0  0  0  0  0  0  0  0  0
   -6.4729   -0.0085    6.4711 C   0  0  0  0  0  0  0  0  0  0  0  0
   -4.2746    0.9989    3.1280 C   0  0  0  0  0  0  0  0  0  0  0  0
   -4.0171    0.4622    1.8874 C   0  0  0  0  0  0  0  0  0  0  0  0
   -5.3253   -1.9370   -0.4748 C   0  0  0  0  0  0  0  0  0  0  0  0
   -6.6342   -1.4586   -0.4084 C   0  0  0  0  0  0  0  0  0  0  0  0
   -7.6415   -2.0944   -1.0960 C   0  0  0  0  0  0  0  0  0  0  0  0
   -7.3700   -3.2220   -1.8696 C   0  0  0  0  0  0  0  0  0  0  0  0
   -8.7449   -3.9477   -2.7058 S   0  0  0  0  0  0  0  0  0  0  0  0
   -7.9923   -5.1886   -3.7957 C   0  0  0  0  0  0  0  0  0  0  0  0
   -6.0703   -3.7053   -1.9333 C   0  0  0  0  0  0  0  0  0  0  0  0
   -5.0602   -3.0694   -1.2385 C   0  0  0  0  0  0  0  0  0  0  0  0
   -1.9031   -1.4545    0.7043 C   0  0  0  0  0  0  0  0  0  0  0  0
   -1.7492   -1.6200    2.4229 S   0  0  0  0  0  0  0  0  0  0  0  0
   -0.0109   -1.7683    2.2670 C   0  0  0  0  0  0  0  0  0  0  0  0
    0.4233   -1.6440    0.9587 C   0  0  0  0  0  0  0  0  0  0  0  0
    1.7605   -1.6075    0.5870 N   0  0  0  0  0  0  0  0  0  0  0  0
    2.6614   -0.8736    1.3760 C   0  0  0  0  0  0  0  0  0  0  0  0
    3.9136   -1.3893    1.7100 C   0  0  0  0  0  0  0  0  0  0  0  0
    4.7480   -0.6896    2.5538 C   0  0  0  0  0  0  0  0  0  0  0  0
    4.3583    0.5429    3.0723 C   0  0  0  0  0  0  0  0  0  0  0  0
    5.4629    1.3299    4.2102 S   0  0  0  0  0  0  0  0  0  0  0  0
    4.9654    3.0742    4.1236 C   0  0  0  0  0  0  0  0  0  0  0  0
    3.1302    1.0787    2.7137 C   0  0  0  0  0  0  0  0  0  0  0  0
    2.2921    0.3741    1.8722 C   0  0  0  0  0  0  0  0  0  0  0  0
    2.1714   -2.2577   -0.5793 C   0  0  0  0  0  0  0  0  0  0  0  0
    1.5156   -3.4118   -1.0130 C   0  0  0  0  0  0  0  0  0  0  0  0
    1.9096   -4.0411   -2.1716 C   0  0  0  0  0  0  0  0  0  0  0  0
    2.9735   -3.5443   -2.9213 C   0  0  0  0  0  0  0  0  0  0  0  0
    3.3953   -4.4442   -4.3798 S   0  0  0  0  0  0  0  0  0  0  0  0
    4.6486   -3.4066   -5.1844 C   0  0  0  0  0  0  0  0  0  0  0  0
    3.6378   -2.4054   -2.4862 C   0  0  0  0  0  0  0  0  0  0  0  0
    3.2356   -1.7664   -1.3303 C   0  0  0  0  0  0  0  0  0  0  0  0
   -0.6682   -1.4736    0.0745 C   0  0  0  0  0  0  0  0  0  0  0  0
   -0.8063   -1.2553   -1.6321 S   0  0  0  0  0  0  0  0  0  0  0  0
    0.8615   -1.9054    3.3994 C   0  0  0  0  0  0  0  0  0  0  0  0
    1.8262   -2.8940    3.5844 C   0  0  0  0  0  0  0  0  0  0  0  0
    1.9468   -4.1548    2.7926 C   0  0  0  0  0  0  0  0  0  0  0  0
    0.6858   -5.0116    2.9013 C   0  0  0  0  0  0  0  0  0  0  0  0
    2.6521   -2.6655    4.5966 N   0  0  0  0  0  0  0  0  0  0  0  0
    2.4317   -1.5294    5.2135 C   0  0  0  0  0  0  0  0  0  0  0  0
    1.0244   -0.6700    4.5946 S   0  0  0  0  0  0  0  0  0  0  0  0
    3.3552   -1.0804    6.1775 C   0  0  0  0  0  0  0  0  0  0  0  0
    3.4726    0.1506    6.7540 C   0  0  0  0  0  0  0  0  0  0  0  0
    2.5972    1.3020    6.4996 C   0  0  0  0  0  0  0  0  0  0  0  0
    1.5399    1.3108    5.8916 O   0  0  0  0  0  0  0  0  0  0  0  0
    3.2569    2.4672    7.1098 C   0  0  0  0  0  0  0  0  0  0  0  0
    2.8154    3.7894    7.0849 C   0  0  0  0  0  0  0  0  0  0  0  0
    3.6521    4.6710    7.7254 C   0  0  0  0  0  0  0  0  0  0  0  0
    4.8409    4.2663    8.3481 C   0  0  0  0  0  0  0  0  0  0  0  0
    5.2827    2.9651    8.3876 C   0  0  0  0  0  0  0  0  0  0  0  0
    4.4460    2.0500    7.7422 C   0  0  0  0  0  0  0  0  0  0  0  0
    4.5759    0.6031    7.5865 C   0  0  0  0  0  0  0  0  0  0  0  0
    5.5473   -0.1751    8.1530 C   0  0  0  0  0  0  0  0  0  0  0  0
    5.6316   -1.5821    8.0632 C   0  0  0  0  0  0  0  0  0  0  0  0
    5.7703   -2.7216    8.0706 N   0  0  0  0  0  0  0  0  0  0  0  0
    6.5995    0.3200    8.9532 C   0  0  0  0  0  0  0  0  0  0  0  0
    7.4793    0.6522    9.6114 N   0  0  0  0  0  0  0  0  0  0  0  0
    5.1760    5.6668    8.7961 C   0  0  0  0  0  0  0  0  0  0  0  0
    6.2585    6.4451    8.0089 C   0  0  0  0  0  0  0  0  0  0  0  0
    6.2587    5.8864    6.6080 C   0  0  0  0  0  0  0  0  0  0  0  0
    5.1346    6.2716    6.0181 C   0  0  0  0  0  0  0  0  0  0  0  0
    4.3530    7.0956    7.0108 C   0  0  0  0  0  0  0  0  0  0  0  0
    5.5074    7.7656    7.7734 C   0  0  0  0  0  0  0  0  0  0  0  0
    3.8519    6.1178    8.1026 C   0  0  0  0  0  0  0  0  0  0  0  0
   -5.3514    0.6596   -6.3116 H   0  0  0  0  0  0  0  0  0  0  0  0
    0.5840    1.9728   -7.8164 H   0  0  0  0  0  0  0  0  0  0  0  0
   -3.3527    2.9243  -10.8589 H   0  0  0  0  0  0  0  0  0  0  0  0
   -0.6818    4.9226  -11.6719 H   0  0  0  0  0  0  0  0  0  0  0  0
   -0.6100    3.4586  -13.6846 H   0  0  0  0  0  0  0  0  0  0  0  0
   -0.7961    0.9978  -12.8212 H   0  0  0  0  0  0  0  0  0  0  0  0
    1.2937    0.5044  -11.2577 H   0  0  0  0  0  0  0  0  0  0  0  0
    2.7695    2.6622  -11.1590 H   0  0  0  0  0  0  0  0  0  0  0  0
    1.7327    4.4864  -12.8451 H   0  0  0  0  0  0  0  0  0  0  0  0
    1.9855    2.9298  -13.6739 H   0  0  0  0  0  0  0  0  0  0  0  0
    1.3511    4.4465  -10.1558 H   0  0  0  0  0  0  0  0  0  0  0  0
   -6.7356    0.9123   -4.5651 H   0  0  0  0  0  0  0  0  0  0  0  0
   -6.9539    0.0302   -3.0398 H   0  0  0  0  0  0  0  0  0  0  0  0
   -6.7429   -2.1315   -4.3190 H   0  0  0  0  0  0  0  0  0  0  0  0
   -8.1561   -1.1769   -4.7772 H   0  0  0  0  0  0  0  0  0  0  0  0
   -6.7433   -1.2117   -5.8302 H   0  0  0  0  0  0  0  0  0  0  0  0
   -5.8911   -2.3426    2.1216 H   0  0  0  0  0  0  0  0  0  0  0  0
   -6.3667   -1.3910    4.3116 H   0  0  0  0  0  0  0  0  0  0  0  0
   -5.9850   -0.9713    6.5912 H   0  0  0  0  0  0  0  0  0  0  0  0
   -6.6334    0.4466    7.4435 H   0  0  0  0  0  0  0  0  0  0  0  0
   -7.4207   -0.1055    5.9498 H   0  0  0  0  0  0  0  0  0  0  0  0
   -3.8272    1.9355    3.4225 H   0  0  0  0  0  0  0  0  0  0  0  0
   -3.3704    0.9804    1.1949 H   0  0  0  0  0  0  0  0  0  0  0  0
   -6.8503   -0.5752    0.1729 H   0  0  0  0  0  0  0  0  0  0  0  0
   -8.6534   -1.7214   -1.0533 H   0  0  0  0  0  0  0  0  0  0  0  0
   -7.5501   -5.9880   -3.2079 H   0  0  0  0  0  0  0  0  0  0  0  0
   -7.2567   -4.7164   -4.4402 H   0  0  0  0  0  0  0  0  0  0  0  0
   -8.8071   -5.5820   -4.3954 H   0  0  0  0  0  0  0  0  0  0  0  0
   -5.8294   -4.5812   -2.5146 H   0  0  0  0  0  0  0  0  0  0  0  0
   -4.0545   -3.4593   -1.2894 H   0  0  0  0  0  0  0  0  0  0  0  0
    4.2199   -2.3479    1.3203 H   0  0  0  0  0  0  0  0  0  0  0  0
    5.7051   -1.0998    2.8356 H   0  0  0  0  0  0  0  0  0  0  0  0
    4.9490    3.3916    3.0853 H   0  0  0  0  0  0  0  0  0  0  0  0
    3.9984    3.2190    4.5965 H   0  0  0  0  0  0  0  0  0  0  0  0
    5.7219    3.6244    4.6739 H   0  0  0  0  0  0  0  0  0  0  0  0
    2.8013    2.0300    3.0992 H   0  0  0  0  0  0  0  0  0  0  0  0
    1.3293    0.7880    1.6108 H   0  0  0  0  0  0  0  0  0  0  0  0
    0.6981   -3.8158   -0.4344 H   0  0  0  0  0  0  0  0  0  0  0  0
    1.4014   -4.9317   -2.5077 H   0  0  0  0  0  0  0  0  0  0  0  0
    4.8683   -3.8941   -6.1292 H   0  0  0  0  0  0  0  0  0  0  0  0
    4.2430   -2.4155   -5.3649 H   0  0  0  0  0  0  0  0  0  0  0  0
    5.5476   -3.3633   -4.5762 H   0  0  0  0  0  0  0  0  0  0  0  0
    4.4670   -1.9973   -3.0409 H   0  0  0  0  0  0  0  0  0  0  0  0
    3.7486   -0.8730   -1.0072 H   0  0  0  0  0  0  0  0  0  0  0  0
    2.8047   -4.7037    3.1811 H   0  0  0  0  0  0  0  0  0  0  0  0
    2.1341   -3.9181    1.7436 H   0  0  0  0  0  0  0  0  0  0  0  0
   -0.1783   -4.4775    2.5119 H   0  0  0  0  0  0  0  0  0  0  0  0
    0.4917   -5.2687    3.9397 H   0  0  0  0  0  0  0  0  0  0  0  0
    0.8108   -5.9306    2.3342 H   0  0  0  0  0  0  0  0  0  0  0  0
    4.1220   -1.8192    6.3739 H   0  0  0  0  0  0  0  0  0  0  0  0
    1.8892    4.0560    6.5990 H   0  0  0  0  0  0  0  0  0  0  0  0
    6.1977    2.6722    8.8741 H   0  0  0  0  0  0  0  0  0  0  0  0
    5.2628    5.8116    9.8710 H   0  0  0  0  0  0  0  0  0  0  0  0
    7.2247    6.4989    8.5030 H   0  0  0  0  0  0  0  0  0  0  0  0
    7.0315    5.2467    6.2227 H   0  0  0  0  0  0  0  0  0  0  0  0
    4.7755    6.0198    5.0372 H   0  0  0  0  0  0  0  0  0  0  0  0
    3.5844    7.7428    6.5964 H   0  0  0  0  0  0  0  0  0  0  0  0
    5.1931    8.2561    8.6934 H   0  0  0  0  0  0  0  0  0  0  0  0
    6.0691    8.4655    7.1566 H   0  0  0  0  0  0  0  0  0  0  0  0
    3.0753    6.5573    8.7255 H   0  0  0  0  0  0  0  0  0  0  0  0
  1  2  2  0  0  0  0
  2  3  1  0  0  0  0
  3  4  2  0  0  0  0
  3  5  1  0  0  0  0
  5  6  2  0  0  0  0
  6  7  1  0  0  0  0
  7  8  2  0  0  0  0
  8  9  1  0  0  0  0
  9 10  2  0  0  0  0
 10 11  1  0  0  0  0
 11 12  2  0  0  0  0
 12 13  1  0  0  0  0
 13 14  3  0  0  0  0
 12 15  1  0  0  0  0
 15 16  3  0  0  0  0
  8 17  1  0  0  0  0
 17 18  1  0  0  0  0
 18 19  1  0  0  0  0
 19 20  2  0  0  0  0
 20 21  1  0  0  0  0
 21 22  1  0  0  0  0
 21 23  1  0  0  0  0
  1 24  1  0  0  0  0
 24 25  2  0  0  0  0
 25 26  1  0  0  0  0
 26 27  1  0  0  0  0
 25 28  1  0  0  0  0
 28 29  2  0  0  0  0
 29 30  1  0  0  0  0
 29 31  1  0  0  0  0
 31 32  2  0  0  0  0
 32 33  1  0  0  0  0
 33 34  1  0  0  0  0
 34 35  2  0  0  0  0
 35 36  1  0  0  0  0
 36 37  2  0  0  0  0
 37 38  1  0  0  0  0
 38 39  1  0  0  0  0
 37 40  1  0  0  0  0
 40 41  2  0  0  0  0
 33 42  1  0  0  0  0
 42 43  2  0  0  0  0
 43 44  1  0  0  0  0
 44 45  2  0  0  0  0
 45 46  1  0  0  0  0
 46 47  1  0  0  0  0
 45 48  1  0  0  0  0
 48 49  2  0  0  0  0
 32 50  1  0  0  0  0
 50 51  1  0  0  0  0
 51 52  1  0  0  0  0
 52 53  2  0  0  0  0
 53 54  1  0  0  0  0
 54 55  1  0  0  0  0
 55 56  2  0  0  0  0
 56 57  1  0  0  0  0
 57 58  2  0  0  0  0
 58 59  1  0  0  0  0
 59 60  1  0  0  0  0
 58 61  1  0  0  0  0
 61 62  2  0  0  0  0
 54 63  1  0  0  0  0
 63 64  2  0  0  0  0
 64 65  1  0  0  0  0
 65 66  2  0  0  0  0
 66 67  1  0  0  0  0
 67 68  1  0  0  0  0
 66 69  1  0  0  0  0
 69 70  2  0  0  0  0
 53 71  1  0  0  0  0
 71 72  1  0  0  0  0
 52 73  1  0  0  0  0
 73 74  2  0  0  0  0
 74 75  1  0  0  0  0
 75 76  1  0  0  0  0
 74 77  1  0  0  0  0
 77 78  2  0  0  0  0
 78 79  1  0  0  0  0
 78 80  1  0  0  0  0
 80 81  2  0  0  0  0
 81 82  1  0  0  0  0
 82 83  2  0  0  0  0
 82 84  1  0  0  0  0
 84 85  2  0  0  0  0
 85 86  1  0  0  0  0
 86 87  2  0  0  0  0
 87 88  1  0  0  0  0
 88 89  2  0  0  0  0
 89 90  1  0  0  0  0
 90 91  2  0  0  0  0
 91 92  1  0  0  0  0
 92 93  3  0  0  0  0
 91 94  1  0  0  0  0
 94 95  3  0  0  0  0
 87 96  1  0  0  0  0
 96 97  1  0  0  0  0
 97 98  1  0  0  0  0
 98 99  2  0  0  0  0
 99100  1  0  0  0  0
100101  1  0  0  0  0
100102  1  0  0  0  0
 11  2  1  0  0  0  0
 23 17  1  0  0  0  0
 30 24  1  0  0  0  0
 72 31  1  0  0  0  0
 79 73  1  0  0  0  0
 90 81  1  0  0  0  0
102 96  1  0  0  0  0
 10  5  1  0  0  0  0
 22 18  1  0  0  0  0
 41 34  1  0  0  0  0
 49 42  1  0  0  0  0
 71 50  2  0  0  0  0
 89 84  1  0  0  0  0
101 97  1  0  0  0  0
 23  7  1  0  0  0  0
 62 55  1  0  0  0  0
 70 63  1  0  0  0  0
102 86  1  0  0  0  0
  1103  1  0  0  0  0
  6104  1  0  0  0  0
  9105  1  0  0  0  0
 17106  1  0  0  0  0
 18107  1  0  0  0  0
 19108  1  0  0  0  0
 20109  1  0  0  0  0
 21110  1  0  0  0  0
 22111  1  0  0  0  0
 22112  1  0  0  0  0
 23113  1  0  0  0  0
 26114  1  0  0  0  0
 26115  1  0  0  0  0
 27116  1  0  0  0  0
 27117  1  0  0  0  0
 27118  1  0  0  0  0
 35119  1  0  0  0  0
 36120  1  0  0  0  0
 39121  1  0  0  0  0
 39122  1  0  0  0  0
 39123  1  0  0  0  0
 40124  1  0  0  0  0
 41125  1  0  0  0  0
 43126  1  0  0  0  0
 44127  1  0  0  0  0
 47128  1  0  0  0  0
 47129  1  0  0  0  0
 47130  1  0  0  0  0
 48131  1  0  0  0  0
 49132  1  0  0  0  0
 56133  1  0  0  0  0
 57134  1  0  0  0  0
 60135  1  0  0  0  0
 60136  1  0  0  0  0
 60137  1  0  0  0  0
 61138  1  0  0  0  0
 62139  1  0  0  0  0
 64140  1  0  0  0  0
 65141  1  0  0  0  0
 68142  1  0  0  0  0
 68143  1  0  0  0  0
 68144  1  0  0  0  0
 69145  1  0  0  0  0
 70146  1  0  0  0  0
 75147  1  0  0  0  0
 75148  1  0  0  0  0
 76149  1  0  0  0  0
 76150  1  0  0  0  0
 76151  1  0  0  0  0
 80152  1  0  0  0  0
 85153  1  0  0  0  0
 88154  1  0  0  0  0
 96155  1  0  0  0  0
 97156  1  0  0  0  0
 98157  1  0  0  0  0
 99158  1  0  0  0  0
100159  1  0  0  0  0
101160  1  0  0  0  0
101161  1  0  0  0  0
102162  1  0  0  0  0
M  END
