250

C         -3.19410       -0.07100       10.99690
C         -2.03810        0.35200       11.56770
C         -1.90280        0.46610       13.04620
O         -2.62240       -0.03130       13.88200
C         -0.74790        1.36180       13.25890
C         -0.28420        1.86900       14.47200
C          0.80870        2.69380       14.35480
C          1.39530        3.00880       13.12070
C          0.95440        2.51550       11.91680
C         -0.14790        1.66200       12.01660
C         -0.83370        0.90670       10.97620
C         -0.30860        0.57440        9.75520
C          0.83450        1.16710        9.18630
N          1.72270        1.65170        8.64150
C         -0.84660       -0.44170        8.93470
N         -1.21360       -1.30990        8.27920
C          2.44530        3.88750       13.75270
C          3.86100        3.28470       13.87410
C          4.52770        4.13650       14.92980
C          3.97720        3.83420       16.09870
C          2.92930        2.77270       15.85260
C          3.58860        2.01590       14.69230
C          1.79650        3.53180       15.12880
C         -3.57510        0.11360        9.63700
C         -4.33500       -0.72080        8.86240
C         -4.37700       -0.35620        7.49620
C         -4.92470       -1.06830        6.40460
C         -5.60300       -2.33930        6.53670
C         -6.67320       -2.75560        5.79180
C         -7.11280       -4.07190        6.03830
C         -6.40090       -4.76780        6.96870
C         -6.66780       -6.16650        7.42660
C         -5.47830       -6.78490        8.14840
Se        -5.01700       -3.71900        7.67300
C         -4.70810       -0.51720        5.14310
C         -4.00610        0.69220        4.93260
C         -3.47720        1.41610        6.01970
C         -2.62760        2.56870        5.79730
C         -2.84370        3.60130        4.93330
C         -1.76970        4.50570        4.78400
C         -0.65390        4.22000        5.50920
C          0.64020        4.96620        5.49600
C          1.43600        4.77000        6.77960
Se        -0.90310        2.67990        6.55340
C         -3.68060        0.85720        7.26830
S         -3.02270        1.51380        8.73410
C         -3.73900        0.93030        3.56930
C         -4.17220       -0.06510        2.73980
S         -5.04280       -1.30540        3.61660
C         -3.78960       -0.19340        1.37250
C         -3.32400        0.83470        0.56660
N         -3.48070        2.19700        0.82460
C         -4.76610        2.68920        1.06380
C         -4.98890        3.80470        1.86610
C         -6.27000        4.26940        2.09700
C         -7.35930        3.62720        1.52680
S         -9.03940        4.12670        1.74970
C         -8.91260        5.68930        2.66630
C         -7.14390        2.51000        0.72250
C         -5.86870        2.04820        0.49570
C         -2.32880        2.98010        0.96140
C         -1.17630        2.43260        1.52980
C         -0.06060        3.21250        1.73160
C         -0.06250        4.55640        1.36660
S          1.40050        5.47480        1.73730
C          1.14670        7.06170        0.89300
C         -1.18940        5.09510        0.76060
C         -2.30740        4.31090        0.55300
C         -2.69300        0.33200       -0.58730
S         -1.84620        1.06810       -1.89040
C         -1.55480       -0.50920       -2.61790
C         -2.00450       -1.54330       -1.81790
N         -1.76270       -2.90740       -2.05180
C         -2.94260       -3.69270       -2.03380
C         -3.29190       -4.48990       -0.95010
C         -4.49940       -5.16230       -0.93490
C         -5.37370       -5.04520       -2.00710
S         -6.96060       -5.81450       -2.08350
C         -7.16430       -6.56410       -0.44400
C         -5.00870       -4.27540       -3.11010
C         -3.80660       -3.60300       -3.12100
C         -0.54730       -3.44340       -1.61860
C          0.45740       -2.63210       -1.08880
C          1.63710       -3.18250       -0.64060
C          1.84350       -4.55590       -0.69660
S          3.37500       -5.16570       -0.05300
C          2.97770       -6.88110        0.38390
C          0.86810       -5.36460       -1.26230
C         -0.30790       -4.81210       -1.72850
C         -2.69430       -1.05180       -0.68560
S         -3.53630       -1.77140        0.64620
C         -0.89220       -0.54430       -3.87830
C         -1.02270        0.42100       -4.87360
N         -2.00020        1.40420       -4.91270
C         -1.67620        2.66500       -5.43530
C         -2.57190        3.33690       -6.26090
C         -2.24930        4.56950       -6.79280
C         -1.01660        5.14530       -6.51470
S         -0.49350        6.71090       -7.14100
C         -1.76270        7.13520       -8.36790
C         -0.12070        4.47870       -5.68150
C         -0.44650        3.25440       -5.14270
C         -3.29040        1.13990       -4.43820
C         -3.83490       -0.13820       -4.54150
C         -5.03190       -0.44710       -3.92860
C         -5.70720        0.51970       -3.19690
S         -7.18440        0.15920       -2.29250
C         -6.93570       -1.58130       -1.82300
C         -5.21860        1.82260       -3.16740
C         -4.02560        2.13160       -3.78330
C         -0.05870        0.22550       -5.88490
S          0.38090        1.13880       -7.27860
C          1.74440        0.04780       -7.57120
C          1.69900       -1.09040       -6.73220
N          2.37780       -2.24220       -6.96680
C          3.00030       -2.48830       -8.20800
C          4.32110       -2.93460       -8.23860
C          4.96640       -3.10320       -9.44420
C          4.30310       -2.84810      -10.64340
S          5.25090       -3.01390      -12.11700
C          4.14670       -2.41930      -13.42810
C          2.96110       -2.48150      -10.61540
C          2.32050       -2.29920       -9.40710
C          2.51800       -3.26910       -6.00970
C          2.25880       -4.57410       -6.41550
C          2.47940       -5.63310       -5.55960
C          2.97540       -5.39600       -4.28460
S          3.37260       -6.68410       -3.15290
C          3.13150       -8.21010       -4.11100
C          3.21020       -4.08710       -3.86630
C          2.98290       -3.02810       -4.71950
C          0.71940       -0.91660       -5.72540
S          0.27250       -1.78930       -4.29170
C          2.70770        0.46750       -8.48920
C          4.04500        0.13150       -8.44770
C          4.73970       -0.30510       -7.22730
O          4.25420       -0.53560       -6.13370
C          6.17880       -0.29010       -7.55780
C          7.23620       -0.59340       -6.70670
C          8.47540       -0.46910       -7.28930
C          8.65080       -0.06740       -8.61870
C          7.61270        0.22860       -9.47220
C          6.34630        0.10690       -8.89840
C          5.02390        0.33440       -9.47700
C          4.75300        0.56680      -10.80400
C          3.45370        0.62240      -11.34060
N          2.43280        0.62930      -11.87030
C          5.72540        0.69740      -11.81270
N          6.45520        0.81230      -12.69270
C         10.15520       -0.12540       -8.52120
C         10.91990        1.21290       -8.36710
C          9.96870        2.17950       -7.70670
C          9.80390        1.79080       -6.44940
C         10.64070        0.55340       -6.23740
C         11.82100        0.86170       -7.17220
C          9.95900       -0.58150       -7.04100
H         -3.90760       -0.56340       11.64900
H         -0.76670        1.61050       15.40160
H          1.40300        2.76760       10.96970
H          2.45100        4.92760       13.43220
H          4.38840        3.16980       12.93110
H          5.26760        4.88580       14.71720
H          4.16540        4.28070       17.05750
H          2.61060        2.19140       16.71360
H          4.50760        1.51720       14.99610
H          2.93330        1.30120       14.19810
H          1.37220        4.33490       15.72860
H         -4.78970       -1.60950        9.26700
H         -7.17440       -2.10790        5.09200
H         -7.95630       -4.49850        5.52050
H         -7.53510       -6.16220        8.09560
H         -6.93510       -6.77420        6.55730
H         -5.70160       -7.80330        8.45720
H         -4.60620       -6.80040        7.49650
H         -5.23310       -6.19990        9.03640
H         -3.79040        3.73140        4.43530
H         -1.82770        5.36070        4.12970
H          1.23600        4.62680        4.64220
H          0.43190        6.02810        5.33830
H          1.65380        3.71100        6.93060
H          0.86520        5.12560        7.63660
H          2.37660        5.31320        6.73490
H         -3.14530        1.76010        3.23970
H         -4.15300        4.31930        2.31490
H         -6.39940        5.13180        2.73150
H         -8.50660        5.51170        3.65810
H         -8.30310        6.39520        2.10970
H         -9.92860        6.06300        2.74750
H         -7.98590        2.01390        0.26520
H         -5.72140        1.19010       -0.14030
H         -1.16470        1.39410        1.82750
H          0.82130        2.79080        2.18860
H          0.33190        7.60960        1.35770
H          2.07510        7.61030        1.01770
H          0.95750        6.89040       -0.16250
H         -1.21310        6.12550        0.44350
H         -3.17680        4.73480        0.07300
H         -2.61990       -4.57450       -0.10900
H         -4.74880       -5.76140       -0.07450
H         -7.07390       -5.80120        0.32360
H         -8.16710       -6.98000       -0.43670
H         -6.43650       -7.35780       -0.30240
H         -5.68150       -4.21660       -3.95280
H         -3.51750       -3.00290       -3.96920
H          0.31000       -1.56650       -1.00500
H          2.40420       -2.55070       -0.21980
H          2.94020       -7.49460       -0.51150
H          2.03460       -6.90460        0.92100
H          3.78370       -7.21820        1.02780
H          1.01690       -6.42880       -1.34740
H         -1.05700       -5.45070       -2.17280
H         -3.52650        2.88650       -6.48950
H         -2.96550        5.06440       -7.42840
H         -1.84650        6.33690       -9.09930
H         -1.41130        8.04240       -8.84950
H         -2.71300        7.32510       -7.87710
H          0.83190        4.93560       -5.46180
H          0.24720        2.74640       -4.48940
H         -3.30560       -0.89600       -5.10040
H         -5.43290       -1.44380       -4.01620
H         -7.20140       -2.24290       -2.64190
H         -5.90290       -1.73440       -1.52280
H         -7.59820       -1.75960       -0.98180
H         -5.76580        2.57900       -2.62590
H         -3.62680        3.13250       -3.71770
H          4.84020       -3.12560       -7.31170
H          5.99890       -3.41590       -9.47180
H          4.75800       -2.38530      -14.32460
H          3.78750       -1.42230      -13.19190
H          3.32350       -3.11420      -13.56710
H          2.40770       -2.32420      -11.52620
H          1.28420       -1.99630       -9.39710
H          1.89370       -4.75940       -7.41530
H          2.27070       -6.63250       -5.90450
H          3.75390       -8.19190       -5.00050
H          2.08250       -8.33500       -4.36410
H          3.44970       -9.01760       -3.45840
H          3.59800       -3.91400       -2.87470
H          3.21760       -2.01900       -4.42120
H          2.37580        1.18630       -9.22950
H          7.05950       -0.89530       -5.68580
H          7.75920        0.53970      -10.49340
H         10.65310       -0.81020       -9.20490
H         11.40520        1.56210       -9.27460
H          9.48240        2.98740       -8.22160
H          9.15230        2.20840       -5.70440
H         10.87160        0.30110       -5.20560
H         12.46670        0.00330       -7.35310
H         12.41840        1.70640       -6.83200
H         10.32470       -1.56730       -6.75960
