
  xtb     02132206583D
 energy: -192.316374171657 gnorm: 0.000256549449 xtb: 6.4.1 (unknown)
111124  0     0  0            999 V2000
    3.5690    1.8176   -5.9260 C   0  0  0  0  0  0  0  0  0  0  0  0
    2.8617    1.7114   -7.0933 C   0  0  0  0  0  0  0  0  0  0  0  0
    1.5544    1.0588   -7.2652 C   0  0  0  0  0  0  0  0  0  0  0  0
    0.9204    0.4325   -6.4350 O   0  0  0  0  0  0  0  0  0  0  0  0
    1.1428    1.3198   -8.6538 C   0  0  0  0  0  0  0  0  0  0  0  0
   -0.0490    0.9287   -9.2591 C   0  0  0  0  0  0  0  0  0  0  0  0
   -0.1731    1.3393  -10.5643 C   0  0  0  0  0  0  0  0  0  0  0  0
    0.8180    2.0817  -11.2208 C   0  0  0  0  0  0  0  0  0  0  0  0
    2.0019    2.4658  -10.6372 C   0  0  0  0  0  0  0  0  0  0  0  0
    2.1481    2.0610   -9.3071 C   0  0  0  0  0  0  0  0  0  0  0  0
    3.2468    2.2856   -8.3697 C   0  0  0  0  0  0  0  0  0  0  0  0
    4.4319    2.9059   -8.6726 C   0  0  0  0  0  0  0  0  0  0  0  0
    5.5171    3.0877   -7.7900 C   0  0  0  0  0  0  0  0  0  0  0  0
    6.4482    3.2686   -7.1412 N   0  0  0  0  0  0  0  0  0  0  0  0
    4.7531    3.4437   -9.9369 C   0  0  0  0  0  0  0  0  0  0  0  0
    5.0875    3.9067  -10.9330 N   0  0  0  0  0  0  0  0  0  0  0  0
    0.0203    2.1670  -12.4976 C   0  0  0  0  0  0  0  0  0  0  0  0
   -0.7012    3.5022  -12.8074 C   0  0  0  0  0  0  0  0  0  0  0  0
   -0.9687    4.1645  -11.4786 C   0  0  0  0  0  0  0  0  0  0  0  0
   -1.9060    3.4614  -10.8571 C   0  0  0  0  0  0  0  0  0  0  0  0
   -2.2897    2.3110  -11.7548 C   0  0  0  0  0  0  0  0  0  0  0  0
   -2.1061    2.9692  -13.1315 C   0  0  0  0  0  0  0  0  0  0  0  0
   -1.0834    1.3393  -11.7664 C   0  0  0  0  0  0  0  0  0  0  0  0
    3.2747    1.3388   -4.6403 C   0  0  0  0  0  0  0  0  0  0  0  0
    4.0923    1.5713   -3.5148 C   0  0  0  0  0  0  0  0  0  0  0  0
    5.4086    2.2717   -3.5187 C   0  0  0  0  0  0  0  0  0  0  0  0
    6.5224    1.3366   -3.9988 C   0  0  0  0  0  0  0  0  0  0  0  0
    3.6382    1.0764   -2.3721 N   0  0  0  0  0  0  0  0  0  0  0  0
    2.4932    0.4453   -2.5228 C   0  0  0  0  0  0  0  0  0  0  0  0
    1.8753    0.4174   -4.1527 S   0  0  0  0  0  0  0  0  0  0  0  0
    1.8192   -0.1256   -1.4257 C   0  0  0  0  0  0  0  0  0  0  0  0
    0.3296   -1.0094   -1.5675 S   0  0  0  0  0  0  0  0  0  0  0  0
    0.2053   -1.2697    0.1557 C   0  0  0  0  0  0  0  0  0  0  0  0
    1.3029   -0.6896    0.8059 C   0  0  0  0  0  0  0  0  0  0  0  0
    1.7513   -0.5751    2.1428 C   0  0  0  0  0  0  0  0  0  0  0  0
    2.9278    0.1115    2.2245 C   0  0  0  0  0  0  0  0  0  0  0  0
    3.6969    0.4367    3.4309 C   0  0  0  0  0  0  0  0  0  0  0  0
    4.7047    1.1002    3.4281 O   0  0  0  0  0  0  0  0  0  0  0  0
    3.1443   -0.1053    4.5222 O   0  0  0  0  0  0  0  0  0  0  0  0
    3.7855    0.1641    5.7693 C   0  0  0  0  0  0  0  0  0  0  0  0
    3.3359    1.4993    6.3451 C   0  0  0  0  0  0  0  0  0  0  0  0
    3.5549    0.6610    0.6831 S   0  0  0  0  0  0  0  0  0  0  0  0
    2.2003   -0.0588   -0.0960 C   0  0  0  0  0  0  0  0  0  0  0  0
   -0.8797   -1.9488    0.7428 C   0  0  0  0  0  0  0  0  0  0  0  0
   -1.9472   -2.6254    0.1153 C   0  0  0  0  0  0  0  0  0  0  0  0
   -2.1302   -2.7838   -1.3553 C   0  0  0  0  0  0  0  0  0  0  0  0
   -3.3241   -3.6684   -1.6907 C   0  0  0  0  0  0  0  0  0  0  0  0
   -2.8231   -3.1496    0.9519 N   0  0  0  0  0  0  0  0  0  0  0  0
   -2.5561   -2.9355    2.2217 C   0  0  0  0  0  0  0  0  0  0  0  0
   -1.0762   -2.0163    2.4660 S   0  0  0  0  0  0  0  0  0  0  0  0
   -3.4288   -3.4284    3.2077 C   0  0  0  0  0  0  0  0  0  0  0  0
   -3.4024   -3.2408    4.5616 C   0  0  0  0  0  0  0  0  0  0  0  0
   -2.4386   -2.4069    5.2954 C   0  0  0  0  0  0  0  0  0  0  0  0
   -1.4301   -1.8801    4.8561 O   0  0  0  0  0  0  0  0  0  0  0  0
   -2.9339   -2.3195    6.6764 C   0  0  0  0  0  0  0  0  0  0  0  0
   -2.3845   -1.5750    7.7179 C   0  0  0  0  0  0  0  0  0  0  0  0
   -3.0831   -1.6645    8.8976 C   0  0  0  0  0  0  0  0  0  0  0  0
   -4.2466   -2.4348    9.0308 C   0  0  0  0  0  0  0  0  0  0  0  0
   -4.7973   -3.1759    8.0120 C   0  0  0  0  0  0  0  0  0  0  0  0
   -4.0986   -3.1047    6.8037 C   0  0  0  0  0  0  0  0  0  0  0  0
   -4.3769   -3.7395    5.5169 C   0  0  0  0  0  0  0  0  0  0  0  0
   -5.3534   -4.6704    5.2833 C   0  0  0  0  0  0  0  0  0  0  0  0
   -5.5871   -5.3287    4.0562 C   0  0  0  0  0  0  0  0  0  0  0  0
   -5.8433   -5.9220    3.1072 N   0  0  0  0  0  0  0  0  0  0  0  0
   -6.2566   -5.1397    6.2613 C   0  0  0  0  0  0  0  0  0  0  0  0
   -7.0215   -5.5673    7.0029 N   0  0  0  0  0  0  0  0  0  0  0  0
   -4.4241   -2.0598   10.4805 C   0  0  0  0  0  0  0  0  0  0  0  0
   -4.0268   -3.1073   11.5497 C   0  0  0  0  0  0  0  0  0  0  0  0
   -2.9710   -3.9821   10.9204 C   0  0  0  0  0  0  0  0  0  0  0  0
   -1.8674   -3.2573   10.7942 C   0  0  0  0  0  0  0  0  0  0  0  0
   -2.1569   -1.8792   11.3361 C   0  0  0  0  0  0  0  0  0  0  0  0
   -3.1480   -2.2314   12.4569 C   0  0  0  0  0  0  0  0  0  0  0  0
   -3.1259   -1.2050   10.3330 C   0  0  0  0  0  0  0  0  0  0  0  0
    4.4954    2.3742   -5.9715 H   0  0  0  0  0  0  0  0  0  0  0  0
   -0.7853    0.3581   -8.7150 H   0  0  0  0  0  0  0  0  0  0  0  0
    2.7522    3.0367  -11.1579 H   0  0  0  0  0  0  0  0  0  0  0  0
    0.4845    1.7318  -13.3802 H   0  0  0  0  0  0  0  0  0  0  0  0
   -0.2118    4.1153  -13.5593 H   0  0  0  0  0  0  0  0  0  0  0  0
   -0.4252    5.0165  -11.1142 H   0  0  0  0  0  0  0  0  0  0  0  0
   -2.3021    3.6085   -9.8693 H   0  0  0  0  0  0  0  0  0  0  0  0
   -3.2471    1.8397  -11.5485 H   0  0  0  0  0  0  0  0  0  0  0  0
   -2.1212    2.2595  -13.9575 H   0  0  0  0  0  0  0  0  0  0  0  0
   -2.8258    3.7650  -13.3169 H   0  0  0  0  0  0  0  0  0  0  0  0
   -1.3409    0.3627  -12.1716 H   0  0  0  0  0  0  0  0  0  0  0  0
    5.6161    2.5813   -2.4941 H   0  0  0  0  0  0  0  0  0  0  0  0
    5.3764    3.1575   -4.1550 H   0  0  0  0  0  0  0  0  0  0  0  0
    6.3464    1.0152   -5.0226 H   0  0  0  0  0  0  0  0  0  0  0  0
    6.5757    0.4585   -3.3600 H   0  0  0  0  0  0  0  0  0  0  0  0
    7.4760    1.8554   -3.9628 H   0  0  0  0  0  0  0  0  0  0  0  0
    1.2461   -0.9679    3.0053 H   0  0  0  0  0  0  0  0  0  0  0  0
    3.4953   -0.6641    6.4190 H   0  0  0  0  0  0  0  0  0  0  0  0
    4.8701    0.1615    5.6194 H   0  0  0  0  0  0  0  0  0  0  0  0
    3.6435    2.3089    5.6878 H   0  0  0  0  0  0  0  0  0  0  0  0
    2.2535    1.5180    6.4472 H   0  0  0  0  0  0  0  0  0  0  0  0
    3.7895    1.6469    7.3210 H   0  0  0  0  0  0  0  0  0  0  0  0
   -2.2620   -1.7932   -1.8028 H   0  0  0  0  0  0  0  0  0  0  0  0
   -1.2164   -3.2071   -1.7839 H   0  0  0  0  0  0  0  0  0  0  0  0
   -3.1931   -4.6571   -1.2606 H   0  0  0  0  0  0  0  0  0  0  0  0
   -4.2352   -3.2420   -1.2820 H   0  0  0  0  0  0  0  0  0  0  0  0
   -3.4273   -3.7613   -2.7684 H   0  0  0  0  0  0  0  0  0  0  0  0
   -4.2416   -4.0015    2.7791 H   0  0  0  0  0  0  0  0  0  0  0  0
   -1.4910   -0.9891    7.5690 H   0  0  0  0  0  0  0  0  0  0  0  0
   -5.6963   -3.7569    8.1307 H   0  0  0  0  0  0  0  0  0  0  0  0
   -5.3493   -1.5436   10.7283 H   0  0  0  0  0  0  0  0  0  0  0  0
   -4.8655   -3.6225   12.0097 H   0  0  0  0  0  0  0  0  0  0  0  0
   -3.1472   -4.9889   10.5901 H   0  0  0  0  0  0  0  0  0  0  0  0
   -0.9367   -3.5378   10.3369 H   0  0  0  0  0  0  0  0  0  0  0  0
   -1.2927   -1.2766   11.6029 H   0  0  0  0  0  0  0  0  0  0  0  0
   -2.6856   -2.7946   13.2659 H   0  0  0  0  0  0  0  0  0  0  0  0
   -3.6700   -1.3659   12.8625 H   0  0  0  0  0  0  0  0  0  0  0  0
   -3.2020   -0.1305   10.4881 H   0  0  0  0  0  0  0  0  0  0  0  0
  1  2  2  0  0  0  0
  2  3  1  0  0  0  0
  3  4  2  0  0  0  0
  3  5  1  0  0  0  0
  5  6  2  0  0  0  0
  6  7  1  0  0  0  0
  7  8  2  0  0  0  0
  8  9  1  0  0  0  0
  9 10  2  0  0  0  0
 10 11  1  0  0  0  0
 11 12  2  0  0  0  0
 12 13  1  0  0  0  0
 13 14  3  0  0  0  0
 12 15  1  0  0  0  0
 15 16  3  0  0  0  0
  8 17  1  0  0  0  0
 17 18  1  0  0  0  0
 18 19  1  0  0  0  0
 19 20  2  0  0  0  0
 20 21  1  0  0  0  0
 21 22  1  0  0  0  0
 21 23  1  0  0  0  0
  1 24  1  0  0  0  0
 24 25  2  0  0  0  0
 25 26  1  0  0  0  0
 26 27  1  0  0  0  0
 25 28  1  0  0  0  0
 28 29  2  0  0  0  0
 29 30  1  0  0  0  0
 29 31  1  0  0  0  0
 31 32  1  0  0  0  0
 32 33  1  0  0  0  0
 33 34  2  0  0  0  0
 34 35  1  0  0  0  0
 35 36  2  0  0  0  0
 36 37  1  0  0  0  0
 37 38  2  0  0  0  0
 37 39  1  0  0  0  0
 39 40  1  0  0  0  0
 40 41  1  0  0  0  0
 36 42  1  0  0  0  0
 42 43  1  0  0  0  0
 33 44  1  0  0  0  0
 44 45  2  0  0  0  0
 45 46  1  0  0  0  0
 46 47  1  0  0  0  0
 45 48  1  0  0  0  0
 48 49  2  0  0  0  0
 49 50  1  0  0  0  0
 49 51  1  0  0  0  0
 51 52  2  0  0  0  0
 52 53  1  0  0  0  0
 53 54  2  0  0  0  0
 53 55  1  0  0  0  0
 55 56  2  0  0  0  0
 56 57  1  0  0  0  0
 57 58  2  0  0  0  0
 58 59  1  0  0  0  0
 59 60  2  0  0  0  0
 60 61  1  0  0  0  0
 61 62  2  0  0  0  0
 62 63  1  0  0  0  0
 63 64  3  0  0  0  0
 62 65  1  0  0  0  0
 65 66  3  0  0  0  0
 58 67  1  0  0  0  0
 67 68  1  0  0  0  0
 68 69  1  0  0  0  0
 69 70  2  0  0  0  0
 70 71  1  0  0  0  0
 71 72  1  0  0  0  0
 71 73  1  0  0  0  0
 11  2  1  0  0  0  0
 23 17  1  0  0  0  0
 30 24  1  0  0  0  0
 43 31  2  0  0  0  0
 50 44  1  0  0  0  0
 61 52  1  0  0  0  0
 73 67  1  0  0  0  0
 10  5  1  0  0  0  0
 22 18  1  0  0  0  0
 43 34  1  0  0  0  0
 60 55  1  0  0  0  0
 72 68  1  0  0  0  0
 23  7  1  0  0  0  0
 73 57  1  0  0  0  0
  1 74  1  0  0  0  0
  6 75  1  0  0  0  0
  9 76  1  0  0  0  0
 17 77  1  0  0  0  0
 18 78  1  0  0  0  0
 19 79  1  0  0  0  0
 20 80  1  0  0  0  0
 21 81  1  0  0  0  0
 22 82  1  0  0  0  0
 22 83  1  0  0  0  0
 23 84  1  0  0  0  0
 26 85  1  0  0  0  0
 26 86  1  0  0  0  0
 27 87  1  0  0  0  0
 27 88  1  0  0  0  0
 27 89  1  0  0  0  0
 35 90  1  0  0  0  0
 40 91  1  0  0  0  0
 40 92  1  0  0  0  0
 41 93  1  0  0  0  0
 41 94  1  0  0  0  0
 41 95  1  0  0  0  0
 46 96  1  0  0  0  0
 46 97  1  0  0  0  0
 47 98  1  0  0  0  0
 47 99  1  0  0  0  0
 47100  1  0  0  0  0
 51101  1  0  0  0  0
 56102  1  0  0  0  0
 59103  1  0  0  0  0
 67104  1  0  0  0  0
 68105  1  0  0  0  0
 69106  1  0  0  0  0
 70107  1  0  0  0  0
 71108  1  0  0  0  0
 72109  1  0  0  0  0
 72110  1  0  0  0  0
 73111  1  0  0  0  0
M  END
