213

C          0.27850        1.68910       -9.31260
C          1.48530        2.30820       -9.22340
C          2.16080        2.67450       -7.94780
O          1.73670        2.54950       -6.81740
C          3.52080        3.09040       -8.32070
C          4.52990        3.49890       -7.44940
C          5.71440        3.80690       -8.07230
C          5.88890        3.70490       -9.46010
C          4.90590        3.29670      -10.32920
C          3.68650        2.98600       -9.71690
C          2.43370        2.52460      -10.30400
C          2.17570        2.38850      -11.64200
C          3.11570        2.62950      -12.66620
N          3.83070        2.79780      -13.54850
C          0.93220        2.01070      -12.19260
N         -0.04750        1.72400      -12.71860
C          7.32340        4.16570       -9.39330
C          7.59850        5.62510       -9.81370
C          8.94660        5.92960       -9.20120
C          8.78050        6.02830       -7.88840
C          7.31720        5.79220       -7.59130
C          6.69050        6.40230       -8.85170
C          7.12780        4.28180       -7.84740
C         -0.67890        1.59450       -8.25900
C         -1.45670        0.50300       -7.97140
C         -2.22090        0.65200       -6.79250
C         -2.98080       -0.33230       -6.12930
C         -3.22860       -1.64360       -6.73730
C         -3.03370       -2.82850       -6.03410
C         -3.30650       -4.05570       -6.60750
C         -3.78620       -4.14400       -7.90910
S         -4.21160       -5.62930       -8.75320
C         -3.50470       -6.95610       -7.71710
C         -1.99070       -7.00600       -7.79950
C         -3.98000       -2.94660       -8.60270
F         -4.45540       -2.99280       -9.86240
C         -3.70800       -1.71860       -8.04540
C         -3.46990        0.00640       -4.87770
C         -3.34000        1.30990       -4.33170
C         -2.65090        2.32100       -5.02760
C         -2.51450        3.65240       -4.42730
C         -1.27810        4.28780       -4.32300
C         -1.15490        5.46790       -3.62100
C         -2.25640        6.07270       -3.02280
S         -1.99510        7.55740       -2.09630
C         -2.99390        7.26650       -0.58800
C         -2.59130        5.99110        0.12660
C         -3.49960        5.47660       -3.21350
C         -3.63400        4.27940       -3.88340
F         -4.62320        6.05220       -2.73060
C         -2.05230        1.94270       -6.21960
S         -0.97220        2.92030       -7.16130
C         -3.84280        1.37990       -3.01470
C         -4.32420        0.19150       -2.53980
S         -4.23800       -1.07580       -3.74310
C         -4.59510       -0.07940       -1.16140
C         -4.71370       -1.38000       -0.65980
O         -4.98580       -2.39640       -1.55480
C         -6.36510       -2.49890       -1.90850
C         -6.51080       -3.62260       -2.91870
C         -4.41990       -1.68420        0.69310
O         -4.39970       -2.91910        1.23500
C         -4.43440       -4.11670        0.47340
C         -4.13330       -5.26060        1.42870
C         -4.00520       -0.66360        1.57190
C         -4.30530        0.66140        1.17320
C         -4.56020        0.96620       -0.20430
N         -4.73640        2.26900       -0.40030
S         -4.64100        3.02650        1.02050
N         -4.33960        1.74330        1.93880
C         -3.12840       -0.92600        2.67650
C         -2.13070       -0.08540        3.16190
N         -1.87790        1.25480        2.79010
C         -2.27880        2.26500        3.66900
C         -2.63990        1.96410        4.98510
C         -3.06580        2.94970        5.84690
C         -3.16130        4.27240        5.42750
S         -3.71710        5.45090        6.62250
C         -3.54090        7.04580        5.77230
C         -2.84210        4.57890        4.11370
C         -2.41160        3.59030        3.25140
C         -1.16680        1.50110        1.61180
C         -1.28590        0.67040        0.49680
C         -0.66710        0.97870       -0.70180
C          0.11990        2.11340       -0.81270
S          0.91560        2.64510       -2.29730
C          0.54070        1.34580       -3.50670
C          0.33230        2.89140        0.32530
C         -0.28560        2.58570        1.51540
C         -1.30130       -0.74840        4.08570
S          0.12290       -0.26360        4.93420
C          0.20980       -1.85650        5.69210
C         -0.78020       -2.74220        5.19320
N         -0.86110       -4.08390        5.47060
C         -2.10530       -4.72880        5.35100
C         -3.25840       -4.14870        5.87930
C         -4.47500       -4.77710        5.73850
C         -4.56680       -6.00010        5.07640
S         -6.18260       -6.68920        4.91740
C         -5.88840       -8.33850        4.21690
C         -3.41650       -6.59200        4.57070
C         -2.19780       -5.95840        4.70670
C          0.26900       -4.87440        5.75210
C          1.48840       -4.63950        5.11830
C          2.60930       -5.36260        5.46950
C          2.52400       -6.35460        6.44060
S          3.91650       -7.29060        6.98950
C          5.30710       -6.16540        6.66980
C          1.28960       -6.64910        7.01120
C          0.17400       -5.91130        6.67960
C         -1.64930       -2.07700        4.31160
S         -3.01090       -2.53780        3.33960
C          1.10160       -2.20270        6.70790
C          2.23960       -1.57250        7.15380
C          2.81760       -0.33860        6.61410
O          2.31590        0.43030        5.81220
C          4.15120       -0.20560        7.22870
C          5.08000        0.80740        7.00810
C          6.24290        0.66610        7.72720
C          6.46550       -0.40580        8.60060
C          5.55570       -1.41170        8.82790
C          4.36530       -1.28670        8.10720
C          3.16870       -2.12890        8.10810
C          2.98860       -3.25230        8.88080
C          1.78190       -3.96460        9.01360
N          0.82840       -4.57800        9.20630
C          3.99620       -3.84640        9.66530
N          4.78390       -4.40660       10.28640
C          7.83120        0.09640        8.99740
C          7.97020        0.79400       10.37290
C          6.61620        1.37470       10.69760
C          6.40320        2.39100        9.87260
C          7.60970        2.51610        8.97520
C          8.71540        2.06820        9.94440
C          7.58210        1.29270        8.02560
H          0.00990        1.18140      -10.23140
H          4.35350        3.55490       -6.38650
H          5.06030        3.21160      -11.39180
H          8.06450        3.46580       -9.77460
H          7.48780        5.82050      -10.87670
H          9.86120        5.98490       -9.76170
H          9.52860        6.18260       -7.13320
H          6.95040        6.14040       -6.62960
H          5.63020        6.18670       -8.96950
H          6.85200        7.47720       -8.91200
H          7.73900        3.66000       -7.19590
H         -1.40660       -0.41060       -8.53680
H         -2.64570       -2.79710       -5.02800
H         -3.14670       -4.94630       -6.02220
H         -3.94430       -7.86290       -8.13230
H         -3.86510       -6.83310       -6.69670
H         -1.61360       -7.83090       -7.19800
H         -1.67720       -7.15550       -8.82990
H         -1.54760       -6.08050       -7.43810
H         -3.89580       -0.82610       -8.62150
H         -0.39620        3.83540       -4.74620
H         -0.18730        5.92900       -3.50320
H         -4.04820        7.26520       -0.85600
H         -2.78480        8.14330        0.02470
H         -2.79380        5.11710       -0.49080
H         -1.52950        6.00360        0.36440
H         -3.16050        5.89700        1.04980
H         -4.61970        3.85490       -3.99450
H         -3.79120        2.25710       -2.39870
H         -6.95840       -2.70790       -1.00610
H         -6.71570       -1.54990       -2.33380
H         -7.55560       -3.73120       -3.19410
H         -6.15340       -4.55730       -2.49470
H         -5.92690       -3.39810       -3.80680
H         -5.43020       -4.25410        0.03830
H         -3.69670       -4.07480       -0.33460
H         -4.19510       -6.20500        0.89540
H         -4.85200       -5.25660        2.24340
H         -3.13950       -5.15070        1.85280
H         -2.59400        0.95050        5.34720
H         -3.33150        2.70070        6.86290
H         -3.79060        7.80040        6.51160
H         -4.23460        7.10560        4.93840
H         -2.51430        7.17640        5.44300
H         -2.92990        5.58650        3.73870
H         -2.19750        3.86040        2.22940
H         -1.86660       -0.23590        0.54640
H         -0.81580        0.31790       -1.54140
H         -0.53370        1.26490       -3.64530
H          0.96750        0.40240       -3.17820
H          1.01030        1.66150       -4.43470
H          1.00010        3.73700        0.26220
H         -0.07110        3.17580        2.39240
H         -3.19090       -3.20980        6.40710
H         -5.36970       -4.33080        6.14380
H         -5.48870       -8.25410        3.21040
H         -6.86100       -8.81970        4.18670
H         -5.21970       -8.89910        4.86310
H         -3.45510       -7.53830        4.05660
H         -1.30760       -6.41750        4.30270
H          1.56270       -3.87100        4.36310
H          3.54500       -5.15260        4.97570
H          6.14060       -6.55730        7.24370
H          5.55930       -6.15680        5.61320
H          5.05410       -5.17000        7.02260
H          1.22300       -7.43350        7.74770
H         -0.76850       -6.11170        7.16410
H          0.87160       -3.14430        7.18870
H          4.86590        1.61640        6.32720
H          5.74220       -2.22650        9.50750
H          8.66550       -0.56900        8.78350
H          8.42770        0.18160       11.14530
H          5.94860        0.96300       11.43170
H          5.52170        2.99780        9.77920
H          7.73920        3.47260        8.47550
H          8.86300        2.76660       10.76680
H          9.66790        1.87000        9.45460
H          8.25550        1.41020        7.17850
