
  xtb     02162214593D
 energy: -355.953023530193 gnorm: 0.000490443384 xtb: 6.4.1 (unknown)
226248  0     0  0            999 V2000
    5.2070    7.4528   -1.0717 C   0  0  0  0  0  0  0  0  0  0  0  0
    6.4948    7.1291   -1.3130 C   0  0  0  0  0  0  0  0  0  0  0  0
    6.9869    5.7345   -1.5075 C   0  0  0  0  0  0  0  0  0  0  0  0
    6.4051    4.7003   -1.2664 O   0  0  0  0  0  0  0  0  0  0  0  0
    8.3197    5.8758   -2.1220 C   0  0  0  0  0  0  0  0  0  0  0  0
    9.1466    4.8424   -2.5602 C   0  0  0  0  0  0  0  0  0  0  0  0
   10.3346    5.2671   -3.1031 C   0  0  0  0  0  0  0  0  0  0  0  0
   10.6788    6.6227   -3.2105 C   0  0  0  0  0  0  0  0  0  0  0  0
    9.8772    7.6521   -2.7798 C   0  0  0  0  0  0  0  0  0  0  0  0
    8.6627    7.2410   -2.2188 C   0  0  0  0  0  0  0  0  0  0  0  0
    7.5834    8.0348   -1.6486 C   0  0  0  0  0  0  0  0  0  0  0  0
    7.6135    9.3729   -1.3639 C   0  0  0  0  0  0  0  0  0  0  0  0
    8.6920   10.2304   -1.6659 C   0  0  0  0  0  0  0  0  0  0  0  0
    9.5360   10.9748   -1.8911 N   0  0  0  0  0  0  0  0  0  0  0  0
    6.5855   10.0475   -0.6719 C   0  0  0  0  0  0  0  0  0  0  0  0
    5.7982   10.6366   -0.0788 N   0  0  0  0  0  0  0  0  0  0  0  0
   12.0029    6.3164   -3.8647 C   0  0  0  0  0  0  0  0  0  0  0  0
   12.0835    6.5248   -5.3919 C   0  0  0  0  0  0  0  0  0  0  0  0
   13.2886    5.7104   -5.8045 C   0  0  0  0  0  0  0  0  0  0  0  0
   12.9643    4.4280   -5.7001 C   0  0  0  0  0  0  0  0  0  0  0  0
   11.5344    4.3537   -5.2151 C   0  0  0  0  0  0  0  0  0  0  0  0
   10.9612    5.6057   -5.8916 C   0  0  0  0  0  0  0  0  0  0  0  0
   11.6206    4.8064   -3.7417 C   0  0  0  0  0  0  0  0  0  0  0  0
    4.1724    6.4918   -0.7168 C   0  0  0  0  0  0  0  0  0  0  0  0
    3.1009    6.3349   -1.5950 C   0  0  0  0  0  0  0  0  0  0  0  0
    2.1134    5.3850   -1.4035 C   0  0  0  0  0  0  0  0  0  0  0  0
    1.0914    5.0938   -2.4707 C   0  0  0  0  0  0  0  0  0  0  0  0
    0.8516    6.2236   -3.4659 C   0  0  0  0  0  0  0  0  0  0  0  0
    2.1621    4.6246   -0.2254 C   0  0  0  0  0  0  0  0  0  0  0  0
    3.2138    4.8173    0.6708 C   0  0  0  0  0  0  0  0  0  0  0  0
    4.2332    5.7209    0.4503 C   0  0  0  0  0  0  0  0  0  0  0  0
    5.3060    5.9092    1.4855 C   0  0  0  0  0  0  0  0  0  0  0  0
    5.1751    7.2536    2.2014 C   0  0  0  0  0  0  0  0  0  0  0  0
    1.2088    3.5688    0.0967 C   0  0  0  0  0  0  0  0  0  0  0  0
   -0.1679    3.5619    0.2081 C   0  0  0  0  0  0  0  0  0  0  0  0
   -1.0158    4.6472    0.0655 N   0  0  0  0  0  0  0  0  0  0  0  0
   -2.3674    4.4168   -0.2530 C   0  0  0  0  0  0  0  0  0  0  0  0
   -3.3713    5.0233    0.4952 C   0  0  0  0  0  0  0  0  0  0  0  0
   -4.7011    4.7759    0.2193 C   0  0  0  0  0  0  0  0  0  0  0  0
   -5.0493    3.9127   -0.8126 C   0  0  0  0  0  0  0  0  0  0  0  0
   -6.7138    3.5295   -1.2538 S   0  0  0  0  0  0  0  0  0  0  0  0
   -7.6754    4.0728    0.1862 C   0  0  0  0  0  0  0  0  0  0  0  0
   -4.0478    3.3239   -1.5801 C   0  0  0  0  0  0  0  0  0  0  0  0
   -2.7207    3.5746   -1.3075 C   0  0  0  0  0  0  0  0  0  0  0  0
   -0.5743    5.9651    0.2474 C   0  0  0  0  0  0  0  0  0  0  0  0
    0.3642    6.2928    1.2209 C   0  0  0  0  0  0  0  0  0  0  0  0
    0.8755    7.5729    1.3002 C   0  0  0  0  0  0  0  0  0  0  0  0
    0.4475    8.5512    0.4130 C   0  0  0  0  0  0  0  0  0  0  0  0
    1.1095   10.1883    0.3731 S   0  0  0  0  0  0  0  0  0  0  0  0
    2.7450    9.9695    1.1295 C   0  0  0  0  0  0  0  0  0  0  0  0
   -0.5597    8.2501   -0.5002 C   0  0  0  0  0  0  0  0  0  0  0  0
   -1.0653    6.9727   -0.5838 C   0  0  0  0  0  0  0  0  0  0  0  0
   -0.6398    2.2654    0.5484 C   0  0  0  0  0  0  0  0  0  0  0  0
   -2.2067    1.5764    0.7810 S   0  0  0  0  0  0  0  0  0  0  0  0
   -1.4932    0.0038    1.1155 C   0  0  0  0  0  0  0  0  0  0  0  0
   -0.1053    0.0469    1.1202 C   0  0  0  0  0  0  0  0  0  0  0  0
    0.7468   -0.9947    1.4635 N   0  0  0  0  0  0  0  0  0  0  0  0
    1.9592   -1.0607    0.7578 C   0  0  0  0  0  0  0  0  0  0  0  0
    3.1791   -1.1483    1.4248 C   0  0  0  0  0  0  0  0  0  0  0  0
    4.3601   -1.0948    0.7141 C   0  0  0  0  0  0  0  0  0  0  0  0
    4.3371   -0.9433   -0.6658 C   0  0  0  0  0  0  0  0  0  0  0  0
    5.8463   -0.7984   -1.5960 S   0  0  0  0  0  0  0  0  0  0  0  0
    6.5809    0.6560   -0.7831 C   0  0  0  0  0  0  0  0  0  0  0  0
    3.1245   -0.9127   -1.3404 C   0  0  0  0  0  0  0  0  0  0  0  0
    1.9415   -0.9726   -0.6331 C   0  0  0  0  0  0  0  0  0  0  0  0
    0.4755   -1.8474    2.5314 C   0  0  0  0  0  0  0  0  0  0  0  0
    1.0453   -3.1204    2.5677 C   0  0  0  0  0  0  0  0  0  0  0  0
    0.6820   -4.0163    3.5512 C   0  0  0  0  0  0  0  0  0  0  0  0
   -0.2612   -3.6637    4.5029 C   0  0  0  0  0  0  0  0  0  0  0  0
   -0.8251   -4.8748    5.6822 S   0  0  0  0  0  0  0  0  0  0  0  0
   -2.5446   -5.0450    5.1045 C   0  0  0  0  0  0  0  0  0  0  0  0
   -0.7651   -2.3717    4.5256 C   0  0  0  0  0  0  0  0  0  0  0  0
   -0.3943   -1.4662    3.5547 C   0  0  0  0  0  0  0  0  0  0  0  0
    0.3602    1.3320    0.7603 C   0  0  0  0  0  0  0  0  0  0  0  0
    1.9244    2.0210    0.5285 S   0  0  0  0  0  0  0  0  0  0  0  0
   -2.3300   -1.1408    1.1675 C   0  0  0  0  0  0  0  0  0  0  0  0
   -3.6990   -1.1805    1.4065 C   0  0  0  0  0  0  0  0  0  0  0  0
   -4.4803   -0.0882    1.7681 N   0  0  0  0  0  0  0  0  0  0  0  0
   -5.6793    0.1107    1.0668 C   0  0  0  0  0  0  0  0  0  0  0  0
   -5.7223   -0.1225   -0.3060 C   0  0  0  0  0  0  0  0  0  0  0  0
   -6.8988    0.0511   -1.0029 C   0  0  0  0  0  0  0  0  0  0  0  0
   -8.0591    0.4684   -0.3601 C   0  0  0  0  0  0  0  0  0  0  0  0
   -9.3198    0.6733   -1.1414 C   0  0  0  0  0  0  0  0  0  0  0  0
   -8.0068    0.7002    1.0075 C   0  0  0  0  0  0  0  0  0  0  0  0
   -6.8365    0.5212    1.7198 C   0  0  0  0  0  0  0  0  0  0  0  0
   -4.1442    0.6973    2.8727 C   0  0  0  0  0  0  0  0  0  0  0  0
   -4.4435    2.0595    2.8923 C   0  0  0  0  0  0  0  0  0  0  0  0
   -4.0809    2.8334    3.9746 C   0  0  0  0  0  0  0  0  0  0  0  0
   -3.4078    2.2838    5.0607 C   0  0  0  0  0  0  0  0  0  0  0  0
   -3.0313    3.1318    6.2372 C   0  0  0  0  0  0  0  0  0  0  0  0
   -3.1159    0.9260    5.0346 C   0  0  0  0  0  0  0  0  0  0  0  0
   -3.4812    0.1377    3.9609 C   0  0  0  0  0  0  0  0  0  0  0  0
   -4.2100   -2.4801    1.2077 C   0  0  0  0  0  0  0  0  0  0  0  0
   -5.7750   -3.1796    1.3867 S   0  0  0  0  0  0  0  0  0  0  0  0
   -5.1239   -4.7816    0.9793 C   0  0  0  0  0  0  0  0  0  0  0  0
   -3.7723   -4.7091    0.5651 C   0  0  0  0  0  0  0  0  0  0  0  0
   -3.0590   -5.6686   -0.0731 N   0  0  0  0  0  0  0  0  0  0  0  0
   -3.6095   -6.7978   -0.6994 C   0  0  0  0  0  0  0  0  0  0  0  0
   -4.7832   -6.7206   -1.4478 C   0  0  0  0  0  0  0  0  0  0  0  0
   -5.3127   -7.8557   -2.0241 C   0  0  0  0  0  0  0  0  0  0  0  0
   -4.6956   -9.0961   -1.8771 C   0  0  0  0  0  0  0  0  0  0  0  0
   -5.3214  -10.3262   -2.4543 C   0  0  0  0  0  0  0  0  0  0  0  0
   -3.4979   -9.1525   -1.1783 C   0  0  0  0  0  0  0  0  0  0  0  0
   -2.9531   -8.0216   -0.5998 C   0  0  0  0  0  0  0  0  0  0  0  0
   -1.6539   -5.4912   -0.2438 C   0  0  0  0  0  0  0  0  0  0  0  0
   -0.7717   -5.7918    0.7828 C   0  0  0  0  0  0  0  0  0  0  0  0
    0.5876   -5.6421    0.5769 C   0  0  0  0  0  0  0  0  0  0  0  0
    1.0832   -5.1576   -0.6265 C   0  0  0  0  0  0  0  0  0  0  0  0
    2.5501   -4.9316   -0.8258 C   0  0  0  0  0  0  0  0  0  0  0  0
    0.1851   -4.8681   -1.6482 C   0  0  0  0  0  0  0  0  0  0  0  0
   -1.1720   -5.0493   -1.4701 C   0  0  0  0  0  0  0  0  0  0  0  0
   -3.2669   -3.4088    0.7876 C   0  0  0  0  0  0  0  0  0  0  0  0
   -1.6905   -2.7018    0.6797 S   0  0  0  0  0  0  0  0  0  0  0  0
   -5.9681   -5.8752    1.1371 C   0  0  0  0  0  0  0  0  0  0  0  0
   -5.5511   -7.1808    1.3260 C   0  0  0  0  0  0  0  0  0  0  0  0
   -4.2656   -7.5507    1.9270 C   0  0  0  0  0  0  0  0  0  0  0  0
   -3.3787   -6.8041    2.3123 O   0  0  0  0  0  0  0  0  0  0  0  0
   -4.3015   -9.0188    2.0871 C   0  0  0  0  0  0  0  0  0  0  0  0
   -3.3019   -9.8326    2.6107 C   0  0  0  0  0  0  0  0  0  0  0  0
   -3.6092  -11.1730    2.6003 C   0  0  0  0  0  0  0  0  0  0  0  0
   -4.8299  -11.6657    2.1262 C   0  0  0  0  0  0  0  0  0  0  0  0
   -5.8311  -10.8704    1.6186 C   0  0  0  0  0  0  0  0  0  0  0  0
   -5.5293   -9.5078    1.6021 C   0  0  0  0  0  0  0  0  0  0  0  0
   -6.3108   -8.3756    1.1058 C   0  0  0  0  0  0  0  0  0  0  0  0
   -7.4846   -8.4587    0.3937 C   0  0  0  0  0  0  0  0  0  0  0  0
   -8.1290   -7.3520   -0.1915 C   0  0  0  0  0  0  0  0  0  0  0  0
   -8.6895   -6.5014   -0.7238 N   0  0  0  0  0  0  0  0  0  0  0  0
   -8.1412   -9.6609    0.0791 C   0  0  0  0  0  0  0  0  0  0  0  0
   -8.7127  -10.6099   -0.2289 N   0  0  0  0  0  0  0  0  0  0  0  0
   -4.4522  -13.1002    2.4053 C   0  0  0  0  0  0  0  0  0  0  0  0
   -4.0372  -13.9493    1.1854 C   0  0  0  0  0  0  0  0  0  0  0  0
   -3.2738  -15.1057    1.7891 C   0  0  0  0  0  0  0  0  0  0  0  0
   -2.1133  -14.6369    2.2296 C   0  0  0  0  0  0  0  0  0  0  0  0
   -2.0734  -13.1556    1.9318 C   0  0  0  0  0  0  0  0  0  0  0  0
   -2.8709  -13.1279    0.6216 C   0  0  0  0  0  0  0  0  0  0  0  0
   -3.0861  -12.5503    2.9272 C   0  0  0  0  0  0  0  0  0  0  0  0
    4.8782    8.4747   -1.2262 H   0  0  0  0  0  0  0  0  0  0  0  0
    8.8437    3.8120   -2.4592 H   0  0  0  0  0  0  0  0  0  0  0  0
   10.1513    8.6904   -2.8675 H   0  0  0  0  0  0  0  0  0  0  0  0
   12.8851    6.6762   -3.3390 H   0  0  0  0  0  0  0  0  0  0  0  0
   12.0619    7.5630   -5.7113 H   0  0  0  0  0  0  0  0  0  0  0  0
   14.2385    6.1365   -6.0685 H   0  0  0  0  0  0  0  0  0  0  0  0
   13.5889    3.5688   -5.8592 H   0  0  0  0  0  0  0  0  0  0  0  0
   11.0118    3.4143   -5.3732 H   0  0  0  0  0  0  0  0  0  0  0  0
   10.9532    5.5193   -6.9768 H   0  0  0  0  0  0  0  0  0  0  0  0
    9.9689    5.8847   -5.5417 H   0  0  0  0  0  0  0  0  0  0  0  0
   12.2478    4.1578   -3.1331 H   0  0  0  0  0  0  0  0  0  0  0  0
    3.0930    6.9384   -2.4892 H   0  0  0  0  0  0  0  0  0  0  0  0
    0.1422    4.8366   -2.0056 H   0  0  0  0  0  0  0  0  0  0  0  0
    1.4304    4.2035   -3.0129 H   0  0  0  0  0  0  0  0  0  0  0  0
    1.7114    6.3759   -4.1136 H   0  0  0  0  0  0  0  0  0  0  0  0
    0.0001    5.9774   -4.0965 H   0  0  0  0  0  0  0  0  0  0  0  0
    0.6326    7.1512   -2.9416 H   0  0  0  0  0  0  0  0  0  0  0  0
    3.2320    4.2204    1.5722 H   0  0  0  0  0  0  0  0  0  0  0  0
    6.2918    5.8416    1.0258 H   0  0  0  0  0  0  0  0  0  0  0  0
    5.2298    5.1044    2.2186 H   0  0  0  0  0  0  0  0  0  0  0  0
    5.3042    8.0807    1.5056 H   0  0  0  0  0  0  0  0  0  0  0  0
    5.9315    7.3412    2.9778 H   0  0  0  0  0  0  0  0  0  0  0  0
    4.1953    7.3408    2.6659 H   0  0  0  0  0  0  0  0  0  0  0  0
   -3.1009    5.6890    1.3016 H   0  0  0  0  0  0  0  0  0  0  0  0
   -5.4571    5.2577    0.8185 H   0  0  0  0  0  0  0  0  0  0  0  0
   -7.2672    3.6216    1.0856 H   0  0  0  0  0  0  0  0  0  0  0  0
   -8.6832    3.7072    0.0180 H   0  0  0  0  0  0  0  0  0  0  0  0
   -7.6839    5.1571    0.2507 H   0  0  0  0  0  0  0  0  0  0  0  0
   -4.3260    2.6673   -2.3896 H   0  0  0  0  0  0  0  0  0  0  0  0
   -1.9484    3.1135   -1.9058 H   0  0  0  0  0  0  0  0  0  0  0  0
    0.6956    5.5414    1.9209 H   0  0  0  0  0  0  0  0  0  0  0  0
    1.6060    7.7988    2.0604 H   0  0  0  0  0  0  0  0  0  0  0  0
    2.6638    9.9520    2.2126 H   0  0  0  0  0  0  0  0  0  0  0  0
    3.3465   10.8178    0.8194 H   0  0  0  0  0  0  0  0  0  0  0  0
    3.1819    9.0495    0.7554 H   0  0  0  0  0  0  0  0  0  0  0  0
   -0.9198    9.0249   -1.1595 H   0  0  0  0  0  0  0  0  0  0  0  0
   -1.8251    6.7376   -1.3145 H   0  0  0  0  0  0  0  0  0  0  0  0
    3.1932   -1.2376    2.5008 H   0  0  0  0  0  0  0  0  0  0  0  0
    5.3030   -1.1545    1.2362 H   0  0  0  0  0  0  0  0  0  0  0  0
    7.5194    0.8428   -1.2944 H   0  0  0  0  0  0  0  0  0  0  0  0
    5.9178    1.5090   -0.8953 H   0  0  0  0  0  0  0  0  0  0  0  0
    6.7657    0.4467    0.2656 H   0  0  0  0  0  0  0  0  0  0  0  0
    3.1180   -0.8289   -2.4161 H   0  0  0  0  0  0  0  0  0  0  0  0
    0.9923   -0.9334   -1.1470 H   0  0  0  0  0  0  0  0  0  0  0  0
    1.7436   -3.4104    1.7987 H   0  0  0  0  0  0  0  0  0  0  0  0
    1.1071   -5.0071    3.5767 H   0  0  0  0  0  0  0  0  0  0  0  0
   -3.0443   -5.6913    5.8188 H   0  0  0  0  0  0  0  0  0  0  0  0
   -3.0225   -4.0701    5.0864 H   0  0  0  0  0  0  0  0  0  0  0  0
   -2.5616   -5.4996    4.1176 H   0  0  0  0  0  0  0  0  0  0  0  0
   -1.4490   -2.0761    5.3075 H   0  0  0  0  0  0  0  0  0  0  0  0
   -0.7874   -0.4609    3.5815 H   0  0  0  0  0  0  0  0  0  0  0  0
   -4.8230   -0.4311   -0.8195 H   0  0  0  0  0  0  0  0  0  0  0  0
   -6.9190   -0.1271   -2.0679 H   0  0  0  0  0  0  0  0  0  0  0  0
  -10.1476    0.9367   -0.4876 H   0  0  0  0  0  0  0  0  0  0  0  0
   -9.1807    1.4714   -1.8707 H   0  0  0  0  0  0  0  0  0  0  0  0
   -9.5813   -0.2326   -1.6857 H   0  0  0  0  0  0  0  0  0  0  0  0
   -8.8984    1.0164    1.5309 H   0  0  0  0  0  0  0  0  0  0  0  0
   -6.8162    0.6911    2.7865 H   0  0  0  0  0  0  0  0  0  0  0  0
   -4.9385    2.5041    2.0419 H   0  0  0  0  0  0  0  0  0  0  0  0
   -4.3122    3.8891    3.9715 H   0  0  0  0  0  0  0  0  0  0  0  0
   -2.7688    4.1390    5.9204 H   0  0  0  0  0  0  0  0  0  0  0  0
   -3.8716    3.2066    6.9287 H   0  0  0  0  0  0  0  0  0  0  0  0
   -2.1905    2.7000    6.7750 H   0  0  0  0  0  0  0  0  0  0  0  0
   -2.5996    0.4769    5.8714 H   0  0  0  0  0  0  0  0  0  0  0  0
   -3.2612   -0.9197    3.9567 H   0  0  0  0  0  0  0  0  0  0  0  0
   -5.2836   -5.7721   -1.5721 H   0  0  0  0  0  0  0  0  0  0  0  0
   -6.2290   -7.7816   -2.5916 H   0  0  0  0  0  0  0  0  0  0  0  0
   -6.2516  -10.5544   -1.9332 H   0  0  0  0  0  0  0  0  0  0  0  0
   -5.5624  -10.1769   -3.5054 H   0  0  0  0  0  0  0  0  0  0  0  0
   -4.6574  -11.1820   -2.3624 H   0  0  0  0  0  0  0  0  0  0  0  0
   -2.9836  -10.0969   -1.0735 H   0  0  0  0  0  0  0  0  0  0  0  0
   -2.0262   -8.0857   -0.0507 H   0  0  0  0  0  0  0  0  0  0  0  0
   -1.1640   -6.1467    1.7234 H   0  0  0  0  0  0  0  0  0  0  0  0
    1.2755   -5.9100    1.3643 H   0  0  0  0  0  0  0  0  0  0  0  0
    2.8782   -5.3410   -1.7791 H   0  0  0  0  0  0  0  0  0  0  0  0
    3.1298   -5.3909   -0.0291 H   0  0  0  0  0  0  0  0  0  0  0  0
    2.7649   -3.8620   -0.8351 H   0  0  0  0  0  0  0  0  0  0  0  0
    0.5566   -4.5009   -2.5936 H   0  0  0  0  0  0  0  0  0  0  0  0
   -1.8664   -4.8367   -2.2699 H   0  0  0  0  0  0  0  0  0  0  0  0
   -7.0292   -5.6586    1.1617 H   0  0  0  0  0  0  0  0  0  0  0  0
   -2.3768   -9.4145    2.9763 H   0  0  0  0  0  0  0  0  0  0  0  0
   -6.7719  -11.2611    1.2681 H   0  0  0  0  0  0  0  0  0  0  0  0
   -5.0960  -13.6370    3.0995 H   0  0  0  0  0  0  0  0  0  0  0  0
   -4.8488  -14.1986    0.5070 H   0  0  0  0  0  0  0  0  0  0  0  0
   -3.6668  -16.1012    1.8818 H   0  0  0  0  0  0  0  0  0  0  0  0
   -1.3435  -15.1624    2.7641 H   0  0  0  0  0  0  0  0  0  0  0  0
   -1.0947  -12.6827    1.9327 H   0  0  0  0  0  0  0  0  0  0  0  0
   -2.3546  -13.6435   -0.1871 H   0  0  0  0  0  0  0  0  0  0  0  0
   -3.1545  -12.1280    0.2984 H   0  0  0  0  0  0  0  0  0  0  0  0
   -2.8168  -12.7256    3.9673 H   0  0  0  0  0  0  0  0  0  0  0  0
  1  2  2  0  0  0  0
  2  3  1  0  0  0  0
  3  4  2  0  0  0  0
  3  5  1  0  0  0  0
  5  6  2  0  0  0  0
  6  7  1  0  0  0  0
  7  8  2  0  0  0  0
  8  9  1  0  0  0  0
  9 10  2  0  0  0  0
 10 11  1  0  0  0  0
 11 12  2  0  0  0  0
 12 13  1  0  0  0  0
 13 14  3  0  0  0  0
 12 15  1  0  0  0  0
 15 16  3  0  0  0  0
  8 17  1  0  0  0  0
 17 18  1  0  0  0  0
 18 19  1  0  0  0  0
 19 20  2  0  0  0  0
 20 21  1  0  0  0  0
 21 22  1  0  0  0  0
 21 23  1  0  0  0  0
  1 24  1  0  0  0  0
 24 25  2  0  0  0  0
 25 26  1  0  0  0  0
 26 27  1  0  0  0  0
 27 28  1  0  0  0  0
 26 29  2  0  0  0  0
 29 30  1  0  0  0  0
 30 31  2  0  0  0  0
 31 32  1  0  0  0  0
 32 33  1  0  0  0  0
 29 34  1  0  0  0  0
 34 35  2  0  0  0  0
 35 36  1  0  0  0  0
 36 37  1  0  0  0  0
 37 38  2  0  0  0  0
 38 39  1  0  0  0  0
 39 40  2  0  0  0  0
 40 41  1  0  0  0  0
 41 42  1  0  0  0  0
 40 43  1  0  0  0  0
 43 44  2  0  0  0  0
 36 45  1  0  0  0  0
 45 46  2  0  0  0  0
 46 47  1  0  0  0  0
 47 48  2  0  0  0  0
 48 49  1  0  0  0  0
 49 50  1  0  0  0  0
 48 51  1  0  0  0  0
 51 52  2  0  0  0  0
 35 53  1  0  0  0  0
 53 54  1  0  0  0  0
 54 55  1  0  0  0  0
 55 56  2  0  0  0  0
 56 57  1  0  0  0  0
 57 58  1  0  0  0  0
 58 59  2  0  0  0  0
 59 60  1  0  0  0  0
 60 61  2  0  0  0  0
 61 62  1  0  0  0  0
 62 63  1  0  0  0  0
 61 64  1  0  0  0  0
 64 65  2  0  0  0  0
 57 66  1  0  0  0  0
 66 67  2  0  0  0  0
 67 68  1  0  0  0  0
 68 69  2  0  0  0  0
 69 70  1  0  0  0  0
 70 71  1  0  0  0  0
 69 72  1  0  0  0  0
 72 73  2  0  0  0  0
 56 74  1  0  0  0  0
 74 75  1  0  0  0  0
 55 76  1  0  0  0  0
 76 77  2  0  0  0  0
 77 78  1  0  0  0  0
 78 79  1  0  0  0  0
 79 80  2  0  0  0  0
 80 81  1  0  0  0  0
 81 82  2  0  0  0  0
 82 83  1  0  0  0  0
 82 84  1  0  0  0  0
 84 85  2  0  0  0  0
 78 86  1  0  0  0  0
 86 87  2  0  0  0  0
 87 88  1  0  0  0  0
 88 89  2  0  0  0  0
 89 90  1  0  0  0  0
 89 91  1  0  0  0  0
 91 92  2  0  0  0  0
 77 93  1  0  0  0  0
 93 94  1  0  0  0  0
 94 95  1  0  0  0  0
 95 96  2  0  0  0  0
 96 97  1  0  0  0  0
 97 98  1  0  0  0  0
 98 99  2  0  0  0  0
 99100  1  0  0  0  0
100101  2  0  0  0  0
101102  1  0  0  0  0
101103  1  0  0  0  0
103104  2  0  0  0  0
 97105  1  0  0  0  0
105106  2  0  0  0  0
106107  1  0  0  0  0
107108  2  0  0  0  0
108109  1  0  0  0  0
108110  1  0  0  0  0
110111  2  0  0  0  0
 96112  1  0  0  0  0
112113  1  0  0  0  0
 95114  1  0  0  0  0
114115  2  0  0  0  0
115116  1  0  0  0  0
116117  2  0  0  0  0
116118  1  0  0  0  0
118119  2  0  0  0  0
119120  1  0  0  0  0
120121  2  0  0  0  0
121122  1  0  0  0  0
122123  2  0  0  0  0
123124  1  0  0  0  0
124125  2  0  0  0  0
125126  1  0  0  0  0
126127  3  0  0  0  0
125128  1  0  0  0  0
128129  3  0  0  0  0
121130  1  0  0  0  0
130131  1  0  0  0  0
131132  1  0  0  0  0
132133  2  0  0  0  0
133134  1  0  0  0  0
134135  1  0  0  0  0
134136  1  0  0  0  0
 11  2  1  0  0  0  0
 23 17  1  0  0  0  0
 31 24  1  0  0  0  0
 75 34  1  0  0  0  0
113 76  1  0  0  0  0
124115  1  0  0  0  0
136130  1  0  0  0  0
 10  5  1  0  0  0  0
 22 18  1  0  0  0  0
 44 37  1  0  0  0  0
 52 45  1  0  0  0  0
 74 53  2  0  0  0  0
 85 79  1  0  0  0  0
 92 86  1  0  0  0  0
112 93  2  0  0  0  0
123118  1  0  0  0  0
135131  1  0  0  0  0
 23  7  1  0  0  0  0
 65 58  1  0  0  0  0
 73 66  1  0  0  0  0
104 98  1  0  0  0  0
111105  1  0  0  0  0
136120  1  0  0  0  0
  1137  1  0  0  0  0
  6138  1  0  0  0  0
  9139  1  0  0  0  0
 17140  1  0  0  0  0
 18141  1  0  0  0  0
 19142  1  0  0  0  0
 20143  1  0  0  0  0
 21144  1  0  0  0  0
 22145  1  0  0  0  0
 22146  1  0  0  0  0
 23147  1  0  0  0  0
 25148  1  0  0  0  0
 27149  1  0  0  0  0
 27150  1  0  0  0  0
 28151  1  0  0  0  0
 28152  1  0  0  0  0
 28153  1  0  0  0  0
 30154  1  0  0  0  0
 32155  1  0  0  0  0
 32156  1  0  0  0  0
 33157  1  0  0  0  0
 33158  1  0  0  0  0
 33159  1  0  0  0  0
 38160  1  0  0  0  0
 39161  1  0  0  0  0
 42162  1  0  0  0  0
 42163  1  0  0  0  0
 42164  1  0  0  0  0
 43165  1  0  0  0  0
 44166  1  0  0  0  0
 46167  1  0  0  0  0
 47168  1  0  0  0  0
 50169  1  0  0  0  0
 50170  1  0  0  0  0
 50171  1  0  0  0  0
 51172  1  0  0  0  0
 52173  1  0  0  0  0
 59174  1  0  0  0  0
 60175  1  0  0  0  0
 63176  1  0  0  0  0
 63177  1  0  0  0  0
 63178  1  0  0  0  0
 64179  1  0  0  0  0
 65180  1  0  0  0  0
 67181  1  0  0  0  0
 68182  1  0  0  0  0
 71183  1  0  0  0  0
 71184  1  0  0  0  0
 71185  1  0  0  0  0
 72186  1  0  0  0  0
 73187  1  0  0  0  0
 80188  1  0  0  0  0
 81189  1  0  0  0  0
 83190  1  0  0  0  0
 83191  1  0  0  0  0
 83192  1  0  0  0  0
 84193  1  0  0  0  0
 85194  1  0  0  0  0
 87195  1  0  0  0  0
 88196  1  0  0  0  0
 90197  1  0  0  0  0
 90198  1  0  0  0  0
 90199  1  0  0  0  0
 91200  1  0  0  0  0
 92201  1  0  0  0  0
 99202  1  0  0  0  0
100203  1  0  0  0  0
102204  1  0  0  0  0
102205  1  0  0  0  0
102206  1  0  0  0  0
103207  1  0  0  0  0
104208  1  0  0  0  0
106209  1  0  0  0  0
107210  1  0  0  0  0
109211  1  0  0  0  0
109212  1  0  0  0  0
109213  1  0  0  0  0
110214  1  0  0  0  0
111215  1  0  0  0  0
114216  1  0  0  0  0
119217  1  0  0  0  0
122218  1  0  0  0  0
130219  1  0  0  0  0
131220  1  0  0  0  0
132221  1  0  0  0  0
133222  1  0  0  0  0
134223  1  0  0  0  0
135224  1  0  0  0  0
135225  1  0  0  0  0
136226  1  0  0  0  0
M  END
