
  xtb     02122204573D
 energy: -356.413974406765 gnorm: 0.000938491942 xtb: 6.4.1 (unknown)
206228  0     0  0            999 V2000
  -10.6459   -0.3799    3.4058 C   0  0  0  0  0  0  0  0  0  0  0  0
  -11.3298   -1.5602    3.4051 C   0  0  0  0  0  0  0  0  0  0  0  0
  -10.7866   -2.9065    3.0937 C   0  0  0  0  0  0  0  0  0  0  0  0
   -9.7360   -3.1964    2.5605 O   0  0  0  0  0  0  0  0  0  0  0  0
  -11.7700   -3.8645    3.6318 C   0  0  0  0  0  0  0  0  0  0  0  0
  -11.6495   -5.2530    3.6510 C   0  0  0  0  0  0  0  0  0  0  0  0
  -12.7149   -5.8990    4.2292 C   0  0  0  0  0  0  0  0  0  0  0  0
  -13.8181   -5.2153    4.7591 C   0  0  0  0  0  0  0  0  0  0  0  0
  -13.9489   -3.8471    4.7490 C   0  0  0  0  0  0  0  0  0  0  0  0
  -12.8779   -3.1702    4.1561 C   0  0  0  0  0  0  0  0  0  0  0  0
  -12.6604   -1.7411    3.9620 C   0  0  0  0  0  0  0  0  0  0  0  0
  -13.5825   -0.7527    4.1829 C   0  0  0  0  0  0  0  0  0  0  0  0
  -13.3902    0.6139    3.8854 C   0  0  0  0  0  0  0  0  0  0  0  0
  -13.3248    1.7346    3.6438 N   0  0  0  0  0  0  0  0  0  0  0  0
  -14.8780   -0.9731    4.6953 C   0  0  0  0  0  0  0  0  0  0  0  0
  -15.9418   -1.0824    5.1131 N   0  0  0  0  0  0  0  0  0  0  0  0
  -14.5045   -6.4896    5.1838 C   0  0  0  0  0  0  0  0  0  0  0  0
  -15.6694   -6.9745    4.2950 C   0  0  0  0  0  0  0  0  0  0  0  0
  -15.8163   -8.4348    4.6572 C   0  0  0  0  0  0  0  0  0  0  0  0
  -14.7732   -9.0824    4.1538 C   0  0  0  0  0  0  0  0  0  0  0  0
  -13.9036   -8.0705    3.4430 C   0  0  0  0  0  0  0  0  0  0  0  0
  -14.9832   -7.1092    2.9294 C   0  0  0  0  0  0  0  0  0  0  0  0
  -13.2759   -7.2516    4.5910 C   0  0  0  0  0  0  0  0  0  0  0  0
   -9.3665   -0.1055    2.8650 C   0  0  0  0  0  0  0  0  0  0  0  0
   -8.6765   -0.7197    1.8503 C   0  0  0  0  0  0  0  0  0  0  0  0
   -7.3969   -0.1732    1.6228 C   0  0  0  0  0  0  0  0  0  0  0  0
   -6.4258   -0.5808    0.6878 C   0  0  0  0  0  0  0  0  0  0  0  0
   -6.6503   -1.7071   -0.2270 C   0  0  0  0  0  0  0  0  0  0  0  0
   -7.1452   -2.9364    0.2637 C   0  0  0  0  0  0  0  0  0  0  0  0
   -7.3643   -3.9826   -0.5842 C   0  0  0  0  0  0  0  0  0  0  0  0
   -7.1066   -3.8678   -1.9669 C   0  0  0  0  0  0  0  0  0  0  0  0
   -7.3410   -4.9256   -2.8694 C   0  0  0  0  0  0  0  0  0  0  0  0
   -7.0772   -4.7763   -4.2034 C   0  0  0  0  0  0  0  0  0  0  0  0
   -6.5623   -3.5652   -4.6943 C   0  0  0  0  0  0  0  0  0  0  0  0
   -6.3245   -2.5215   -3.8448 C   0  0  0  0  0  0  0  0  0  0  0  0
   -6.5920   -2.6417   -2.4645 C   0  0  0  0  0  0  0  0  0  0  0  0
   -6.3720   -1.5794   -1.5678 C   0  0  0  0  0  0  0  0  0  0  0  0
   -5.2332    0.1215    0.6965 C   0  0  0  0  0  0  0  0  0  0  0  0
   -4.9530    1.2059    1.5685 C   0  0  0  0  0  0  0  0  0  0  0  0
   -5.9474    1.6402    2.4608 C   0  0  0  0  0  0  0  0  0  0  0  0
   -5.7592    2.6820    3.3308 O   0  0  0  0  0  0  0  0  0  0  0  0
   -5.7530    3.9698    2.7275 C   0  0  0  0  0  0  0  0  0  0  0  0
   -7.1267    4.3701    2.2036 C   0  0  0  0  0  0  0  0  0  0  0  0
   -7.1363    0.9306    2.4774 C   0  0  0  0  0  0  0  0  0  0  0  0
   -8.4726    1.2582    3.5345 S   0  0  0  0  0  0  0  0  0  0  0  0
   -3.6163    1.6655    1.4493 C   0  0  0  0  0  0  0  0  0  0  0  0
   -2.8845    0.9692    0.5296 C   0  0  0  0  0  0  0  0  0  0  0  0
   -3.8394   -0.2673   -0.2738 S   0  0  0  0  0  0  0  0  0  0  0  0
   -1.5037    1.0340    0.1822 C   0  0  0  0  0  0  0  0  0  0  0  0
   -0.5385    2.0167    0.3614 C   0  0  0  0  0  0  0  0  0  0  0  0
   -0.6958    3.2681    0.9350 N   0  0  0  0  0  0  0  0  0  0  0  0
   -1.7881    4.0959    0.6847 C   0  0  0  0  0  0  0  0  0  0  0  0
   -2.5770    3.9453   -0.4574 C   0  0  0  0  0  0  0  0  0  0  0  0
   -3.6489    4.7811   -0.6776 C   0  0  0  0  0  0  0  0  0  0  0  0
   -3.9588    5.7956    0.2260 C   0  0  0  0  0  0  0  0  0  0  0  0
   -5.3637    6.7942   -0.1579 S   0  0  0  0  0  0  0  0  0  0  0  0
   -5.3798    8.0507    1.1526 C   0  0  0  0  0  0  0  0  0  0  0  0
   -3.1759    5.9530    1.3622 C   0  0  0  0  0  0  0  0  0  0  0  0
   -2.1103    5.1060    1.5910 C   0  0  0  0  0  0  0  0  0  0  0  0
    0.4195    3.7563    1.6481 C   0  0  0  0  0  0  0  0  0  0  0  0
    0.9532    5.0138    1.3887 C   0  0  0  0  0  0  0  0  0  0  0  0
    2.0921    5.4417    2.0431 C   0  0  0  0  0  0  0  0  0  0  0  0
    2.7195    4.6140    2.9656 C   0  0  0  0  0  0  0  0  0  0  0  0
    4.2068    5.0254    3.8194 S   0  0  0  0  0  0  0  0  0  0  0  0
    4.4768    6.7678    3.3988 C   0  0  0  0  0  0  0  0  0  0  0  0
    2.1735    3.3617    3.2431 C   0  0  0  0  0  0  0  0  0  0  0  0
    1.0352    2.9385    2.5960 C   0  0  0  0  0  0  0  0  0  0  0  0
    0.7190    1.5717   -0.1244 C   0  0  0  0  0  0  0  0  0  0  0  0
    2.2973    2.2723   -0.1935 S   0  0  0  0  0  0  0  0  0  0  0  0
    2.9488    0.8109   -0.9416 C   0  0  0  0  0  0  0  0  0  0  0  0
    1.9803   -0.1720   -1.0988 C   0  0  0  0  0  0  0  0  0  0  0  0
    2.1568   -1.4599   -1.5781 N   0  0  0  0  0  0  0  0  0  0  0  0
    1.0185   -2.0272   -2.1955 C   0  0  0  0  0  0  0  0  0  0  0  0
    0.4257   -1.3694   -3.2723 C   0  0  0  0  0  0  0  0  0  0  0  0
   -0.7580   -1.8344   -3.8009 C   0  0  0  0  0  0  0  0  0  0  0  0
   -1.3745   -2.9644   -3.2659 C   0  0  0  0  0  0  0  0  0  0  0  0
   -2.9255   -3.4318   -3.9625 S   0  0  0  0  0  0  0  0  0  0  0  0
   -3.5616   -4.6611   -2.7922 C   0  0  0  0  0  0  0  0  0  0  0  0
   -0.7559   -3.6515   -2.2287 C   0  0  0  0  0  0  0  0  0  0  0  0
    0.4296   -3.1847   -1.6975 C   0  0  0  0  0  0  0  0  0  0  0  0
    3.1724   -2.3019   -1.1196 C   0  0  0  0  0  0  0  0  0  0  0  0
    3.4961   -3.4396   -1.8566 C   0  0  0  0  0  0  0  0  0  0  0  0
    4.4671   -4.3166   -1.4174 C   0  0  0  0  0  0  0  0  0  0  0  0
    5.1558   -4.0603   -0.2391 C   0  0  0  0  0  0  0  0  0  0  0  0
    6.4395   -5.0832    0.4095 S   0  0  0  0  0  0  0  0  0  0  0  0
    6.4898   -6.5005   -0.7229 C   0  0  0  0  0  0  0  0  0  0  0  0
    4.8438   -2.9180    0.4956 C   0  0  0  0  0  0  0  0  0  0  0  0
    3.8601   -2.0547    0.0699 C   0  0  0  0  0  0  0  0  0  0  0  0
    0.7165    0.2954   -0.6568 C   0  0  0  0  0  0  0  0  0  0  0  0
   -0.8583   -0.4038   -0.5987 S   0  0  0  0  0  0  0  0  0  0  0  0
    4.3269    0.8426   -1.2844 C   0  0  0  0  0  0  0  0  0  0  0  0
    5.2128    1.8066   -0.8849 C   0  0  0  0  0  0  0  0  0  0  0  0
    6.5148    1.6545   -1.4017 C   0  0  0  0  0  0  0  0  0  0  0  0
    7.6083    2.4958   -1.1320 C   0  0  0  0  0  0  0  0  0  0  0  0
    7.4652    3.7461   -0.3720 C   0  0  0  0  0  0  0  0  0  0  0  0
    6.5058    4.6991   -0.7795 C   0  0  0  0  0  0  0  0  0  0  0  0
    6.4185    5.9084   -0.1544 C   0  0  0  0  0  0  0  0  0  0  0  0
    7.2740    6.2345    0.9195 C   0  0  0  0  0  0  0  0  0  0  0  0
    7.2359    7.4892    1.5611 C   0  0  0  0  0  0  0  0  0  0  0  0
    8.0702    7.7636    2.6088 C   0  0  0  0  0  0  0  0  0  0  0  0
    8.9817    6.7966    3.0608 C   0  0  0  0  0  0  0  0  0  0  0  0
    9.0550    5.5773    2.4484 C   0  0  0  0  0  0  0  0  0  0  0  0
    8.2128    5.2658    1.3606 C   0  0  0  0  0  0  0  0  0  0  0  0
    8.2912    4.0319    0.6873 C   0  0  0  0  0  0  0  0  0  0  0  0
    8.8223    2.1107   -1.6676 C   0  0  0  0  0  0  0  0  0  0  0  0
    8.9624    0.9652   -2.4935 C   0  0  0  0  0  0  0  0  0  0  0  0
    7.8427    0.1491   -2.8139 C   0  0  0  0  0  0  0  0  0  0  0  0
    8.1246   -0.8335   -3.6872 O   0  0  0  0  0  0  0  0  0  0  0  0
    7.2588   -1.9297   -3.9022 C   0  0  0  0  0  0  0  0  0  0  0  0
    7.3131   -2.9266   -2.7526 C   0  0  0  0  0  0  0  0  0  0  0  0
    6.6344    0.5038   -2.2337 C   0  0  0  0  0  0  0  0  0  0  0  0
    5.0783   -0.3096   -2.3627 S   0  0  0  0  0  0  0  0  0  0  0  0
   10.2780    0.7657   -2.9343 C   0  0  0  0  0  0  0  0  0  0  0  0
   11.1634    1.7211   -2.4804 C   0  0  0  0  0  0  0  0  0  0  0  0
   10.3405    2.9313   -1.4840 S   0  0  0  0  0  0  0  0  0  0  0  0
   12.5425    1.9138   -2.6691 C   0  0  0  0  0  0  0  0  0  0  0  0
   13.5036    1.1290   -3.2583 C   0  0  0  0  0  0  0  0  0  0  0  0
   13.3780   -0.2517   -3.7667 C   0  0  0  0  0  0  0  0  0  0  0  0
   12.3866   -0.9364   -3.9047 O   0  0  0  0  0  0  0  0  0  0  0  0
   14.7604   -0.6865   -4.0793 C   0  0  0  0  0  0  0  0  0  0  0  0
   15.1812   -1.9186   -4.5354 C   0  0  0  0  0  0  0  0  0  0  0  0
   16.5447   -2.0953   -4.7442 C   0  0  0  0  0  0  0  0  0  0  0  0
   17.0708   -3.4249   -5.2085 C   0  0  0  0  0  0  0  0  0  0  0  0
   16.1371   -4.1825   -5.7981 F   0  0  0  0  0  0  0  0  0  0  0  0
   18.0774   -3.3022   -6.0885 F   0  0  0  0  0  0  0  0  0  0  0  0
   17.5583   -4.1549   -4.1851 F   0  0  0  0  0  0  0  0  0  0  0  0
   17.4487   -1.0680   -4.4928 C   0  0  0  0  0  0  0  0  0  0  0  0
   17.0154    0.1688   -4.0381 C   0  0  0  0  0  0  0  0  0  0  0  0
   15.6577    0.3629   -3.8310 C   0  0  0  0  0  0  0  0  0  0  0  0
   14.8958    1.5248   -3.3688 C   0  0  0  0  0  0  0  0  0  0  0  0
   15.4317    2.7679   -3.1502 C   0  0  0  0  0  0  0  0  0  0  0  0
   14.7214    3.9355   -2.7957 C   0  0  0  0  0  0  0  0  0  0  0  0
   14.2405    4.9416   -2.5200 N   0  0  0  0  0  0  0  0  0  0  0  0
   16.8024    3.0735   -3.2893 C   0  0  0  0  0  0  0  0  0  0  0  0
   17.9012    3.3939   -3.3793 N   0  0  0  0  0  0  0  0  0  0  0  0
  -11.0904    0.4533    3.9380 H   0  0  0  0  0  0  0  0  0  0  0  0
  -10.7780   -5.7384    3.2402 H   0  0  0  0  0  0  0  0  0  0  0  0
  -14.7965   -3.3344    5.1721 H   0  0  0  0  0  0  0  0  0  0  0  0
  -14.7128   -6.5843    6.2478 H   0  0  0  0  0  0  0  0  0  0  0  0
  -16.5664   -6.3638    4.3476 H   0  0  0  0  0  0  0  0  0  0  0  0
  -16.6084   -8.8244    5.2692 H   0  0  0  0  0  0  0  0  0  0  0  0
  -14.5199  -10.1208    4.2615 H   0  0  0  0  0  0  0  0  0  0  0  0
  -13.1926   -8.4593    2.7189 H   0  0  0  0  0  0  0  0  0  0  0  0
  -14.5930   -6.1731    2.5343 H   0  0  0  0  0  0  0  0  0  0  0  0
  -15.6304   -7.5754    2.1883 H   0  0  0  0  0  0  0  0  0  0  0  0
  -12.6648   -7.8552    5.2597 H   0  0  0  0  0  0  0  0  0  0  0  0
   -9.0867   -1.5218    1.2680 H   0  0  0  0  0  0  0  0  0  0  0  0
   -7.3378   -3.0454    1.3197 H   0  0  0  0  0  0  0  0  0  0  0  0
   -7.7452   -4.9185   -0.2018 H   0  0  0  0  0  0  0  0  0  0  0  0
   -7.7353   -5.8566   -2.4868 H   0  0  0  0  0  0  0  0  0  0  0  0
   -7.2612   -5.5902   -4.8896 H   0  0  0  0  0  0  0  0  0  0  0  0
   -6.3528   -3.4681   -5.7490 H   0  0  0  0  0  0  0  0  0  0  0  0
   -5.9240   -1.5901   -4.2166 H   0  0  0  0  0  0  0  0  0  0  0  0
   -6.0065   -0.6417   -1.9610 H   0  0  0  0  0  0  0  0  0  0  0  0
   -5.4309    4.6422    3.5262 H   0  0  0  0  0  0  0  0  0  0  0  0
   -5.0196    4.0019    1.9127 H   0  0  0  0  0  0  0  0  0  0  0  0
   -7.8618    4.3320    3.0037 H   0  0  0  0  0  0  0  0  0  0  0  0
   -7.4389    3.6942    1.4098 H   0  0  0  0  0  0  0  0  0  0  0  0
   -7.0886    5.3770    1.7987 H   0  0  0  0  0  0  0  0  0  0  0  0
   -3.2051    2.4323    2.0794 H   0  0  0  0  0  0  0  0  0  0  0  0
   -2.3376    3.1816   -1.1808 H   0  0  0  0  0  0  0  0  0  0  0  0
   -4.2576    4.6624   -1.5607 H   0  0  0  0  0  0  0  0  0  0  0  0
   -5.5415    7.5837    2.1201 H   0  0  0  0  0  0  0  0  0  0  0  0
   -6.2132    8.7053    0.9167 H   0  0  0  0  0  0  0  0  0  0  0  0
   -4.4522    8.6151    1.1355 H   0  0  0  0  0  0  0  0  0  0  0  0
   -3.3910    6.7217    2.0863 H   0  0  0  0  0  0  0  0  0  0  0  0
   -1.5197    5.2266    2.4870 H   0  0  0  0  0  0  0  0  0  0  0  0
    0.4821    5.6523    0.6561 H   0  0  0  0  0  0  0  0  0  0  0  0
    2.4902    6.4152    1.8082 H   0  0  0  0  0  0  0  0  0  0  0  0
    4.6699    6.8651    2.3353 H   0  0  0  0  0  0  0  0  0  0  0  0
    3.6191    7.3583    3.7074 H   0  0  0  0  0  0  0  0  0  0  0  0
    5.3584    7.0702    3.9552 H   0  0  0  0  0  0  0  0  0  0  0  0
    2.6578    2.7281    3.9699 H   0  0  0  0  0  0  0  0  0  0  0  0
    0.6168    1.9658    2.8101 H   0  0  0  0  0  0  0  0  0  0  0  0
    0.8895   -0.4785   -3.6694 H   0  0  0  0  0  0  0  0  0  0  0  0
   -1.2304   -1.3189   -4.6225 H   0  0  0  0  0  0  0  0  0  0  0  0
   -3.5961   -4.2291   -1.7963 H   0  0  0  0  0  0  0  0  0  0  0  0
   -4.5675   -4.8922   -3.1277 H   0  0  0  0  0  0  0  0  0  0  0  0
   -2.9504   -5.5587   -2.8186 H   0  0  0  0  0  0  0  0  0  0  0  0
   -1.1981   -4.5395   -1.8081 H   0  0  0  0  0  0  0  0  0  0  0  0
    0.8900   -3.7044   -0.8702 H   0  0  0  0  0  0  0  0  0  0  0  0
    2.9750   -3.6384   -2.7809 H   0  0  0  0  0  0  0  0  0  0  0  0
    4.6792   -5.1932   -2.0080 H   0  0  0  0  0  0  0  0  0  0  0  0
    6.7982   -6.1783   -1.7132 H   0  0  0  0  0  0  0  0  0  0  0  0
    5.5207   -6.9900   -0.7479 H   0  0  0  0  0  0  0  0  0  0  0  0
    7.2325   -7.1757   -0.3096 H   0  0  0  0  0  0  0  0  0  0  0  0
    5.3766   -2.7232    1.4138 H   0  0  0  0  0  0  0  0  0  0  0  0
    3.6162   -1.1890    0.6668 H   0  0  0  0  0  0  0  0  0  0  0  0
    4.9403    2.5938   -0.2043 H   0  0  0  0  0  0  0  0  0  0  0  0
    5.8631    4.4680   -1.6167 H   0  0  0  0  0  0  0  0  0  0  0  0
    5.6972    6.6421   -0.4879 H   0  0  0  0  0  0  0  0  0  0  0  0
    6.5397    8.2364    1.2046 H   0  0  0  0  0  0  0  0  0  0  0  0
    8.0362    8.7282    3.0943 H   0  0  0  0  0  0  0  0  0  0  0  0
    9.6302    7.0294    3.8926 H   0  0  0  0  0  0  0  0  0  0  0  0
    9.7641    4.8343    2.7833 H   0  0  0  0  0  0  0  0  0  0  0  0
    9.0144    3.3029    1.0233 H   0  0  0  0  0  0  0  0  0  0  0  0
    6.2308   -1.5977   -4.0821 H   0  0  0  0  0  0  0  0  0  0  0  0
    7.6420   -2.3893   -4.8174 H   0  0  0  0  0  0  0  0  0  0  0  0
    6.9320   -2.4822   -1.8363 H   0  0  0  0  0  0  0  0  0  0  0  0
    6.7025   -3.7898   -2.9985 H   0  0  0  0  0  0  0  0  0  0  0  0
    8.3393   -3.2453   -2.5870 H   0  0  0  0  0  0  0  0  0  0  0  0
   10.5667   -0.0573   -3.5612 H   0  0  0  0  0  0  0  0  0  0  0  0
   12.8961    2.8449   -2.2413 H   0  0  0  0  0  0  0  0  0  0  0  0
   14.4700   -2.7081   -4.7230 H   0  0  0  0  0  0  0  0  0  0  0  0
   18.5018   -1.2371   -4.6592 H   0  0  0  0  0  0  0  0  0  0  0  0
   17.7363    0.9467   -3.8501 H   0  0  0  0  0  0  0  0  0  0  0  0
  1  2  2  0  0  0  0
  2  3  1  0  0  0  0
  3  4  2  0  0  0  0
  3  5  1  0  0  0  0
  5  6  2  0  0  0  0
  6  7  1  0  0  0  0
  7  8  2  0  0  0  0
  8  9  1  0  0  0  0
  9 10  2  0  0  0  0
 10 11  1  0  0  0  0
 11 12  2  0  0  0  0
 12 13  1  0  0  0  0
 13 14  3  0  0  0  0
 12 15  1  0  0  0  0
 15 16  3  0  0  0  0
  8 17  1  0  0  0  0
 17 18  1  0  0  0  0
 18 19  1  0  0  0  0
 19 20  2  0  0  0  0
 20 21  1  0  0  0  0
 21 22  1  0  0  0  0
 21 23  1  0  0  0  0
  1 24  1  0  0  0  0
 24 25  2  0  0  0  0
 25 26  1  0  0  0  0
 26 27  2  0  0  0  0
 27 28  1  0  0  0  0
 28 29  2  0  0  0  0
 29 30  1  0  0  0  0
 30 31  2  0  0  0  0
 31 32  1  0  0  0  0
 32 33  2  0  0  0  0
 33 34  1  0  0  0  0
 34 35  2  0  0  0  0
 35 36  1  0  0  0  0
 36 37  2  0  0  0  0
 27 38  1  0  0  0  0
 38 39  2  0  0  0  0
 39 40  1  0  0  0  0
 40 41  1  0  0  0  0
 41 42  1  0  0  0  0
 42 43  1  0  0  0  0
 40 44  2  0  0  0  0
 44 45  1  0  0  0  0
 39 46  1  0  0  0  0
 46 47  2  0  0  0  0
 47 48  1  0  0  0  0
 47 49  1  0  0  0  0
 49 50  2  0  0  0  0
 50 51  1  0  0  0  0
 51 52  1  0  0  0  0
 52 53  2  0  0  0  0
 53 54  1  0  0  0  0
 54 55  2  0  0  0  0
 55 56  1  0  0  0  0
 56 57  1  0  0  0  0
 55 58  1  0  0  0  0
 58 59  2  0  0  0  0
 51 60  1  0  0  0  0
 60 61  2  0  0  0  0
 61 62  1  0  0  0  0
 62 63  2  0  0  0  0
 63 64  1  0  0  0  0
 64 65  1  0  0  0  0
 63 66  1  0  0  0  0
 66 67  2  0  0  0  0
 50 68  1  0  0  0  0
 68 69  1  0  0  0  0
 69 70  1  0  0  0  0
 70 71  2  0  0  0  0
 71 72  1  0  0  0  0
 72 73  1  0  0  0  0
 73 74  2  0  0  0  0
 74 75  1  0  0  0  0
 75 76  2  0  0  0  0
 76 77  1  0  0  0  0
 77 78  1  0  0  0  0
 76 79  1  0  0  0  0
 79 80  2  0  0  0  0
 72 81  1  0  0  0  0
 81 82  2  0  0  0  0
 82 83  1  0  0  0  0
 83 84  2  0  0  0  0
 84 85  1  0  0  0  0
 85 86  1  0  0  0  0
 84 87  1  0  0  0  0
 87 88  2  0  0  0  0
 71 89  1  0  0  0  0
 89 90  1  0  0  0  0
 70 91  1  0  0  0  0
 91 92  2  0  0  0  0
 92 93  1  0  0  0  0
 93 94  2  0  0  0  0
 94 95  1  0  0  0  0
 95 96  2  0  0  0  0
 96 97  1  0  0  0  0
 97 98  2  0  0  0  0
 98 99  1  0  0  0  0
 99100  2  0  0  0  0
100101  1  0  0  0  0
101102  2  0  0  0  0
102103  1  0  0  0  0
103104  2  0  0  0  0
 94105  1  0  0  0  0
105106  2  0  0  0  0
106107  1  0  0  0  0
107108  1  0  0  0  0
108109  1  0  0  0  0
109110  1  0  0  0  0
107111  2  0  0  0  0
111112  1  0  0  0  0
106113  1  0  0  0  0
113114  2  0  0  0  0
114115  1  0  0  0  0
114116  1  0  0  0  0
116117  2  0  0  0  0
117118  1  0  0  0  0
118119  2  0  0  0  0
118120  1  0  0  0  0
120121  2  0  0  0  0
121122  1  0  0  0  0
122123  1  0  0  0  0
123124  1  0  0  0  0
123125  1  0  0  0  0
123126  1  0  0  0  0
122127  2  0  0  0  0
127128  1  0  0  0  0
128129  2  0  0  0  0
129130  1  0  0  0  0
130131  2  0  0  0  0
131132  1  0  0  0  0
132133  3  0  0  0  0
131134  1  0  0  0  0
134135  3  0  0  0  0
 11  2  1  0  0  0  0
 23 17  1  0  0  0  0
 45 24  1  0  0  0  0
 90 49  1  0  0  0  0
112 91  1  0  0  0  0
130117  1  0  0  0  0
 10  5  1  0  0  0  0
 22 18  1  0  0  0  0
 44 26  1  0  0  0  0
 59 52  1  0  0  0  0
 67 60  1  0  0  0  0
 89 68  2  0  0  0  0
111 93  1  0  0  0  0
129120  1  0  0  0  0
 23  7  1  0  0  0  0
 37 28  1  0  0  0  0
 48 38  1  0  0  0  0
 80 73  1  0  0  0  0
 88 81  1  0  0  0  0
104 95  1  0  0  0  0
115105  1  0  0  0  0
 36 31  1  0  0  0  0
103 98  1  0  0  0  0
  1136  1  0  0  0  0
  6137  1  0  0  0  0
  9138  1  0  0  0  0
 17139  1  0  0  0  0
 18140  1  0  0  0  0
 19141  1  0  0  0  0
 20142  1  0  0  0  0
 21143  1  0  0  0  0
 22144  1  0  0  0  0
 22145  1  0  0  0  0
 23146  1  0  0  0  0
 25147  1  0  0  0  0
 29148  1  0  0  0  0
 30149  1  0  0  0  0
 32150  1  0  0  0  0
 33151  1  0  0  0  0
 34152  1  0  0  0  0
 35153  1  0  0  0  0
 37154  1  0  0  0  0
 42155  1  0  0  0  0
 42156  1  0  0  0  0
 43157  1  0  0  0  0
 43158  1  0  0  0  0
 43159  1  0  0  0  0
 46160  1  0  0  0  0
 53161  1  0  0  0  0
 54162  1  0  0  0  0
 57163  1  0  0  0  0
 57164  1  0  0  0  0
 57165  1  0  0  0  0
 58166  1  0  0  0  0
 59167  1  0  0  0  0
 61168  1  0  0  0  0
 62169  1  0  0  0  0
 65170  1  0  0  0  0
 65171  1  0  0  0  0
 65172  1  0  0  0  0
 66173  1  0  0  0  0
 67174  1  0  0  0  0
 74175  1  0  0  0  0
 75176  1  0  0  0  0
 78177  1  0  0  0  0
 78178  1  0  0  0  0
 78179  1  0  0  0  0
 79180  1  0  0  0  0
 80181  1  0  0  0  0
 82182  1  0  0  0  0
 83183  1  0  0  0  0
 86184  1  0  0  0  0
 86185  1  0  0  0  0
 86186  1  0  0  0  0
 87187  1  0  0  0  0
 88188  1  0  0  0  0
 92189  1  0  0  0  0
 96190  1  0  0  0  0
 97191  1  0  0  0  0
 99192  1  0  0  0  0
100193  1  0  0  0  0
101194  1  0  0  0  0
102195  1  0  0  0  0
104196  1  0  0  0  0
109197  1  0  0  0  0
109198  1  0  0  0  0
110199  1  0  0  0  0
110200  1  0  0  0  0
110201  1  0  0  0  0
113202  1  0  0  0  0
116203  1  0  0  0  0
121204  1  0  0  0  0
127205  1  0  0  0  0
128206  1  0  0  0  0
M  END
