230

C         -8.20270       -4.40890        3.04110
C         -9.43290       -4.11160        3.55330
C         -9.97210       -2.78490        3.93360
O         -9.38850       -1.72320        4.01320
C        -11.40520       -2.99620        4.20920
C        -12.34080       -2.01630        4.53590
C        -13.61440       -2.49760        4.71830
C        -13.93590       -3.85490        4.58170
C        -13.02330       -4.83090        4.26070
C        -11.71780       -4.36280        4.07670
C        -10.49760       -5.08670        3.73000
C        -10.39240       -6.45090        3.63900
C        -11.46090       -7.34920        3.84540
N        -12.27620       -8.14380        3.99560
C         -9.21760       -7.18310        3.36450
N         -8.32030       -7.87090        3.15950
C        -15.39220       -3.62460        4.90040
C        -15.85690       -4.01150        6.32040
C        -17.15040       -3.24940        6.49710
C        -16.84690       -1.96410        6.62680
C        -15.34310       -1.83600        6.54010
C        -14.92720       -3.15980        7.19450
C        -15.03380       -2.11150        5.05330
C         -7.08350       -3.59140        2.77210
C         -6.76390       -2.26460        2.98030
C         -5.46940       -2.06540        2.46210
C         -4.62080       -0.93700        2.39220
C         -4.89480        0.32220        3.02020
C         -5.69150        0.58440        4.11000
C         -5.63440        1.92350        4.51500
C         -4.81700        2.70940        3.74810
Si        -4.34470        4.51690        4.01870
C         -3.32870        4.53290        5.64960
C         -2.41590        5.74110        5.82810
C         -5.97070        5.51820        4.17480
C         -5.82940        6.83940        4.92360
C         -3.30480        5.03190        2.50110
C         -3.13420        6.53450        2.30370
S         -4.08800        1.77030        2.49520
C         -3.43780       -1.17520        1.70030
C         -3.04550       -2.42630        1.16040
C         -3.85120       -3.57580        1.30530
C         -3.45420       -4.90130        0.90810
C         -4.24220       -6.01590        0.75630
C         -3.51350       -7.16780        0.42680
C         -2.16340       -6.97390        0.32820
Si        -0.81370       -8.23420       -0.06140
C         -1.60980       -9.66700       -1.04360
C         -2.22350       -9.22670       -2.36850
C          0.55550       -7.40570       -1.11400
C          1.46170       -6.46370       -0.32720
C         -0.12080       -8.86560        1.60870
C          0.95000       -9.94020        1.45270
S         -1.78320       -5.31570        0.64690
C         -5.07190       -3.32580        1.93580
O         -6.04220       -4.23500        2.14950
C         -1.77450       -2.19160        0.57670
C         -1.46420       -0.88120        0.82520
O         -2.47040       -0.25360        1.48930
C         -0.25960       -0.16120        0.54120
C          0.37560        0.79380        1.32170
N          0.00640        1.18490        2.59570
C         -0.66120        0.29580        3.44850
C         -0.37760       -1.06840        3.41530
C         -1.16460       -1.97000        4.10400
C         -2.23290       -1.51780        4.86660
S         -3.39090       -2.58400        5.66550
C         -3.07240       -4.20070        4.90370
C         -2.43140       -0.14710        5.01370
C         -1.66040        0.74990        4.30930
C          0.22900        2.51340        2.98280
C          0.06850        3.55430        2.06740
C          0.31620        4.85560        2.44360
C          0.71000        5.15240        3.74630
S          0.97710        6.85990        4.11140
C          1.53380        6.85760        5.83880
C          0.85410        4.12170        4.66600
C          0.62290        2.81530        4.28330
C          1.53600        1.27640        0.66200
S          2.75950        2.42540        1.07670
C          3.57700        2.13190       -0.45180
C          2.96880        1.13800       -1.20470
N          3.45550        0.59330       -2.37940
C          2.54920        0.12160       -3.34050
C          1.36950        0.81040       -3.60470
C          0.46550        0.33150       -4.53370
C          0.73380       -0.84380       -5.22050
S         -0.34030       -1.55510       -6.42710
C         -1.84490       -0.54510       -6.32060
C          1.92550       -1.52490       -4.97430
C          2.82210       -1.05150       -4.04460
C          4.83230        0.54700       -2.64510
C          5.31010        0.82840       -3.92350
C          6.66520        0.93820       -4.16530
C          7.57130        0.76430       -3.12800
S          9.31340        1.00650       -3.28060
C          9.55780        1.40810       -5.03280
C          7.10200        0.39970       -1.86760
C          5.75070        0.28500       -1.62790
C          1.79020        0.67760       -0.56040
S          0.60660       -0.52520       -0.93930
C          4.77080        2.85460       -0.76640
S          4.98640        3.52190       -2.37800
C          6.62580        3.89570       -2.00360
C          7.80140        4.31860       -2.61410
C          8.80330        4.28670       -1.60510
N          8.25860        3.85280       -0.42230
C          8.94890        3.72430        0.83410
C          8.91840        5.02900        1.62760
C          6.93290        3.61030       -0.65480
C          5.86510        3.03900        0.04630
C         10.05230        4.63670       -2.07760
C         10.04010        4.91460       -3.44950
S          8.43030        4.73910       -4.15540
C         11.19780        5.31210       -4.12710
C         11.40780        5.58540       -5.45690
C         10.43610        5.39850       -6.53740
O          9.28930        4.99150       -6.44730
C         11.12560        5.76990       -7.78500
C         10.59280        5.75860       -9.07200
C         11.47200        6.17220      -10.04380
C         12.78440        6.56800       -9.75590
C         13.32140        6.58450       -8.49010
C         12.44410        6.16570       -7.48530
C         12.64560        6.05840       -6.03980
C         13.80500        6.38130       -5.37900
C         14.00910        6.31660       -3.98560
N         14.26590        6.30160       -2.86530
C         14.98220        6.83930       -6.00570
N         15.97810        7.21310       -6.43920
C         13.10140        6.85370      -11.20290
C         13.94710        5.79820      -11.94600
C         13.68950        6.09160      -13.40640
C         12.44610        5.71770      -13.67980
C         11.84240        5.16510      -12.40890
C         13.09050        4.53700      -11.77540
C         11.63720        6.41300      -11.52410
H         -8.02480       -5.43690        2.74920
H        -12.04950       -0.98110        4.62180
H        -13.29110       -5.86800        4.14980
H        -16.09930       -3.91740        4.12670
H        -15.88740       -5.08020        6.51370
H        -18.12380       -3.70160        6.45480
H        -17.51630       -1.12840        6.71430
H        -14.90630       -0.92250        6.93460
H        -13.87120       -3.39780        7.08230
H        -15.20010       -3.20180        8.24760
H        -15.50200       -1.39480        4.38100
H         -7.41350       -1.54070        3.42340
H         -6.25190       -0.16970        4.62990
H         -6.17700        2.30750        5.36060
H         -4.01510        4.47850        6.49660
H         -2.71720        3.62930        5.69950
H         -1.89190        5.68530        6.78200
H         -1.67690        5.77740        5.03260
H         -2.98480        6.66660        5.81000
H         -6.71960        4.90850        4.68260
H         -6.36790        5.71760        3.17820
H         -6.78200        7.36590        4.95810
H         -5.10330        7.48560        4.43740
H         -5.50290        6.66680        5.94590
H         -2.31850        4.57120        2.57440
H         -3.76810        4.61270        1.60590
H         -2.54150        6.73810        1.41350
H         -4.09990        7.01890        2.18300
H         -2.62750        6.98470        3.15280
H         -5.31000       -6.00230        0.86780
H         -3.97280       -8.12690        0.26800
H         -2.37890      -10.14410       -0.43570
H         -0.85900      -10.43210       -1.24170
H         -1.46220       -8.80940       -3.02270
H         -2.68680      -10.06880       -2.87960
H         -2.98300       -8.46630       -2.20500
H          0.09640       -6.84530       -1.93020
H          1.17080       -8.17790       -1.57930
H          1.98860       -7.00030        0.45760
H          2.20120       -6.00500       -0.98160
H          0.87970       -5.67060        0.13590
H          0.29490       -8.02640        2.16840
H         -0.93540       -9.26390        2.21550
H          1.32560      -10.25700        2.42430
H          0.54490      -10.81210        0.94560
H          1.78860       -9.56800        0.86940
H         -1.15040       -2.88650        0.05520
H          0.44570       -1.43340        2.81930
H         -0.94050       -3.02170        4.02540
H         -3.89700       -4.83800        5.20810
H         -3.06340       -4.09880        3.82250
H         -2.13650       -4.61360        5.26910
H         -3.22850        0.20430        5.65050
H         -1.86090        1.80740        4.38490
H         -0.26260        3.33680        1.06310
H          0.19570        5.66110        1.73580
H          0.74680        6.47740        6.48340
H          1.73700        7.89620        6.08070
H          2.44350        6.27200        5.93410
H          1.15340        4.31930        5.68250
H          0.75070        2.01710        4.99940
H          1.16280        1.73470       -3.08570
H         -0.43740        0.89130       -4.71540
H         -2.22250       -0.55510       -5.30250
H         -2.56130       -1.01740       -6.98560
H         -1.64260        0.46700       -6.65910
H          2.12990       -2.43530       -5.51630
H          3.73860       -1.58800       -3.84960
H          4.60950        1.00840       -4.72470
H          6.99650        1.19620       -5.15740
H          9.03770        2.32750       -5.28720
H          9.22640        0.57810       -5.65000
H         10.62830        1.54890       -5.14940
H          7.81290        0.22300       -1.07470
H          5.39730        0.01280       -0.64470
H          9.98190        3.43330        0.62620
H          8.47060        2.92470        1.40570
H          7.89130        5.31950        1.83610
H          9.44590        4.90530        2.56920
H          9.39560        5.82540        1.06170
H          5.88890        2.70530        1.06770
H         10.95420        4.69160       -1.49470
H         12.05390        5.41570       -3.47150
H          9.57320        5.45200       -9.24640
H         14.33190        6.89700       -8.28800
H         13.39990        7.87530      -11.43040
H         14.98620        5.74500      -11.63290
H         14.39560        6.57680      -14.05450
H         11.90600        5.82830      -14.60190
H         10.96420        4.53430      -12.51830
H         13.47070        3.69930      -12.35780
H         12.95550        4.22920      -10.74010
H         10.95940        7.14130      -11.96560
