202

C          6.11200       -6.98690       -1.23260
C          7.34220       -6.54360       -1.58260
C          7.71280       -5.11560       -1.84440
O          6.99430       -4.14100       -1.89350
C          9.16480       -5.15250       -1.97570
S         10.39760       -4.00180       -2.23730
C         11.58670       -5.24860       -2.13900
C         11.06980       -6.48890       -1.91240
C          9.66470       -6.43790       -1.81460
C          8.56290       -7.34520       -1.58420
C          8.68280       -8.69860       -1.42470
C          9.94180       -9.33660       -1.44490
N         10.95550       -9.87410       -1.44980
C          7.62270       -9.60790       -1.23280
N          6.81700      -10.41110       -1.07820
C          4.92040       -6.18340       -1.24440
C          4.01940       -6.25300       -0.19170
F          4.22590       -7.15190        0.78940
C          2.97100       -5.34790       -0.04960
F          2.13490       -5.48550        0.99820
C          2.78900       -4.30370       -0.94680
C          3.56940       -4.33430       -2.13580
N          3.35240       -3.40970       -3.07870
C          4.07060       -3.41630       -4.17410
C          3.75870       -2.33310       -5.16130
C          2.49050       -2.68400       -5.94320
C          5.01310       -4.45920       -4.39860
N          5.26030       -5.34910       -3.46910
C          4.60770       -5.28150       -2.30080
C          5.79470       -4.60280       -5.66860
C          7.08620       -3.78470       -5.58180
C          1.92480       -3.19300       -0.68440
C          1.71580       -2.55590        0.53430
N          2.37570       -2.82260        1.71600
C          3.71500       -3.23780        1.70920
C          4.15690       -4.20320        2.61040
C          5.43820       -4.71180        2.52210
C          6.29850       -4.25550        1.53290
S          7.91880       -4.91960        1.27910
C          7.79720       -6.57550        2.02110
C          5.89260       -3.22550        0.68760
C          4.61280       -2.72710        0.77060
C          1.69600       -2.57650        2.91570
C          2.34050       -1.98420        4.00140
C          1.62290       -1.64230        5.12620
C          0.25110       -1.88620        5.19670
S         -0.58930       -1.31850        6.64080
C         -2.31190       -1.82570        6.37660
C         -0.37840       -2.53820        4.14540
C          0.34150       -2.88410        3.01950
C          0.78970       -1.49600        0.38050
S          0.12100       -0.33820        1.46800
C         -0.74640        0.41580        0.14700
C         -0.56540       -0.23200       -1.05220
N         -1.29370        0.09300       -2.21560
C         -0.69950        0.95740       -3.14870
C         -1.41290        2.01170       -3.71370
C         -0.82030        2.86730       -4.62100
C          0.51450        2.70500       -4.95980
S          1.37480        3.77320       -6.07220
C          0.03930        4.59420       -6.98970
C          1.24040        1.66470       -4.38830
C          0.64120        0.79660       -3.50050
C         -2.62730       -0.30490       -2.29030
C         -3.29650       -0.82300       -1.17750
C         -4.62750       -1.17040       -1.24930
C         -5.32980       -1.03920       -2.44000
S         -7.04120       -1.48690       -2.43040
C         -7.71780       -0.55050       -3.83180
C         -4.65480       -0.61410       -3.57500
C         -3.32330       -0.25840       -3.50070
C          0.33620       -1.31530       -0.91730
S          1.09290       -2.41910       -2.01350
C         -1.58990        1.55250        0.43590
C         -1.33160        2.88080        0.15810
N         -0.14210        3.28550       -0.43410
C          1.01560        2.70040        0.13270
C          1.94830        2.01340       -0.63910
C          2.99670        1.35830       -0.02970
C          3.14310        1.38750        1.35660
S          4.47750        0.45470        2.03740
C          4.54960        1.00920        3.76450
C          2.23940        2.11020        2.12340
C          1.18520        2.76000        1.51240
C         -0.08560        4.26370       -1.41750
C         -1.24240        4.68980       -2.07180
C         -1.17650        5.65990       -3.04710
C          0.04510        6.21280       -3.41570
S          0.02040        7.43300       -4.69800
C          1.75840        7.53550       -5.21250
C          1.19880        5.79730       -2.76790
C          1.13150        4.84130       -1.77530
C         -2.35030        3.71340        0.68910
S         -2.65290        5.41130        0.75490
C         -4.02120        5.15970        1.82130
C         -4.23940        3.81710        2.08600
N         -5.33270        3.28430        2.80790
C         -6.33710        2.78320        1.93490
C         -6.63620        1.42620        1.86940
C         -7.58880        0.95570        0.98670
C         -8.25650        1.84020        0.14960
S         -9.48810        1.35160       -1.01350
C         -9.91570       -0.33760       -0.50330
C         -7.94390        3.19740        0.19860
C         -6.99200        3.66500        1.07820
C         -5.09950        2.61850        4.01590
C         -3.81770        2.36670        4.50410
C         -3.63410        1.74480        5.72460
C         -4.72800        1.38060        6.49360
S         -4.56360        0.59550        8.06810
C         -3.02810        1.33700        8.69870
C         -6.01230        1.63080        6.01530
C         -6.19700        2.24520        4.79780
C         -3.30890        3.01060        1.40630
S         -3.03500        1.30980        1.39240
C         -4.86660        6.24810        2.18440
C         -5.57050        6.35230        3.33620
C         -6.81430        7.18880        3.40530
O         -7.18410        8.00340        2.59350
C         -7.46220        6.72330        4.62680
S         -8.94800        7.00190        5.42760
C         -8.48780        5.90340        6.67470
C         -7.25220        5.35210        6.50130
C         -6.65780        5.82070        5.31580
C         -5.40900        5.66440        4.60300
C         -4.24190        5.20250        5.15080
C         -2.98950        5.25450        4.50830
N         -1.93900        5.29650        4.04650
C         -4.17330        4.72780        6.47460
N         -4.07990        4.35290        7.55550
H          6.00140       -7.99180       -0.84310
H         12.62030       -4.98820       -2.25740
H         11.66620       -7.37750       -1.82020
H          3.57950       -1.41190       -4.60510
H          4.59090       -2.17620       -5.84540
H          2.24390       -1.88210       -6.63440
H          2.62650       -3.60310       -6.50950
H          1.66050       -2.81980       -5.25450
H          6.04970       -5.65650       -5.78940
H          5.20290       -4.28100       -6.52600
H          7.68160       -3.92680       -6.48030
H          6.87060       -2.72480       -5.46900
H          7.66740       -4.10370       -4.72050
H          3.47710       -4.58630        3.35660
H          5.74330       -5.47960        3.21460
H          7.83260       -6.50740        3.10430
H          8.66140       -7.12820        1.66490
H          6.88130       -7.05530        1.68860
H          6.57630       -2.84150       -0.05140
H          4.29840       -1.94470        0.09790
H          3.39920       -1.78210        3.94140
H          2.11230       -1.16570        5.96270
H         -2.85980       -1.50080        7.25630
H         -2.36910       -2.90670        6.29120
H         -2.71300       -1.33400        5.49450
H         -1.42810       -2.77830        4.18400
H         -0.15140       -3.39590        2.20650
H         -2.44280        2.17260       -3.43340
H         -1.40420        3.67120       -5.03770
H         -0.65520        3.84610       -7.35930
H          0.52050        5.09770       -7.82260
H         -0.46080        5.32470       -6.36020
H          2.27920        1.54010       -4.65510
H          1.21130       -0.02080       -3.08820
H         -2.78130       -0.95970       -0.24050
H         -5.13400       -1.54530       -0.37320
H         -7.43750       -1.02010       -4.77030
H         -7.36330        0.47430       -3.78040
H         -8.79670       -0.57400       -3.71710
H         -5.15440       -0.56290       -4.52980
H         -2.81270        0.04440       -4.40180
H          1.83180        1.98340       -1.71120
H          3.71060        0.80630       -0.62230
H          3.65600        0.69820        4.29810
H          4.67500        2.08740        3.79730
H          5.42250        0.52280        4.18970
H          2.33200        2.16370        3.19540
H          0.47600        3.30880        2.11470
H         -2.19610        4.24680       -1.83340
H         -2.07670        5.99150       -3.54270
H          2.13810        6.53670       -5.40800
H          2.34560        8.04110       -4.45120
H          1.76090        8.12210       -6.12590
H          2.15970        6.21550       -3.01990
H          2.03670        4.54500       -1.26830
H         -6.11030        0.73160        2.50810
H         -7.78580       -0.10310        0.94600
H        -10.15970       -0.34570        0.55470
H         -9.09900       -1.01660       -0.73150
H        -10.79120       -0.60620       -1.08630
H         -8.45910        3.88030       -0.45910
H         -6.75880        4.71840        1.11060
H         -2.94740        2.64700        3.93220
H         -2.62930        1.55480        6.06670
H         -3.05860        2.40460        8.50140
H         -3.02460        1.15070        9.76790
H         -2.15870        0.87160        8.24210
H         -6.86240        1.34860        6.61720
H         -7.19450        2.45190        4.43880
H         -5.04770        7.00270        1.42630
H         -9.16840        5.72770        7.48480
H         -6.80590        4.64590        7.17680
