
  xtb     02092203453D
 energy: -347.304202689445 gnorm: 0.000388455048 xtb: 6.4.1 (unknown)
202219  0     0  0            999 V2000
    6.1120   -6.9869   -1.2326 C   0  0  0  0  0  0  0  0  0  0  0  0
    7.3422   -6.5436   -1.5826 C   0  0  0  0  0  0  0  0  0  0  0  0
    7.7128   -5.1156   -1.8444 C   0  0  0  0  0  0  0  0  0  0  0  0
    6.9943   -4.1410   -1.8935 O   0  0  0  0  0  0  0  0  0  0  0  0
    9.1648   -5.1525   -1.9757 C   0  0  0  0  0  0  0  0  0  0  0  0
   10.3976   -4.0018   -2.2373 S   0  0  0  0  0  0  0  0  0  0  0  0
   11.5867   -5.2486   -2.1390 C   0  0  0  0  0  0  0  0  0  0  0  0
   11.0698   -6.4889   -1.9124 C   0  0  0  0  0  0  0  0  0  0  0  0
    9.6647   -6.4379   -1.8146 C   0  0  0  0  0  0  0  0  0  0  0  0
    8.5629   -7.3452   -1.5842 C   0  0  0  0  0  0  0  0  0  0  0  0
    8.6828   -8.6986   -1.4247 C   0  0  0  0  0  0  0  0  0  0  0  0
    9.9418   -9.3366   -1.4449 C   0  0  0  0  0  0  0  0  0  0  0  0
   10.9555   -9.8741   -1.4498 N   0  0  0  0  0  0  0  0  0  0  0  0
    7.6227   -9.6079   -1.2328 C   0  0  0  0  0  0  0  0  0  0  0  0
    6.8170  -10.4111   -1.0782 N   0  0  0  0  0  0  0  0  0  0  0  0
    4.9204   -6.1834   -1.2444 C   0  0  0  0  0  0  0  0  0  0  0  0
    4.0194   -6.2530   -0.1917 C   0  0  0  0  0  0  0  0  0  0  0  0
    4.2259   -7.1519    0.7894 F   0  0  0  0  0  0  0  0  0  0  0  0
    2.9710   -5.3479   -0.0496 C   0  0  0  0  0  0  0  0  0  0  0  0
    2.1349   -5.4855    0.9982 F   0  0  0  0  0  0  0  0  0  0  0  0
    2.7890   -4.3037   -0.9468 C   0  0  0  0  0  0  0  0  0  0  0  0
    3.5694   -4.3343   -2.1358 C   0  0  0  0  0  0  0  0  0  0  0  0
    3.3524   -3.4097   -3.0787 N   0  0  0  0  0  0  0  0  0  0  0  0
    4.0706   -3.4163   -4.1741 C   0  0  0  0  0  0  0  0  0  0  0  0
    3.7587   -2.3331   -5.1613 C   0  0  0  0  0  0  0  0  0  0  0  0
    2.4905   -2.6840   -5.9432 C   0  0  0  0  0  0  0  0  0  0  0  0
    5.0131   -4.4592   -4.3986 C   0  0  0  0  0  0  0  0  0  0  0  0
    5.2603   -5.3491   -3.4691 N   0  0  0  0  0  0  0  0  0  0  0  0
    4.6077   -5.2815   -2.3008 C   0  0  0  0  0  0  0  0  0  0  0  0
    5.7947   -4.6028   -5.6686 C   0  0  0  0  0  0  0  0  0  0  0  0
    7.0862   -3.7847   -5.5818 C   0  0  0  0  0  0  0  0  0  0  0  0
    1.9248   -3.1930   -0.6844 C   0  0  0  0  0  0  0  0  0  0  0  0
    1.7158   -2.5559    0.5343 C   0  0  0  0  0  0  0  0  0  0  0  0
    2.3757   -2.8226    1.7160 N   0  0  0  0  0  0  0  0  0  0  0  0
    3.7150   -3.2378    1.7092 C   0  0  0  0  0  0  0  0  0  0  0  0
    4.1569   -4.2032    2.6104 C   0  0  0  0  0  0  0  0  0  0  0  0
    5.4382   -4.7118    2.5221 C   0  0  0  0  0  0  0  0  0  0  0  0
    6.2985   -4.2555    1.5329 C   0  0  0  0  0  0  0  0  0  0  0  0
    7.9188   -4.9196    1.2791 S   0  0  0  0  0  0  0  0  0  0  0  0
    7.7972   -6.5755    2.0211 C   0  0  0  0  0  0  0  0  0  0  0  0
    5.8926   -3.2255    0.6876 C   0  0  0  0  0  0  0  0  0  0  0  0
    4.6128   -2.7271    0.7706 C   0  0  0  0  0  0  0  0  0  0  0  0
    1.6960   -2.5765    2.9157 C   0  0  0  0  0  0  0  0  0  0  0  0
    2.3405   -1.9842    4.0014 C   0  0  0  0  0  0  0  0  0  0  0  0
    1.6229   -1.6423    5.1262 C   0  0  0  0  0  0  0  0  0  0  0  0
    0.2511   -1.8862    5.1967 C   0  0  0  0  0  0  0  0  0  0  0  0
   -0.5893   -1.3185    6.6408 S   0  0  0  0  0  0  0  0  0  0  0  0
   -2.3119   -1.8257    6.3766 C   0  0  0  0  0  0  0  0  0  0  0  0
   -0.3784   -2.5382    4.1454 C   0  0  0  0  0  0  0  0  0  0  0  0
    0.3415   -2.8841    3.0195 C   0  0  0  0  0  0  0  0  0  0  0  0
    0.7897   -1.4960    0.3805 C   0  0  0  0  0  0  0  0  0  0  0  0
    0.1210   -0.3382    1.4680 S   0  0  0  0  0  0  0  0  0  0  0  0
   -0.7464    0.4158    0.1470 C   0  0  0  0  0  0  0  0  0  0  0  0
   -0.5654   -0.2320   -1.0522 C   0  0  0  0  0  0  0  0  0  0  0  0
   -1.2937    0.0930   -2.2156 N   0  0  0  0  0  0  0  0  0  0  0  0
   -0.6995    0.9574   -3.1487 C   0  0  0  0  0  0  0  0  0  0  0  0
   -1.4129    2.0117   -3.7137 C   0  0  0  0  0  0  0  0  0  0  0  0
   -0.8203    2.8673   -4.6210 C   0  0  0  0  0  0  0  0  0  0  0  0
    0.5145    2.7050   -4.9598 C   0  0  0  0  0  0  0  0  0  0  0  0
    1.3748    3.7732   -6.0722 S   0  0  0  0  0  0  0  0  0  0  0  0
    0.0393    4.5942   -6.9897 C   0  0  0  0  0  0  0  0  0  0  0  0
    1.2404    1.6647   -4.3883 C   0  0  0  0  0  0  0  0  0  0  0  0
    0.6412    0.7966   -3.5005 C   0  0  0  0  0  0  0  0  0  0  0  0
   -2.6273   -0.3049   -2.2903 C   0  0  0  0  0  0  0  0  0  0  0  0
   -3.2965   -0.8230   -1.1775 C   0  0  0  0  0  0  0  0  0  0  0  0
   -4.6275   -1.1704   -1.2493 C   0  0  0  0  0  0  0  0  0  0  0  0
   -5.3298   -1.0392   -2.4400 C   0  0  0  0  0  0  0  0  0  0  0  0
   -7.0412   -1.4869   -2.4304 S   0  0  0  0  0  0  0  0  0  0  0  0
   -7.7178   -0.5505   -3.8318 C   0  0  0  0  0  0  0  0  0  0  0  0
   -4.6548   -0.6141   -3.5750 C   0  0  0  0  0  0  0  0  0  0  0  0
   -3.3233   -0.2584   -3.5007 C   0  0  0  0  0  0  0  0  0  0  0  0
    0.3362   -1.3153   -0.9173 C   0  0  0  0  0  0  0  0  0  0  0  0
    1.0929   -2.4191   -2.0135 S   0  0  0  0  0  0  0  0  0  0  0  0
   -1.5899    1.5525    0.4359 C   0  0  0  0  0  0  0  0  0  0  0  0
   -1.3316    2.8808    0.1581 C   0  0  0  0  0  0  0  0  0  0  0  0
   -0.1421    3.2855   -0.4341 N   0  0  0  0  0  0  0  0  0  0  0  0
    1.0156    2.7004    0.1327 C   0  0  0  0  0  0  0  0  0  0  0  0
    1.9483    2.0134   -0.6391 C   0  0  0  0  0  0  0  0  0  0  0  0
    2.9967    1.3583   -0.0297 C   0  0  0  0  0  0  0  0  0  0  0  0
    3.1431    1.3875    1.3566 C   0  0  0  0  0  0  0  0  0  0  0  0
    4.4775    0.4547    2.0374 S   0  0  0  0  0  0  0  0  0  0  0  0
    4.5496    1.0092    3.7645 C   0  0  0  0  0  0  0  0  0  0  0  0
    2.2394    2.1102    2.1234 C   0  0  0  0  0  0  0  0  0  0  0  0
    1.1852    2.7600    1.5124 C   0  0  0  0  0  0  0  0  0  0  0  0
   -0.0856    4.2637   -1.4175 C   0  0  0  0  0  0  0  0  0  0  0  0
   -1.2424    4.6898   -2.0718 C   0  0  0  0  0  0  0  0  0  0  0  0
   -1.1765    5.6599   -3.0471 C   0  0  0  0  0  0  0  0  0  0  0  0
    0.0451    6.2128   -3.4157 C   0  0  0  0  0  0  0  0  0  0  0  0
    0.0204    7.4330   -4.6980 S   0  0  0  0  0  0  0  0  0  0  0  0
    1.7584    7.5355   -5.2125 C   0  0  0  0  0  0  0  0  0  0  0  0
    1.1988    5.7973   -2.7679 C   0  0  0  0  0  0  0  0  0  0  0  0
    1.1315    4.8413   -1.7753 C   0  0  0  0  0  0  0  0  0  0  0  0
   -2.3503    3.7134    0.6891 C   0  0  0  0  0  0  0  0  0  0  0  0
   -2.6529    5.4113    0.7549 S   0  0  0  0  0  0  0  0  0  0  0  0
   -4.0212    5.1597    1.8213 C   0  0  0  0  0  0  0  0  0  0  0  0
   -4.2394    3.8171    2.0860 C   0  0  0  0  0  0  0  0  0  0  0  0
   -5.3327    3.2843    2.8079 N   0  0  0  0  0  0  0  0  0  0  0  0
   -6.3371    2.7832    1.9349 C   0  0  0  0  0  0  0  0  0  0  0  0
   -6.6362    1.4262    1.8694 C   0  0  0  0  0  0  0  0  0  0  0  0
   -7.5888    0.9557    0.9867 C   0  0  0  0  0  0  0  0  0  0  0  0
   -8.2565    1.8402    0.1496 C   0  0  0  0  0  0  0  0  0  0  0  0
   -9.4881    1.3516   -1.0135 S   0  0  0  0  0  0  0  0  0  0  0  0
   -9.9157   -0.3376   -0.5033 C   0  0  0  0  0  0  0  0  0  0  0  0
   -7.9439    3.1974    0.1986 C   0  0  0  0  0  0  0  0  0  0  0  0
   -6.9920    3.6650    1.0782 C   0  0  0  0  0  0  0  0  0  0  0  0
   -5.0995    2.6185    4.0159 C   0  0  0  0  0  0  0  0  0  0  0  0
   -3.8177    2.3667    4.5041 C   0  0  0  0  0  0  0  0  0  0  0  0
   -3.6341    1.7448    5.7246 C   0  0  0  0  0  0  0  0  0  0  0  0
   -4.7280    1.3806    6.4936 C   0  0  0  0  0  0  0  0  0  0  0  0
   -4.5636    0.5955    8.0681 S   0  0  0  0  0  0  0  0  0  0  0  0
   -3.0281    1.3370    8.6987 C   0  0  0  0  0  0  0  0  0  0  0  0
   -6.0123    1.6308    6.0153 C   0  0  0  0  0  0  0  0  0  0  0  0
   -6.1970    2.2452    4.7978 C   0  0  0  0  0  0  0  0  0  0  0  0
   -3.3089    3.0106    1.4063 C   0  0  0  0  0  0  0  0  0  0  0  0
   -3.0350    1.3098    1.3924 S   0  0  0  0  0  0  0  0  0  0  0  0
   -4.8666    6.2481    2.1844 C   0  0  0  0  0  0  0  0  0  0  0  0
   -5.5705    6.3523    3.3362 C   0  0  0  0  0  0  0  0  0  0  0  0
   -6.8143    7.1888    3.4053 C   0  0  0  0  0  0  0  0  0  0  0  0
   -7.1841    8.0034    2.5935 O   0  0  0  0  0  0  0  0  0  0  0  0
   -7.4622    6.7233    4.6268 C   0  0  0  0  0  0  0  0  0  0  0  0
   -8.9480    7.0019    5.4276 S   0  0  0  0  0  0  0  0  0  0  0  0
   -8.4878    5.9034    6.6747 C   0  0  0  0  0  0  0  0  0  0  0  0
   -7.2522    5.3521    6.5013 C   0  0  0  0  0  0  0  0  0  0  0  0
   -6.6578    5.8207    5.3158 C   0  0  0  0  0  0  0  0  0  0  0  0
   -5.4090    5.6644    4.6030 C   0  0  0  0  0  0  0  0  0  0  0  0
   -4.2419    5.2025    5.1508 C   0  0  0  0  0  0  0  0  0  0  0  0
   -2.9895    5.2545    4.5083 C   0  0  0  0  0  0  0  0  0  0  0  0
   -1.9390    5.2965    4.0465 N   0  0  0  0  0  0  0  0  0  0  0  0
   -4.1733    4.7278    6.4746 C   0  0  0  0  0  0  0  0  0  0  0  0
   -4.0799    4.3529    7.5555 N   0  0  0  0  0  0  0  0  0  0  0  0
    6.0014   -7.9918   -0.8431 H   0  0  0  0  0  0  0  0  0  0  0  0
   12.6203   -4.9882   -2.2574 H   0  0  0  0  0  0  0  0  0  0  0  0
   11.6662   -7.3775   -1.8202 H   0  0  0  0  0  0  0  0  0  0  0  0
    3.5795   -1.4119   -4.6051 H   0  0  0  0  0  0  0  0  0  0  0  0
    4.5909   -2.1762   -5.8454 H   0  0  0  0  0  0  0  0  0  0  0  0
    2.2439   -1.8821   -6.6344 H   0  0  0  0  0  0  0  0  0  0  0  0
    2.6265   -3.6031   -6.5095 H   0  0  0  0  0  0  0  0  0  0  0  0
    1.6605   -2.8198   -5.2545 H   0  0  0  0  0  0  0  0  0  0  0  0
    6.0497   -5.6565   -5.7894 H   0  0  0  0  0  0  0  0  0  0  0  0
    5.2029   -4.2810   -6.5260 H   0  0  0  0  0  0  0  0  0  0  0  0
    7.6816   -3.9268   -6.4803 H   0  0  0  0  0  0  0  0  0  0  0  0
    6.8706   -2.7248   -5.4690 H   0  0  0  0  0  0  0  0  0  0  0  0
    7.6674   -4.1037   -4.7205 H   0  0  0  0  0  0  0  0  0  0  0  0
    3.4771   -4.5863    3.3566 H   0  0  0  0  0  0  0  0  0  0  0  0
    5.7433   -5.4796    3.2146 H   0  0  0  0  0  0  0  0  0  0  0  0
    7.8326   -6.5074    3.1043 H   0  0  0  0  0  0  0  0  0  0  0  0
    8.6614   -7.1282    1.6649 H   0  0  0  0  0  0  0  0  0  0  0  0
    6.8813   -7.0553    1.6886 H   0  0  0  0  0  0  0  0  0  0  0  0
    6.5763   -2.8415   -0.0514 H   0  0  0  0  0  0  0  0  0  0  0  0
    4.2984   -1.9447    0.0979 H   0  0  0  0  0  0  0  0  0  0  0  0
    3.3992   -1.7821    3.9414 H   0  0  0  0  0  0  0  0  0  0  0  0
    2.1123   -1.1657    5.9627 H   0  0  0  0  0  0  0  0  0  0  0  0
   -2.8598   -1.5008    7.2563 H   0  0  0  0  0  0  0  0  0  0  0  0
   -2.3691   -2.9067    6.2912 H   0  0  0  0  0  0  0  0  0  0  0  0
   -2.7130   -1.3340    5.4945 H   0  0  0  0  0  0  0  0  0  0  0  0
   -1.4281   -2.7783    4.1840 H   0  0  0  0  0  0  0  0  0  0  0  0
   -0.1514   -3.3959    2.2065 H   0  0  0  0  0  0  0  0  0  0  0  0
   -2.4428    2.1726   -3.4334 H   0  0  0  0  0  0  0  0  0  0  0  0
   -1.4042    3.6712   -5.0377 H   0  0  0  0  0  0  0  0  0  0  0  0
   -0.6552    3.8461   -7.3593 H   0  0  0  0  0  0  0  0  0  0  0  0
    0.5205    5.0977   -7.8226 H   0  0  0  0  0  0  0  0  0  0  0  0
   -0.4608    5.3247   -6.3602 H   0  0  0  0  0  0  0  0  0  0  0  0
    2.2792    1.5401   -4.6551 H   0  0  0  0  0  0  0  0  0  0  0  0
    1.2113   -0.0208   -3.0882 H   0  0  0  0  0  0  0  0  0  0  0  0
   -2.7813   -0.9597   -0.2405 H   0  0  0  0  0  0  0  0  0  0  0  0
   -5.1340   -1.5453   -0.3732 H   0  0  0  0  0  0  0  0  0  0  0  0
   -7.4375   -1.0201   -4.7703 H   0  0  0  0  0  0  0  0  0  0  0  0
   -7.3633    0.4743   -3.7804 H   0  0  0  0  0  0  0  0  0  0  0  0
   -8.7967   -0.5740   -3.7171 H   0  0  0  0  0  0  0  0  0  0  0  0
   -5.1544   -0.5629   -4.5298 H   0  0  0  0  0  0  0  0  0  0  0  0
   -2.8127    0.0444   -4.4018 H   0  0  0  0  0  0  0  0  0  0  0  0
    1.8318    1.9834   -1.7112 H   0  0  0  0  0  0  0  0  0  0  0  0
    3.7106    0.8063   -0.6223 H   0  0  0  0  0  0  0  0  0  0  0  0
    3.6560    0.6982    4.2981 H   0  0  0  0  0  0  0  0  0  0  0  0
    4.6750    2.0874    3.7973 H   0  0  0  0  0  0  0  0  0  0  0  0
    5.4225    0.5228    4.1897 H   0  0  0  0  0  0  0  0  0  0  0  0
    2.3320    2.1637    3.1954 H   0  0  0  0  0  0  0  0  0  0  0  0
    0.4760    3.3088    2.1147 H   0  0  0  0  0  0  0  0  0  0  0  0
   -2.1961    4.2468   -1.8334 H   0  0  0  0  0  0  0  0  0  0  0  0
   -2.0767    5.9915   -3.5427 H   0  0  0  0  0  0  0  0  0  0  0  0
    2.1381    6.5367   -5.4080 H   0  0  0  0  0  0  0  0  0  0  0  0
    2.3456    8.0411   -4.4512 H   0  0  0  0  0  0  0  0  0  0  0  0
    1.7609    8.1221   -6.1259 H   0  0  0  0  0  0  0  0  0  0  0  0
    2.1597    6.2155   -3.0199 H   0  0  0  0  0  0  0  0  0  0  0  0
    2.0367    4.5450   -1.2683 H   0  0  0  0  0  0  0  0  0  0  0  0
   -6.1103    0.7316    2.5081 H   0  0  0  0  0  0  0  0  0  0  0  0
   -7.7858   -0.1031    0.9460 H   0  0  0  0  0  0  0  0  0  0  0  0
  -10.1597   -0.3457    0.5547 H   0  0  0  0  0  0  0  0  0  0  0  0
   -9.0990   -1.0166   -0.7315 H   0  0  0  0  0  0  0  0  0  0  0  0
  -10.7912   -0.6062   -1.0863 H   0  0  0  0  0  0  0  0  0  0  0  0
   -8.4591    3.8803   -0.4591 H   0  0  0  0  0  0  0  0  0  0  0  0
   -6.7588    4.7184    1.1106 H   0  0  0  0  0  0  0  0  0  0  0  0
   -2.9474    2.6470    3.9322 H   0  0  0  0  0  0  0  0  0  0  0  0
   -2.6293    1.5548    6.0667 H   0  0  0  0  0  0  0  0  0  0  0  0
   -3.0586    2.4046    8.5014 H   0  0  0  0  0  0  0  0  0  0  0  0
   -3.0246    1.1507    9.7679 H   0  0  0  0  0  0  0  0  0  0  0  0
   -2.1587    0.8716    8.2421 H   0  0  0  0  0  0  0  0  0  0  0  0
   -6.8624    1.3486    6.6172 H   0  0  0  0  0  0  0  0  0  0  0  0
   -7.1945    2.4519    4.4388 H   0  0  0  0  0  0  0  0  0  0  0  0
   -5.0477    7.0027    1.4263 H   0  0  0  0  0  0  0  0  0  0  0  0
   -9.1684    5.7277    7.4848 H   0  0  0  0  0  0  0  0  0  0  0  0
   -6.8059    4.6459    7.1768 H   0  0  0  0  0  0  0  0  0  0  0  0
  1  2  2  0  0  0  0
  2  3  1  0  0  0  0
  3  4  2  0  0  0  0
  3  5  1  0  0  0  0
  5  6  1  0  0  0  0
  6  7  1  0  0  0  0
  7  8  2  0  0  0  0
  8  9  1  0  0  0  0
  9 10  1  0  0  0  0
 10 11  2  0  0  0  0
 11 12  1  0  0  0  0
 12 13  3  0  0  0  0
 11 14  1  0  0  0  0
 14 15  3  0  0  0  0
  1 16  1  0  0  0  0
 16 17  2  0  0  0  0
 17 18  1  0  0  0  0
 17 19  1  0  0  0  0
 19 20  1  0  0  0  0
 19 21  2  0  0  0  0
 21 22  1  0  0  0  0
 22 23  2  0  0  0  0
 23 24  1  0  0  0  0
 24 25  1  0  0  0  0
 25 26  1  0  0  0  0
 24 27  2  0  0  0  0
 27 28  1  0  0  0  0
 28 29  2  0  0  0  0
 27 30  1  0  0  0  0
 30 31  1  0  0  0  0
 21 32  1  0  0  0  0
 32 33  2  0  0  0  0
 33 34  1  0  0  0  0
 34 35  1  0  0  0  0
 35 36  2  0  0  0  0
 36 37  1  0  0  0  0
 37 38  2  0  0  0  0
 38 39  1  0  0  0  0
 39 40  1  0  0  0  0
 38 41  1  0  0  0  0
 41 42  2  0  0  0  0
 34 43  1  0  0  0  0
 43 44  2  0  0  0  0
 44 45  1  0  0  0  0
 45 46  2  0  0  0  0
 46 47  1  0  0  0  0
 47 48  1  0  0  0  0
 46 49  1  0  0  0  0
 49 50  2  0  0  0  0
 33 51  1  0  0  0  0
 51 52  1  0  0  0  0
 52 53  1  0  0  0  0
 53 54  2  0  0  0  0
 54 55  1  0  0  0  0
 55 56  1  0  0  0  0
 56 57  2  0  0  0  0
 57 58  1  0  0  0  0
 58 59  2  0  0  0  0
 59 60  1  0  0  0  0
 60 61  1  0  0  0  0
 59 62  1  0  0  0  0
 62 63  2  0  0  0  0
 55 64  1  0  0  0  0
 64 65  2  0  0  0  0
 65 66  1  0  0  0  0
 66 67  2  0  0  0  0
 67 68  1  0  0  0  0
 68 69  1  0  0  0  0
 67 70  1  0  0  0  0
 70 71  2  0  0  0  0
 54 72  1  0  0  0  0
 72 73  1  0  0  0  0
 53 74  1  0  0  0  0
 74 75  2  0  0  0  0
 75 76  1  0  0  0  0
 76 77  1  0  0  0  0
 77 78  2  0  0  0  0
 78 79  1  0  0  0  0
 79 80  2  0  0  0  0
 80 81  1  0  0  0  0
 81 82  1  0  0  0  0
 80 83  1  0  0  0  0
 83 84  2  0  0  0  0
 76 85  1  0  0  0  0
 85 86  2  0  0  0  0
 86 87  1  0  0  0  0
 87 88  2  0  0  0  0
 88 89  1  0  0  0  0
 89 90  1  0  0  0  0
 88 91  1  0  0  0  0
 91 92  2  0  0  0  0
 75 93  1  0  0  0  0
 93 94  1  0  0  0  0
 94 95  1  0  0  0  0
 95 96  2  0  0  0  0
 96 97  1  0  0  0  0
 97 98  1  0  0  0  0
 98 99  2  0  0  0  0
 99100  1  0  0  0  0
100101  2  0  0  0  0
101102  1  0  0  0  0
102103  1  0  0  0  0
101104  1  0  0  0  0
104105  2  0  0  0  0
 97106  1  0  0  0  0
106107  2  0  0  0  0
107108  1  0  0  0  0
108109  2  0  0  0  0
109110  1  0  0  0  0
110111  1  0  0  0  0
109112  1  0  0  0  0
112113  2  0  0  0  0
 96114  1  0  0  0  0
114115  1  0  0  0  0
 95116  1  0  0  0  0
116117  2  0  0  0  0
117118  1  0  0  0  0
118119  2  0  0  0  0
118120  1  0  0  0  0
120121  1  0  0  0  0
121122  1  0  0  0  0
122123  2  0  0  0  0
123124  1  0  0  0  0
124125  1  0  0  0  0
125126  2  0  0  0  0
126127  1  0  0  0  0
127128  3  0  0  0  0
126129  1  0  0  0  0
129130  3  0  0  0  0
 10  2  1  0  0  0  0
 29 16  1  0  0  0  0
 73 32  1  0  0  0  0
115 74  1  0  0  0  0
125117  1  0  0  0  0
  9  5  2  0  0  0  0
 29 22  1  0  0  0  0
 42 35  1  0  0  0  0
 50 43  1  0  0  0  0
 72 51  2  0  0  0  0
 84 77  1  0  0  0  0
 92 85  1  0  0  0  0
114 93  2  0  0  0  0
124120  2  0  0  0  0
 63 56  1  0  0  0  0
 71 64  1  0  0  0  0
105 98  1  0  0  0  0
113106  1  0  0  0  0
  1131  1  0  0  0  0
  7132  1  0  0  0  0
  8133  1  0  0  0  0
 25134  1  0  0  0  0
 25135  1  0  0  0  0
 26136  1  0  0  0  0
 26137  1  0  0  0  0
 26138  1  0  0  0  0
 30139  1  0  0  0  0
 30140  1  0  0  0  0
 31141  1  0  0  0  0
 31142  1  0  0  0  0
 31143  1  0  0  0  0
 36144  1  0  0  0  0
 37145  1  0  0  0  0
 40146  1  0  0  0  0
 40147  1  0  0  0  0
 40148  1  0  0  0  0
 41149  1  0  0  0  0
 42150  1  0  0  0  0
 44151  1  0  0  0  0
 45152  1  0  0  0  0
 48153  1  0  0  0  0
 48154  1  0  0  0  0
 48155  1  0  0  0  0
 49156  1  0  0  0  0
 50157  1  0  0  0  0
 57158  1  0  0  0  0
 58159  1  0  0  0  0
 61160  1  0  0  0  0
 61161  1  0  0  0  0
 61162  1  0  0  0  0
 62163  1  0  0  0  0
 63164  1  0  0  0  0
 65165  1  0  0  0  0
 66166  1  0  0  0  0
 69167  1  0  0  0  0
 69168  1  0  0  0  0
 69169  1  0  0  0  0
 70170  1  0  0  0  0
 71171  1  0  0  0  0
 78172  1  0  0  0  0
 79173  1  0  0  0  0
 82174  1  0  0  0  0
 82175  1  0  0  0  0
 82176  1  0  0  0  0
 83177  1  0  0  0  0
 84178  1  0  0  0  0
 86179  1  0  0  0  0
 87180  1  0  0  0  0
 90181  1  0  0  0  0
 90182  1  0  0  0  0
 90183  1  0  0  0  0
 91184  1  0  0  0  0
 92185  1  0  0  0  0
 99186  1  0  0  0  0
100187  1  0  0  0  0
103188  1  0  0  0  0
103189  1  0  0  0  0
103190  1  0  0  0  0
104191  1  0  0  0  0
105192  1  0  0  0  0
107193  1  0  0  0  0
108194  1  0  0  0  0
111195  1  0  0  0  0
111196  1  0  0  0  0
111197  1  0  0  0  0
112198  1  0  0  0  0
113199  1  0  0  0  0
116200  1  0  0  0  0
122201  1  0  0  0  0
123202  1  0  0  0  0
M  END
