194

C         -5.20060       -6.19380       -2.68800
C         -4.90690       -7.43650       -3.19830
C         -3.58150       -8.08410       -3.08530
O         -2.58280       -7.64000       -2.55260
C         -3.79590       -9.42490       -3.63420
S         -2.84400      -10.81510       -3.91040
C         -4.21340      -11.62560       -4.58060
C         -5.34730      -10.86940       -4.59290
C         -5.10860       -9.59520       -4.04300
C         -5.83340       -8.36120       -3.80140
C         -7.11150       -8.10170       -4.22850
C         -7.87360       -9.07010       -4.90790
N         -8.50060       -9.84500       -5.47890
C         -7.75720       -6.85730       -4.11000
N         -8.32740       -5.86110       -4.06750
C         -4.28720       -5.16420       -2.43240
C         -3.03530       -4.86110       -3.00440
N         -2.46830       -5.45940       -4.09380
C         -3.22330       -6.11420       -5.07640
C         -4.44930       -5.60580       -5.50430
C         -5.19870       -6.29100       -6.43680
C         -4.75350       -7.49510       -6.97790
C         -5.60680       -8.25600       -7.94320
C         -3.50930       -7.96910       -6.58480
C         -2.74960       -7.29410       -5.64760
C         -1.06460       -5.44530       -4.24530
C         -0.23440       -5.75690       -3.17420
C          1.13460       -5.78830       -3.35290
C          1.70510       -5.51030       -4.58940
C          3.18730       -5.58720       -4.79050
C          0.86450       -5.19000       -5.64930
C         -0.50590       -5.15630       -5.48620
C         -2.46490       -3.72930       -2.37120
S         -1.01320       -2.81630       -2.62220
C         -1.47640       -1.70240       -1.36210
C         -2.70770       -1.98920       -0.80580
N         -3.34190       -1.19720        0.13480
C         -3.15380        0.19520        0.07190
C         -2.82970        0.93440        1.20470
C         -2.55350        2.28450        1.09690
C         -2.60330        2.93350       -0.12970
C         -2.27150        4.38700       -0.26030
C         -2.97690        2.19710       -1.24920
C         -3.25030        0.84890       -1.15500
C         -4.09370       -1.78370        1.15430
C         -3.79230       -3.06300        1.61700
C         -4.56140       -3.64550        2.60540
C         -5.63480       -2.97140        3.17160
C         -6.48080       -3.60870        4.23110
C         -5.91870       -1.68810        2.71670
C         -5.16870       -1.09950        1.71950
C         -3.26360       -3.15150       -1.39400
S         -4.77030       -3.96680       -1.22080
C         -0.62320       -0.59320       -0.96550
C         -0.25500        0.41250       -1.83020
F         -0.63210        0.35960       -3.11920
C          0.47780        1.52770       -1.40220
F          0.76370        2.48110       -2.30530
C          0.93430        1.64660       -0.10890
C          0.59800        0.60930        0.80180
N          1.03630        0.67860        2.07110
C          0.70480       -0.26650        2.91420
C          1.30810       -0.17970        4.28380
C          2.55060       -1.06910        4.38620
C         -0.14860       -1.33520        2.51000
N         -0.55800       -1.43110        1.27000
C         -0.19750       -0.48460        0.38500
C         -0.66760       -2.36660        3.46580
C         -1.86430       -1.82370        4.25230
C          1.77670        2.74290        0.33830
C          3.03770        2.60560        0.88720
N          3.72220        1.40820        0.96840
C          3.50990        0.44200       -0.03010
C          3.27090       -0.88960        0.29300
C          2.96000       -1.79970       -0.69960
C          2.89190       -1.41530       -2.03220
C          2.52100       -2.38650       -3.10850
C          3.18750       -0.09430       -2.35240
C          3.49390        0.82370       -1.37040
C          4.58220        1.16200        2.04150
C          4.33530        1.72080        3.29380
C          5.21020        1.50040        4.33860
C          6.34000        0.70960        4.17470
C          7.30260        0.50090        5.30320
C          6.56660        0.13660        2.92890
C          5.70760        0.35900        1.87180
C          3.56410        3.86420        1.27300
S          5.07660        4.36990        1.93130
C          4.52900        6.04960        1.91530
C          3.24480        6.18460        1.32960
N          2.59060        7.36550        1.09940
C          1.18520        7.38900        1.18680
C          0.42470        8.05890        0.23380
C         -0.95050        8.09790        0.34980
C         -1.60080        7.47350        1.40740
C         -3.09000        7.54640        1.54750
C         -0.83210        6.79910        2.34970
C          0.54350        6.75540        2.24780
C          3.26170        8.53410        0.69350
C          2.81010        9.78120        1.11860
C          3.47030       10.92620        0.72070
C          4.59410       10.86260       -0.09500
C          5.31930       12.11460       -0.48140
C          5.02540        9.61420       -0.52820
C          4.36680        8.46110       -0.15100
C          2.71020        4.92570        1.00130
S          1.24460        4.40220        0.23450
C          5.20940        7.10910        2.51450
C          6.45850        7.16610        3.08670
C          7.46990        6.09280        3.09570
O          7.35120        4.94580        2.70490
C          8.65970        6.72040        3.66470
S         10.26080        6.24340        4.02470
C         10.60100        7.82690        4.61840
C          9.54210        8.68330        4.54730
C          8.41560        8.04510        3.99380
C          7.03210        8.35550        3.67730
C          6.42860        9.56060        3.94340
C          5.06360        9.85330        3.77970
N          3.95630       10.15490        3.70940
C          7.15250       10.64820        4.47080
N          7.72440       11.55330        4.88630
H         -6.22980       -5.97930       -2.42430
H         -4.09730      -12.63180       -4.93280
H         -6.29210      -11.21450       -4.96990
H         -4.81600       -4.67450       -5.09950
H         -6.15180       -5.88850       -6.74760
H         -6.42440       -8.74840       -7.41470
H         -5.02810       -9.01830       -8.45860
H         -6.04710       -7.58630       -8.67920
H         -3.13220       -8.89050       -7.00500
H         -1.78960       -7.68340       -5.34260
H         -0.67440       -6.01280       -2.22350
H          1.77050       -6.05190       -2.51980
H          3.52190       -4.82680       -5.49260
H          3.71660       -5.46010       -3.84960
H          3.45590       -6.56130       -5.20080
H          1.28930       -4.96600       -6.61690
H         -1.15010       -4.91130       -6.31790
H         -2.77330        0.44190        2.16430
H         -2.27570        2.83940        1.98160
H         -1.83550        4.77380        0.65630
H         -1.56120        4.54400       -1.06990
H         -3.16820        4.96190       -0.48970
H         -3.04290        2.68750       -2.20940
H         -3.52440        0.28710       -2.03610
H         -2.94190       -3.58890        1.21110
H         -4.31480       -4.64000        2.94840
H         -5.96470       -4.44950        4.68800
H         -6.73840       -2.88900        5.00570
H         -7.41010       -3.97650        3.79520
H         -6.74950       -1.14490        3.14390
H         -5.41260       -0.10790        1.36800
H          0.58360       -0.47570        5.04210
H          1.60160        0.85530        4.45860
H          2.95610       -1.02340        5.39370
H          3.31710       -0.72350        3.69780
H          2.31500       -2.10550        4.15410
H          0.11530       -2.67600        4.15820
H         -0.99070       -3.23130        2.88640
H         -2.68100       -1.58530        3.57630
H         -1.59950       -0.92620        4.80710
H         -2.21560       -2.57440        4.95580
H          3.30700       -1.20170        1.32620
H          2.74800       -2.82440       -0.42970
H          1.75420       -1.96540       -3.75650
H          3.38870       -2.61500       -3.72660
H          2.14100       -3.31260       -2.68710
H          3.16530        0.21930       -3.38600
H          3.70640        1.84990       -1.63270
H          3.44640        2.31430        3.44360
H          5.00780        1.94660        5.30170
H          7.81130       -0.45590        5.20990
H          6.79180        0.53860        6.26300
H          8.05800        1.28740        5.29250
H          7.43850       -0.48380        2.77910
H          5.90720       -0.08060        0.90560
H          0.91690        8.54560       -0.59480
H         -1.52950        8.62080       -0.39710
H         -3.48870        6.62120        1.95770
H         -3.35940        8.35660        2.22600
H         -3.56120        7.74050        0.58730
H         -1.31800        6.31070        3.18230
H          1.13040        6.24270        2.99580
H          1.95370        9.84660        1.77080
H          3.11800       11.88570        1.06770
H          6.08830       11.90910       -1.22170
H          4.62590       12.84830       -0.88900
H          5.79250       12.55790        0.39480
H          5.88580        9.54160       -1.17790
H          4.70980        7.49910       -0.50270
H          4.65180        8.03750        2.52800
H         11.58320        8.03790        4.99380
H          9.57840        9.70650        4.87210
