246

C          5.63180       -6.74400        3.56910
C          6.96860       -6.81460        3.31000
S          7.76020       -6.20820        1.87200
C          9.33200       -6.53030        2.56180
C         10.45620       -6.08380        1.90970
C         10.29240       -5.33010        0.73030
N         10.15430       -4.69910       -0.21860
C         11.78850       -6.26150        2.31210
N         12.89940       -6.36460        2.58850
N          9.23270       -7.18220        3.74430
C         10.35580       -7.64780        4.53330
C         10.92010       -8.95620        3.99250
C          7.93560       -7.40060        4.21510
O          7.70450       -7.95150        5.26960
C          4.69760       -5.94820        2.88480
C          4.88060       -4.74510        2.18120
N          5.97520       -3.92120        2.23070
C          6.12690       -2.95130        1.20340
C          6.40080       -3.34450       -0.09890
C          6.57660       -2.38620       -1.07980
C          6.45400       -1.03350       -0.79010
C          6.62120        0.01320       -1.84900
C          6.17290       -0.65400        0.51860
C          6.02440       -1.59870        1.51240
C          6.83920       -3.80840        3.33280
C          6.43330       -4.09380        4.63290
C          7.34320       -4.04590        5.67110
C          8.67240       -3.70500        5.45150
C          9.65390       -3.69750        6.58200
C          9.05610       -3.36200        4.15990
C          8.15720       -3.40530        3.11420
C          3.68790       -4.38070        1.51490
S          3.26940       -3.10450        0.42210
C          1.58370       -3.61130        0.45050
C          1.38640       -4.75970        1.21020
N          0.16350       -5.38730        1.39820
C         -0.17680       -5.77110        2.70590
C          0.12280       -4.92640        3.77230
C         -0.19380       -5.29780        5.06140
C         -0.82310       -6.50960        5.32500
C         -1.18200       -6.87980        6.73050
C         -1.11710       -7.34560        4.25640
C         -0.79590       -6.98990        2.96030
C         -0.66940       -5.67880        0.31650
C         -2.05400       -5.70700        0.48050
C         -2.87850       -5.97870       -0.59150
C         -2.35630       -6.22400       -1.85550
C         -3.24960       -6.53400       -3.01780
C         -0.97550       -6.19150       -2.01160
C         -0.13760       -5.92510       -0.94760
C          2.59440       -5.18680        1.80250
S          3.00740       -6.47590        2.87260
C          0.60520       -2.73150       -0.06640
C          0.84830       -1.63130       -0.88210
N          2.00430       -1.43300       -1.62600
C          2.44930       -0.10640       -1.74640
C          2.72360        0.46850       -2.98290
C          3.10530        1.79360       -3.07330
C          3.20990        2.56980       -1.92640
S          3.69110        4.26710       -1.91370
C          3.65260        4.74990       -3.66060
C          2.94530        1.99250       -0.68530
C          2.57240        0.67140       -0.59470
C          2.47740       -2.44030       -2.47200
C          3.80570       -2.41780       -2.90040
C          4.29210       -3.41330       -3.71560
C          3.47130       -4.46420       -4.12050
S          4.20650       -5.68730       -5.16230
C          2.95270       -6.99820       -5.24220
C          2.14770       -4.48560       -3.70640
C          1.65570       -3.48250       -2.89370
C         -0.25460       -0.75950       -0.90140
S         -0.53940        0.77150       -1.63560
C         -2.17870        0.80240       -0.97470
C         -2.48580       -0.37050       -0.28310
N         -3.72620       -0.70600        0.22840
C         -3.74190       -1.57410        1.33770
C         -2.96070       -1.27790        2.45460
C         -2.91440       -2.14880        3.51970
C         -3.65140       -3.33120        3.49780
S         -3.52040       -4.36460        4.92010
C         -4.34750       -5.90190        4.42500
C         -4.44530       -3.61960        2.39520
C         -4.48540       -2.74940        1.32350
C         -4.89840       -0.47570       -0.49690
C         -6.12140       -0.39400        0.17170
C         -7.28470       -0.18030       -0.53080
C         -7.25470       -0.00600       -1.91220
S         -8.79580        0.32960       -2.71490
C         -8.42970        0.12730       -4.47910
C         -6.04330       -0.08320       -2.58270
C         -4.88030       -0.33440       -1.88250
C         -1.36020       -1.21890       -0.20230
S         -1.04480       -2.74690        0.54760
C         -2.88120        2.02660       -1.03130
C         -2.48310        3.14340       -1.76560
N         -1.52840        3.12400       -2.77740
C         -0.67130        4.23750       -2.84150
C         -0.02870        4.66980       -1.68220
C          0.71720        5.82670       -1.69230
C          0.84180        6.56870       -2.86320
S          1.78420        8.05880       -2.77400
C          1.25980        8.96320       -4.26130
C          0.25180        6.11090       -4.03310
C         -0.50550        4.95650       -4.01970
C         -1.64870        2.24660       -3.85630
C         -0.51920        1.89850       -4.59590
C         -0.60350        0.99600       -5.63660
C         -1.82380        0.41620       -5.95660
S         -2.05830       -0.76820       -7.24740
C         -0.42870       -0.88910       -8.03570
C         -2.95650        0.76470       -5.22480
C         -2.87460        1.67010       -4.19070
C         -3.14500        4.30950       -1.33970
S         -2.91090        5.98340       -1.68020
C         -4.14560        6.40380       -0.49360
C         -4.67510        5.26280        0.15340
N         -5.58490        5.27960        1.18820
C         -6.55100        4.26280        1.26600
C         -6.91070        3.72830        2.50260
C         -7.91910        2.79510        2.58490
C         -8.58840        2.37740        1.43710
S         -9.90070        1.21430        1.65200
C        -10.93150        1.47930        0.17890
C         -8.20340        2.87270        0.19820
C         -7.19240        3.80900        0.11620
C         -5.57880        6.29550        2.15890
C         -6.78000        6.81170        2.64510
C         -6.77350        7.88350        3.51090
C         -5.57220        8.46950        3.90060
S         -5.65740        9.89510        4.93780
C         -4.16660       10.81550        4.45730
C         -4.37190        7.91280        3.47320
C         -4.37570        6.82870        2.62020
C         -4.08960        4.08860       -0.34170
S         -4.19350        2.40460        0.08270
C         -4.50650        7.72040       -0.19440
C         -3.86420        8.89420       -0.48400
S         -4.39700       10.37890        0.29670
C         -2.99760       11.24070       -0.29580
C         -2.78150       12.54650        0.07780
C         -1.74610       13.38580       -0.36130
N         -0.93520       14.13000       -0.69260
C         -3.66000       13.14110        1.00520
N         -4.35730       13.61480        1.78430
N         -2.23450       10.44770       -1.08910
C         -1.02050       10.86760       -1.76250
C         -1.32730       11.55590       -3.08700
C         -2.67560        9.13730       -1.25850
O         -2.08580        8.35230       -1.98190
H          5.26820       -7.37360        4.37260
H         11.12420       -6.87270        4.55870
H          9.96160       -7.80250        5.54170
H         11.73070       -9.29000        4.63310
H         11.31130       -8.82730        2.98600
H         10.14630       -9.72060        3.97870
H          6.49560       -4.39430       -0.33180
H          6.82150       -2.70190       -2.08220
H          5.73480        0.64620       -1.89940
H          6.79040       -0.43770       -2.82370
H          7.47040        0.65340       -1.61360
H          6.07270        0.39490        0.75650
H          5.82210       -1.30080        2.53110
H          5.40640       -4.35660        4.83510
H          7.01470       -4.28920        6.67070
H         10.67470       -3.65050        6.21070
H          9.53980       -4.59130        7.19270
H          9.48330       -2.83240        7.22310
H         10.07880       -3.07340        3.96340
H          8.47970       -3.16410        2.11170
H          0.59330       -3.97340        3.57740
H          0.03510       -4.63140        5.87980
H         -0.29300       -6.89250        7.35940
H         -1.87160       -6.14480        7.14490
H         -1.64890       -7.86080        6.77080
H         -1.59860       -8.29630        4.43790
H         -1.02000       -7.65620        2.13990
H         -2.47420       -5.48660        1.45010
H         -3.94930       -5.98760       -0.44590
H         -3.27970       -7.61040       -3.19140
H         -2.88260       -6.05990       -3.92590
H         -4.26470       -6.19330       -2.82890
H         -0.55020       -6.38590       -2.98600
H          0.93340       -5.90600       -1.09020
H          2.62630       -0.12450       -3.88020
H          3.31290        2.21160       -4.04560
H          3.82260        5.82210       -3.66450
H          4.44460        4.24830       -4.20930
H          2.67390        4.53080       -4.07770
H          3.03970        2.59810        0.20280
H          2.37000        0.22440        0.36710
H          4.44930       -1.61820       -2.57390
H          5.31900       -3.39750       -4.04640
H          3.42040       -7.81680       -5.78030
H          2.07970       -6.65250       -5.78850
H          2.69080       -7.31790       -4.23780
H          1.47970       -5.27230       -4.01730
H          0.61890       -3.51350       -2.59300
H         -2.38780       -0.36270        2.47270
H         -2.30710       -1.92650        4.38330
H         -4.19580       -6.59130        5.24930
H         -3.88040       -6.29680        3.52770
H         -5.41020       -5.72920        4.28090
H         -5.03220       -4.52300        2.35360
H         -5.09070       -2.98710        0.46130
H         -6.15310       -0.50140        1.24490
H         -8.22690       -0.14740       -0.00870
H         -7.77680        0.92520       -4.82170
H         -9.38710        0.19340       -4.98680
H         -7.98560       -0.84900       -4.64960
H         -5.98720        0.03650       -3.65290
H         -3.95060       -0.42380       -2.42470
H         -0.13620        4.09610       -0.77370
H          1.20590        6.17180       -0.79480
H          1.62400        9.97800       -4.13520
H          0.17570        8.95490       -4.31770
H          1.70530        8.52480       -5.14990
H          0.35670        6.65360       -4.95880
H         -0.99200        4.62230       -4.92440
H          0.43630        2.32520       -4.33030
H          0.29320        0.74390       -6.17930
H          0.29700       -1.29150       -7.33460
H         -0.12420        0.08540       -8.40630
H         -0.55690       -1.57540       -8.86700
H         -3.90340        0.31640       -5.48560
H         -3.76210        1.93880       -3.63720
H         -6.40470        4.06360        3.39530
H         -8.20820        2.38650        3.54080
H        -11.10330        2.54340        0.05120
H        -11.86930        0.97200        0.38220
H        -10.46390        1.04850       -0.70200
H         -8.69180        2.54520       -0.70520
H         -6.91100        4.21050       -0.84640
H         -7.71620        6.38850        2.31300
H         -7.70130        8.29990        3.87020
H         -3.28320       10.38380        4.91890
H         -4.08690       10.82230        3.37450
H         -4.31300       11.82860        4.81750
H         -3.42960        8.31850        3.80590
H         -3.44110        6.40470        2.28380
H         -5.38880        7.82910        0.42360
H         -0.45450       11.52820       -1.10390
H         -0.44490        9.95420       -1.93680
H         -0.39770       11.83430       -3.57410
H         -1.88190       10.88450       -3.73930
H         -1.91180       12.45920       -2.92890
