
  xtb     02042201143D
 energy: -254.512847663151 gnorm: 0.000639040180 xtb: 6.4.1 (unknown)
140153  0     0  0            999 V2000
   -7.5281   -2.0902    1.9238 C   0  0  0  0  0  0  0  0  0  0  0  0
   -7.9427   -2.0270    3.2368 C   0  0  0  0  0  0  0  0  0  0  0  0
   -7.1100   -1.3671    4.2604 C   0  0  0  0  0  0  0  0  0  0  0  0
   -6.2111   -0.5887    3.9922 O   0  0  0  0  0  0  0  0  0  0  0  0
   -7.4503   -1.6062    5.5773 N   0  0  0  0  0  0  0  0  0  0  0  0
   -6.5523   -1.1077    6.6113 C   0  0  0  0  0  0  0  0  0  0  0  0
   -5.5258   -2.1692    6.9878 C   0  0  0  0  0  0  0  0  0  0  0  0
   -8.5901   -2.2673    6.0074 C   0  0  0  0  0  0  0  0  0  0  0  0
   -8.7763   -2.4868    7.1868 O   0  0  0  0  0  0  0  0  0  0  0  0
   -9.5361   -2.6262    4.9479 C   0  0  0  0  0  0  0  0  0  0  0  0
   -9.2352   -2.5081    3.6191 C   0  0  0  0  0  0  0  0  0  0  0  0
  -10.2190   -2.9523    2.5818 C   0  0  0  0  0  0  0  0  0  0  0  0
  -10.7716   -3.1477    5.3823 C   0  0  0  0  0  0  0  0  0  0  0  0
  -11.7833   -3.5655    5.7270 N   0  0  0  0  0  0  0  0  0  0  0  0
   -6.2171   -1.9520    1.4219 C   0  0  0  0  0  0  0  0  0  0  0  0
   -5.0248   -2.2224    2.1306 C   0  0  0  0  0  0  0  0  0  0  0  0
   -3.7263   -1.9676    1.5613 C   0  0  0  0  0  0  0  0  0  0  0  0
   -2.7458   -2.2663    2.4121 N   0  0  0  0  0  0  0  0  0  0  0  0
   -3.3820   -2.8367    3.7755 S   0  0  0  0  0  4  0  0  0  0  0  0
   -4.9262   -2.7406    3.3541 N   0  0  0  0  0  0  0  0  0  0  0  0
   -3.5111   -1.4730    0.2481 C   0  0  0  0  0  0  0  0  0  0  0  0
   -4.7047   -1.2535   -0.4798 C   0  0  0  0  0  0  0  0  0  0  0  0
   -4.8012   -0.7215   -1.6980 N   0  0  0  0  0  0  0  0  0  0  0  0
   -6.3511   -0.6111   -2.1104 S   0  0  0  0  0  0  0  0  0  0  0  0
   -6.9895   -1.2085   -0.7610 N   0  0  0  0  0  0  0  0  0  0  0  0
   -6.0115   -1.5242    0.0865 C   0  0  0  0  0  0  0  0  0  0  0  0
   -2.1991   -1.1407   -0.1533 C   0  0  0  0  0  0  0  0  0  0  0  0
   -1.6597   -0.7690   -1.4046 C   0  0  0  0  0  0  0  0  0  0  0  0
   -2.2059   -1.0033   -2.6403 N   0  0  0  0  0  0  0  0  0  0  0  0
   -2.9740   -2.1317   -2.9210 C   0  0  0  0  0  0  0  0  0  0  0  0
   -3.9080   -2.1045   -3.9630 C   0  0  0  0  0  0  0  0  0  0  0  0
   -4.6848   -3.2050   -4.2315 C   0  0  0  0  0  0  0  0  0  0  0  0
   -4.5524   -4.3723   -3.4765 C   0  0  0  0  0  0  0  0  0  0  0  0
   -5.6242   -5.7017   -3.8980 S   0  0  0  0  0  0  0  0  0  0  0  0
   -5.1771   -7.0211   -2.7347 C   0  0  0  0  0  0  0  0  0  0  0  0
   -3.6034   -4.4166   -2.4623 C   0  0  0  0  0  0  0  0  0  0  0  0
   -2.8202   -3.3119   -2.1953 C   0  0  0  0  0  0  0  0  0  0  0  0
   -1.8955   -0.0959   -3.6700 C   0  0  0  0  0  0  0  0  0  0  0  0
   -1.9991    1.2720   -3.4366 C   0  0  0  0  0  0  0  0  0  0  0  0
   -1.6684    2.1809   -4.4214 C   0  0  0  0  0  0  0  0  0  0  0  0
   -1.2260    1.7315   -5.6599 C   0  0  0  0  0  0  0  0  0  0  0  0
   -0.7669    2.7877   -6.9895 S   0  0  0  0  0  0  0  0  0  0  0  0
   -0.8026    4.4507   -6.2628 C   0  0  0  0  0  0  0  0  0  0  0  0
   -1.1374    0.3592   -5.9003 C   0  0  0  0  0  0  0  0  0  0  0  0
   -1.4670   -0.5462   -4.9187 C   0  0  0  0  0  0  0  0  0  0  0  0
   -0.3783   -0.1910   -1.2413 C   0  0  0  0  0  0  0  0  0  0  0  0
    0.8051    0.4799   -2.3261 S   0  0  0  0  0  0  0  0  0  0  0  0
    1.8793    0.7979   -0.9807 C   0  0  0  0  0  0  0  0  0  0  0  0
    1.3917    0.2946    0.2291 C   0  0  0  0  0  0  0  0  0  0  0  0
    2.1062    0.1746    1.4002 N   0  0  0  0  0  0  0  0  0  0  0  0
    3.4968    0.0141    1.3869 C   0  0  0  0  0  0  0  0  0  0  0  0
    4.2910    0.6371    2.3495 C   0  0  0  0  0  0  0  0  0  0  0  0
    5.6641    0.6231    2.2301 C   0  0  0  0  0  0  0  0  0  0  0  0
    6.2759   -0.0235    1.1573 C   0  0  0  0  0  0  0  0  0  0  0  0
    8.0269    0.1256    1.0204 S   0  0  0  0  0  0  0  0  0  0  0  0
    8.4068   -0.5605   -0.6173 C   0  0  0  0  0  0  0  0  0  0  0  0
    5.4924   -0.7429    0.2632 C   0  0  0  0  0  0  0  0  0  0  0  0
    4.1182   -0.7269    0.3825 C   0  0  0  0  0  0  0  0  0  0  0  0
    1.3737    0.1113    2.5966 C   0  0  0  0  0  0  0  0  0  0  0  0
    0.3355    1.0142    2.8136 C   0  0  0  0  0  0  0  0  0  0  0  0
   -0.5234    0.8533    3.8819 C   0  0  0  0  0  0  0  0  0  0  0  0
   -0.3510   -0.2167    4.7509 C   0  0  0  0  0  0  0  0  0  0  0  0
   -1.4647   -0.6053    6.0584 S   0  0  0  0  0  0  0  0  0  0  0  0
   -2.9075    0.4482    5.7375 C   0  0  0  0  0  0  0  0  0  0  0  0
    0.7516   -1.0576    4.5946 C   0  0  0  0  0  0  0  0  0  0  0  0
    1.6101   -0.8964    3.5309 C   0  0  0  0  0  0  0  0  0  0  0  0
    0.0906   -0.2230    0.0632 C   0  0  0  0  0  0  0  0  0  0  0  0
   -1.0171   -0.9956    1.1414 S   0  0  0  0  0  0  0  0  0  0  0  0
    3.1331    1.4522   -1.1492 C   0  0  0  0  0  0  0  0  0  0  0  0
    3.6166    2.3676   -0.1921 C   0  0  0  0  0  0  0  0  0  0  0  0
    4.9821    2.8354   -0.1926 C   0  0  0  0  0  0  0  0  0  0  0  0
    5.2083    3.6897    0.8070 N   0  0  0  0  0  0  0  0  0  0  0  0
    3.8519    3.8949    1.6400 S   0  0  0  0  0  4  0  0  0  0  0  0
    2.9040    2.9135    0.7971 N   0  0  0  0  0  0  0  0  0  0  0  0
    5.9368    2.4249   -1.1500 C   0  0  0  0  0  0  0  0  0  0  0  0
    5.4361    1.5365   -2.1278 C   0  0  0  0  0  0  0  0  0  0  0  0
    6.1566    0.8916   -3.0464 N   0  0  0  0  0  0  0  0  0  0  0  0
    5.1935   -0.0655   -3.9049 S   0  0  0  0  0  0  0  0  0  0  0  0
    3.8214    0.2253   -3.1319 N   0  0  0  0  0  0  0  0  0  0  0  0
    4.0501    1.1129   -2.1617 C   0  0  0  0  0  0  0  0  0  0  0  0
    7.2904    2.8093   -0.9865 C   0  0  0  0  0  0  0  0  0  0  0  0
    8.2800    2.8393   -1.9364 C   0  0  0  0  0  0  0  0  0  0  0  0
    7.9431    2.8886   -3.3751 C   0  0  0  0  0  0  0  0  0  0  0  0
    6.8769    3.2996   -3.7887 O   0  0  0  0  0  0  0  0  0  0  0  0
    8.9451    2.5118   -4.2484 N   0  0  0  0  0  0  0  0  0  0  0  0
    8.6025    2.3509   -5.6566 C   0  0  0  0  0  0  0  0  0  0  0  0
    8.3552    0.8839   -5.9853 C   0  0  0  0  0  0  0  0  0  0  0  0
   10.2700    2.3084   -3.9010 C   0  0  0  0  0  0  0  0  0  0  0  0
   11.0788    1.9227   -4.7192 O   0  0  0  0  0  0  0  0  0  0  0  0
   10.6090    2.6319   -2.5085 C   0  0  0  0  0  0  0  0  0  0  0  0
    9.6629    2.8975   -1.5600 C   0  0  0  0  0  0  0  0  0  0  0  0
   10.0552    3.1560   -0.1409 C   0  0  0  0  0  0  0  0  0  0  0  0
   11.9831    2.6030   -2.1931 C   0  0  0  0  0  0  0  0  0  0  0  0
   13.1000    2.5854   -1.9305 N   0  0  0  0  0  0  0  0  0  0  0  0
   -8.2720   -2.2549    1.1550 H   0  0  0  0  0  0  0  0  0  0  0  0
   -7.1611   -0.8471    7.4794 H   0  0  0  0  0  0  0  0  0  0  0  0
   -6.0674   -0.2150    6.2112 H   0  0  0  0  0  0  0  0  0  0  0  0
   -4.9602   -2.4722    6.1091 H   0  0  0  0  0  0  0  0  0  0  0  0
   -4.8400   -1.7801    7.7361 H   0  0  0  0  0  0  0  0  0  0  0  0
   -6.0310   -3.0392    7.3997 H   0  0  0  0  0  0  0  0  0  0  0  0
   -9.8437   -3.8257    2.0496 H   0  0  0  0  0  0  0  0  0  0  0  0
  -10.3914   -2.1587    1.8559 H   0  0  0  0  0  0  0  0  0  0  0  0
  -11.1664   -3.2142    3.0462 H   0  0  0  0  0  0  0  0  0  0  0  0
   -4.0409   -1.1994   -4.5342 H   0  0  0  0  0  0  0  0  0  0  0  0
   -5.4158   -3.1761   -5.0247 H   0  0  0  0  0  0  0  0  0  0  0  0
   -5.3540   -6.6943   -1.7143 H   0  0  0  0  0  0  0  0  0  0  0  0
   -5.8325   -7.8531   -2.9731 H   0  0  0  0  0  0  0  0  0  0  0  0
   -4.1421   -7.3142   -2.8845 H   0  0  0  0  0  0  0  0  0  0  0  0
   -3.4569   -5.3086   -1.8750 H   0  0  0  0  0  0  0  0  0  0  0  0
   -2.0770   -3.3732   -1.4149 H   0  0  0  0  0  0  0  0  0  0  0  0
   -2.3518    1.6189   -2.4770 H   0  0  0  0  0  0  0  0  0  0  0  0
   -1.7653    3.2336   -4.2126 H   0  0  0  0  0  0  0  0  0  0  0  0
   -0.1396    4.4904   -5.4038 H   0  0  0  0  0  0  0  0  0  0  0  0
   -1.8195    4.7219   -5.9943 H   0  0  0  0  0  0  0  0  0  0  0  0
   -0.4396    5.1160   -7.0401 H   0  0  0  0  0  0  0  0  0  0  0  0
   -0.7944    0.0186   -6.8648 H   0  0  0  0  0  0  0  0  0  0  0  0
   -1.3813   -1.6060   -5.1050 H   0  0  0  0  0  0  0  0  0  0  0  0
    3.8191    1.1651    3.1652 H   0  0  0  0  0  0  0  0  0  0  0  0
    6.2790    1.1394    2.9509 H   0  0  0  0  0  0  0  0  0  0  0  0
    9.4607   -0.3565   -0.7815 H   0  0  0  0  0  0  0  0  0  0  0  0
    8.2407   -1.6341   -0.6195 H   0  0  0  0  0  0  0  0  0  0  0  0
    7.8124   -0.0615   -1.3779 H   0  0  0  0  0  0  0  0  0  0  0  0
    5.9412   -1.3148   -0.5333 H   0  0  0  0  0  0  0  0  0  0  0  0
    3.5164   -1.2772   -0.3259 H   0  0  0  0  0  0  0  0  0  0  0  0
    0.1954    1.8299    2.1202 H   0  0  0  0  0  0  0  0  0  0  0  0
   -1.3322    1.5531    4.0134 H   0  0  0  0  0  0  0  0  0  0  0  0
   -3.3003    0.2570    4.7432 H   0  0  0  0  0  0  0  0  0  0  0  0
   -2.6469    1.4945    5.8674 H   0  0  0  0  0  0  0  0  0  0  0  0
   -3.6433    0.1623    6.4821 H   0  0  0  0  0  0  0  0  0  0  0  0
    0.9012   -1.8605    5.2996 H   0  0  0  0  0  0  0  0  0  0  0  0
    2.4395   -1.5731    3.3896 H   0  0  0  0  0  0  0  0  0  0  0  0
    7.5417    3.0721    0.0328 H   0  0  0  0  0  0  0  0  0  0  0  0
    9.4351    2.7337   -6.2504 H   0  0  0  0  0  0  0  0  0  0  0  0
    7.7068    2.9470   -5.8381 H   0  0  0  0  0  0  0  0  0  0  0  0
    8.0528    0.7853   -7.0241 H   0  0  0  0  0  0  0  0  0  0  0  0
    7.5697    0.4853   -5.3465 H   0  0  0  0  0  0  0  0  0  0  0  0
    9.2656    0.3106   -5.8292 H   0  0  0  0  0  0  0  0  0  0  0  0
    9.5800    4.0652    0.2239 H   0  0  0  0  0  0  0  0  0  0  0  0
   11.1338    3.2639   -0.0591 H   0  0  0  0  0  0  0  0  0  0  0  0
    9.7418    2.3308    0.4987 H   0  0  0  0  0  0  0  0  0  0  0  0
  1  2  2  0  0  0  0
  2  3  1  0  0  0  0
  3  4  2  0  0  0  0
  3  5  1  0  0  0  0
  5  6  1  0  0  0  0
  6  7  1  0  0  0  0
  5  8  1  0  0  0  0
  8  9  2  0  0  0  0
  8 10  1  0  0  0  0
 10 11  2  0  0  0  0
 11 12  1  0  0  0  0
 10 13  1  0  0  0  0
 13 14  3  0  0  0  0
  1 15  1  0  0  0  0
 15 16  2  0  0  0  0
 16 17  1  0  0  0  0
 17 18  1  0  0  0  0
 18 19  2  0  0  0  0
 19 20  2  0  0  0  0
 17 21  2  0  0  0  0
 21 22  1  0  0  0  0
 22 23  2  0  0  0  0
 23 24  1  0  0  0  0
 24 25  1  0  0  0  0
 25 26  2  0  0  0  0
 21 27  1  0  0  0  0
 27 28  2  0  0  0  0
 28 29  1  0  0  0  0
 29 30  1  0  0  0  0
 30 31  2  0  0  0  0
 31 32  1  0  0  0  0
 32 33  2  0  0  0  0
 33 34  1  0  0  0  0
 34 35  1  0  0  0  0
 33 36  1  0  0  0  0
 36 37  2  0  0  0  0
 29 38  1  0  0  0  0
 38 39  2  0  0  0  0
 39 40  1  0  0  0  0
 40 41  2  0  0  0  0
 41 42  1  0  0  0  0
 42 43  1  0  0  0  0
 41 44  1  0  0  0  0
 44 45  2  0  0  0  0
 28 46  1  0  0  0  0
 46 47  1  0  0  0  0
 47 48  1  0  0  0  0
 48 49  2  0  0  0  0
 49 50  1  0  0  0  0
 50 51  1  0  0  0  0
 51 52  2  0  0  0  0
 52 53  1  0  0  0  0
 53 54  2  0  0  0  0
 54 55  1  0  0  0  0
 55 56  1  0  0  0  0
 54 57  1  0  0  0  0
 57 58  2  0  0  0  0
 50 59  1  0  0  0  0
 59 60  2  0  0  0  0
 60 61  1  0  0  0  0
 61 62  2  0  0  0  0
 62 63  1  0  0  0  0
 63 64  1  0  0  0  0
 62 65  1  0  0  0  0
 65 66  2  0  0  0  0
 49 67  1  0  0  0  0
 67 68  1  0  0  0  0
 48 69  1  0  0  0  0
 69 70  2  0  0  0  0
 70 71  1  0  0  0  0
 71 72  1  0  0  0  0
 72 73  2  0  0  0  0
 73 74  2  0  0  0  0
 71 75  2  0  0  0  0
 75 76  1  0  0  0  0
 76 77  2  0  0  0  0
 77 78  1  0  0  0  0
 78 79  1  0  0  0  0
 79 80  2  0  0  0  0
 75 81  1  0  0  0  0
 81 82  2  0  0  0  0
 82 83  1  0  0  0  0
 83 84  2  0  0  0  0
 83 85  1  0  0  0  0
 85 86  1  0  0  0  0
 86 87  1  0  0  0  0
 85 88  1  0  0  0  0
 88 89  2  0  0  0  0
 88 90  1  0  0  0  0
 90 91  2  0  0  0  0
 91 92  1  0  0  0  0
 90 93  1  0  0  0  0
 93 94  3  0  0  0  0
 11  2  1  0  0  0  0
 26 15  1  0  0  0  0
 68 27  1  0  0  0  0
 80 69  1  0  0  0  0
 91 82  1  0  0  0  0
 20 16  1  0  0  0  0
 26 22  1  0  0  0  0
 37 30  1  0  0  0  0
 45 38  1  0  0  0  0
 67 46  2  0  0  0  0
 74 70  1  0  0  0  0
 80 76  1  0  0  0  0
 58 51  1  0  0  0  0
 66 59  1  0  0  0  0
  1 95  1  0  0  0  0
  6 96  1  0  0  0  0
  6 97  1  0  0  0  0
  7 98  1  0  0  0  0
  7 99  1  0  0  0  0
  7100  1  0  0  0  0
 12101  1  0  0  0  0
 12102  1  0  0  0  0
 12103  1  0  0  0  0
 31104  1  0  0  0  0
 32105  1  0  0  0  0
 35106  1  0  0  0  0
 35107  1  0  0  0  0
 35108  1  0  0  0  0
 36109  1  0  0  0  0
 37110  1  0  0  0  0
 39111  1  0  0  0  0
 40112  1  0  0  0  0
 43113  1  0  0  0  0
 43114  1  0  0  0  0
 43115  1  0  0  0  0
 44116  1  0  0  0  0
 45117  1  0  0  0  0
 52118  1  0  0  0  0
 53119  1  0  0  0  0
 56120  1  0  0  0  0
 56121  1  0  0  0  0
 56122  1  0  0  0  0
 57123  1  0  0  0  0
 58124  1  0  0  0  0
 60125  1  0  0  0  0
 61126  1  0  0  0  0
 64127  1  0  0  0  0
 64128  1  0  0  0  0
 64129  1  0  0  0  0
 65130  1  0  0  0  0
 66131  1  0  0  0  0
 81132  1  0  0  0  0
 86133  1  0  0  0  0
 86134  1  0  0  0  0
 87135  1  0  0  0  0
 87136  1  0  0  0  0
 87137  1  0  0  0  0
 92138  1  0  0  0  0
 92139  1  0  0  0  0
 92140  1  0  0  0  0
M  END
