146

C         -6.06940       -8.54460       -0.03480
C         -5.55010       -9.67850        0.50470
C         -4.09610       -9.96910        0.38550
O         -3.39740       -9.47460       -0.47360
N         -3.57770      -10.87730        1.28490
C         -2.12610      -11.03940        1.30820
C         -1.47110       -9.96680        2.16860
C         -4.32660      -11.68050        2.13070
O         -3.79880      -12.40870        2.94040
C         -5.78600      -11.60660        1.93270
C         -6.38210      -10.66430        1.15480
C         -7.87010      -10.60170        1.02460
C         -6.54190      -12.56820        2.63960
N         -7.16480      -13.34920        3.20220
C         -5.32510       -7.39630       -0.50400
C         -4.20500       -6.92250        0.19860
C         -3.55100       -5.81370       -0.27490
C         -2.37770       -5.10290        0.30130
O         -1.77880       -5.36920        1.31680
C         -2.15130       -3.96000       -0.62140
C         -3.10800       -3.99690       -1.65550
C         -3.97790       -5.14440       -1.44080
C         -5.09760       -5.58750       -2.11700
C         -5.76880       -6.69990       -1.63130
C         -3.12070       -3.00790       -2.61980
C         -2.23950       -1.94610       -2.49150
C         -1.33750       -1.86810       -1.42740
C         -1.25270       -2.92550       -0.51230
C         -0.57150       -0.65560       -1.20720
C         -1.06450        0.63980       -1.19570
N         -2.39670        0.98730       -1.36050
C         -2.72500        2.17920       -2.01870
C         -3.84190        2.91750       -1.62510
C         -4.15820        4.09110       -2.26910
C         -3.36520        4.56420       -3.31420
S         -3.87310        6.08030       -4.06000
C         -2.51030        6.49090       -5.18660
C         -2.25680        3.83060       -3.71250
C         -1.94500        2.64630       -3.07260
C         -3.40080        0.12910       -0.89030
C         -3.24170       -0.54540        0.31740
C         -4.14670       -1.50740        0.71750
C         -5.24310       -1.80200       -0.08100
S         -6.40030       -3.08980        0.26540
C         -5.78160       -3.83980        1.79650
C         -5.45570       -1.06640       -1.24490
C         -4.54700       -0.11360       -1.64820
C         -0.03480        1.56990       -0.90440
S          0.00690        3.28680       -0.67480
C          1.72500        3.20840       -0.34160
C          2.21090        1.89700       -0.29780
N          3.43560        1.52270        0.20460
C          4.06970        0.39310       -0.32570
C          4.01230        0.13930       -1.69720
C          4.61680       -0.98070       -2.21780
C          5.29550       -1.87150       -1.38550
S          6.02190       -3.27040       -2.17090
C          6.74100       -4.22420       -0.80460
C          5.36830       -1.61150       -0.02210
C          4.75890       -0.48890        0.50170
C          4.05690        2.28280        1.20620
C          5.43450        2.48390        1.19970
C          6.03260        3.32450        2.11930
C          5.26160        3.97190        3.07670
S          5.89350        5.10860        4.26000
C          7.69250        4.89670        4.15220
C          3.88820        3.72350        3.12430
C          3.29470        2.88700        2.20960
C          1.19840        0.98130       -0.66480
S          1.12340       -0.74300       -0.77980
C          2.47970        4.38950       -0.11190
C          1.99300        5.47000        0.64960
C          2.83910        6.56010        1.09180
N          2.20410        7.33650        1.96750
S          0.70330        6.80910        2.15830
N          0.77300        5.53410        1.18790
C          4.19250        6.67430        0.69900
C          4.65340        5.62320       -0.12960
N          5.87050        5.54360       -0.66710
S          5.95060        4.23970       -1.60120
N          4.45800        3.69540       -1.37280
C          3.81910        4.51950       -0.53910
C          5.09960        7.66920        1.12150
C          4.80870        8.94800        1.52070
C          3.56710        9.68300        1.20320
O          2.65330        9.34410        0.48270
C          3.73480       11.01940        1.82420
C          2.83930       12.06650        1.86090
C          3.22110       13.24260        2.49750
Cl         2.12480       14.56430        2.57720
C          4.49140       13.34180        3.06740
Br         5.01240       14.94360        3.92910
C          5.39840       12.28990        3.02000
C          5.01540       11.11560        2.39360
C          5.71950        9.85040        2.18710
C          7.00040        9.58140        2.60040
C          7.68450        8.36300        2.42350
N          8.33030        7.41660        2.33200
C          7.82830       10.51010        3.26470
N          8.55320       11.21840        3.80430
H         -7.14580       -8.44800       -0.10050
H         -1.91860      -12.03120        1.71280
H         -1.77150      -10.97090        0.27790
H         -1.65670       -8.97800        1.75480
H         -1.85840      -10.00920        3.18420
H         -0.39790      -10.13170        2.19930
H         -8.15840      -10.54240       -0.02380
H         -8.32690      -11.48340        1.46670
H         -8.26050       -9.72310        1.53790
H         -3.88220       -7.39810        1.11210
H         -5.45600       -5.07630       -2.99690
H         -6.64400       -7.05870       -2.15340
H         -3.82050       -3.03780       -3.44040
H         -2.25490       -1.15040       -3.22120
H         -0.53840       -2.89570        0.29710
H         -4.45220        2.56540       -0.80730
H         -5.01950        4.66520       -1.96430
H         -2.45430        5.76260       -5.99060
H         -2.75290        7.46760       -5.59390
H         -1.57820        6.54280       -4.63190
H         -1.63110        4.16110       -4.52550
H         -1.08960        2.07470       -3.40200
H         -2.38550       -0.33090        0.93940
H         -3.97710       -2.02450        1.64780
H         -5.82490       -3.11900        2.60770
H         -4.77170       -4.21190        1.64990
H         -6.45100       -4.66860        2.00570
H         -6.32960       -1.27370       -1.84300
H         -4.70480        0.42940       -2.56780
H          3.50810        0.84060       -2.34400
H          4.57900       -1.18030       -3.27750
H          5.96240       -4.51430       -0.10540
H          7.52050       -3.64750       -0.31550
H          7.17200       -5.10870       -1.26320
H          5.88910       -2.27870        0.64520
H          4.80840       -0.29620        1.56320
H          6.03760        2.00090        0.44440
H          7.09640        3.48830        2.06260
H          7.94040        3.84360        4.24280
H          8.06540        5.32850        3.22810
H          8.09870        5.44680        4.99550
H          3.29800        4.19780        3.89340
H          2.23190        2.70290        2.26030
H          6.13710        7.36110        1.08540
H          1.86390       11.97140        1.41080
H          6.37140       12.41220        3.46780
