226

C          5.94460        4.52510       -5.79580
C          7.30340        4.74430       -5.99070
C          8.30390        4.09650       -5.15620
O          8.02120        3.29730       -4.26610
N          9.62380        4.41050       -5.36590
C         10.60920        3.76930       -4.50220
C         10.98280        2.38810       -5.02430
C         10.10440        5.25820       -6.35870
O         11.29470        5.46600       -6.47600
C          9.07720        5.84870       -7.21040
C          7.73840        5.61580       -7.03620
C          6.75180        6.25860       -7.96470
C          9.55130        6.68320       -8.24330
N          9.92740        7.36600       -9.08570
C          5.21590        3.71930       -4.92950
C          3.79290        3.69500       -4.95080
N          2.98740        4.33220       -5.87170
C          3.28840        4.30390       -7.24650
C          3.89210        3.19010       -7.82600
C          4.17750        3.18350       -9.17710
C          3.85970        4.27000       -9.98510
C          4.19340        4.26900      -11.44410
C          3.23910        5.36910       -9.40020
C          2.95480        5.39240       -8.04910
C          1.68460        4.68890       -5.47430
C          1.48190        5.32430       -4.25120
C          0.20190        5.61210       -3.82160
C         -0.90560        5.28900       -4.59610
C         -2.29410        5.54260       -4.09650
C         -0.69070        4.69900       -5.83610
C          0.58350        4.40070       -6.27510
C          3.28870        2.90260       -3.91960
S          1.68670        2.45140       -3.44840
C          2.33470        1.31150       -2.27670
C          3.73010        1.31240       -2.25820
N          4.52170        0.49780       -1.45940
C          4.31810       -0.88620       -1.43750
C          4.66490       -1.63340       -0.31130
C          4.41990       -2.98940       -0.27680
C          3.82060       -3.64270       -1.34920
C          3.55910       -5.11670       -1.28890
C          3.48720       -2.89400       -2.46980
C          3.73480       -1.53580       -2.52220
C          5.65610        1.08300       -0.87730
C          5.57610        2.38220       -0.38370
C          6.69030        2.99210        0.15940
C          7.90190        2.32080        0.24660
C          9.11530        2.97350        0.83400
C          7.96990        1.01950       -0.23900
C          6.87090        0.40690       -0.80250
C          4.26240        2.23810       -3.18110
S          5.86620        2.65920       -3.67140
C          1.44190        0.63710       -1.41200
C          0.05480        0.52950       -1.52310
N         -0.70390        0.82040       -2.64920
C         -0.27510        0.43750       -3.92360
C          0.56600       -0.66300       -4.09650
C          1.09520       -0.94390       -5.33600
C          0.78550       -0.14840       -6.43760
S          1.58390       -0.55570       -7.95910
C          1.16240        0.82670       -9.05760
C         -0.10910        0.90190       -6.28490
C         -0.62890        1.19370       -5.04080
C         -1.94950        1.43240       -2.46380
C         -3.06550        1.02890       -3.19820
C         -4.28320        1.63740       -2.99840
C         -4.42010        2.65840       -2.05890
S         -6.02740        3.37560       -1.91070
C         -5.85820        4.55770       -0.54340
C         -3.31520        3.05910       -1.32100
C         -2.09160        2.45070       -1.52540
C         -0.50670        0.02490       -0.33130
S         -2.12290       -0.30540        0.17850
C         -1.52920       -0.92210        1.72250
C         -0.13860       -0.93030        1.79470
N          0.63050       -1.51330        2.78220
C          1.95130       -1.06500        2.96180
C          2.99960       -1.98150        3.04570
C          4.29600       -1.53880        3.16560
C          4.58110       -0.17310        3.19610
S          6.28740        0.26640        3.27600
C          6.26610        2.06710        3.48160
C          3.53830        0.74080        3.14460
C          2.23400        0.29540        3.03610
C          0.20280       -2.65490        3.47640
C          0.54730       -2.81590        4.81720
C          0.05240       -3.87410        5.55290
C         -0.80180       -4.79360        4.95890
S         -1.59000       -6.11590        5.82480
C         -0.58330       -6.33830        7.31730
C         -1.10430       -4.66760        3.60400
C         -0.59720       -3.62200        2.86610
C          0.41910       -0.33010        0.63700
S          2.03320       -0.00210        0.11700
C         -2.51070       -1.37210        2.64600
C         -3.75370       -1.84070        2.32040
C         -4.49490       -2.31900        3.42120
C         -5.75580       -2.96100        3.39510
C         -6.59670       -2.91760        2.22420
C         -7.51670       -3.82380        1.76610
C         -8.20390       -3.40690        0.61580
C         -7.82380       -2.16510        0.18560
S         -8.41800       -1.37470       -1.25090
C         -7.71030        0.30300       -1.10120
C         -8.43000        1.14310       -0.06580
S         -6.59100       -1.49590        1.20410
C         -6.12380       -3.61110        4.56860
C         -5.33810       -3.58720        5.75230
C         -4.15040       -2.81910        5.81890
C         -3.32850       -2.70420        6.99730
C         -2.53310       -1.64300        7.35150
C         -1.78140       -1.85230        8.51470
C         -1.98130       -3.08930        9.06620
S         -1.13600       -3.69390       10.46660
C         -2.08970       -5.18530       10.91990
C         -3.43240       -4.85820       11.53880
S         -3.12940       -4.00740        8.14530
C         -3.76620       -2.20860        4.62980
S         -2.26110       -1.36810        4.37820
C         -5.90090       -4.38420        6.76310
C         -7.06440       -5.01770        6.40520
S         -7.56960       -4.56450        4.79170
C         -7.78680       -5.91100        7.23420
C         -7.17380       -6.71180        8.16110
C         -8.02040       -7.19870        9.27550
O         -9.23140       -7.23870        9.21760
N         -7.34660       -7.51530       10.43880
C         -8.14940       -7.85230       11.60980
C         -8.42870       -9.34830       11.66700
C         -5.96640       -7.55660       10.58140
O         -5.44770       -7.69560       11.67070
C         -5.21720       -7.48320        9.32410
C         -5.79110       -7.09070        8.14750
C         -5.01400       -7.21000        6.87420
C         -3.85770       -7.84010        9.35810
N         -2.73860       -8.09730        9.34970
H          5.30540        5.10540       -6.44740
H         11.48560        4.41950       -4.48350
H         10.17150        3.69120       -3.50490
H         11.39490        2.46590       -6.02780
H         10.10490        1.74650       -5.04470
H         11.72900        1.94060       -4.37370
H          6.15080        5.50400       -8.47170
H          6.08060        6.92090       -7.41840
H          7.27300        6.84720       -8.71530
H          4.13410        2.33420       -7.21330
H          4.64570        2.31320       -9.61290
H          5.14150        4.78180      -11.60980
H          4.28980        3.25370      -11.82070
H          3.42910        4.78930      -12.01690
H          2.98130        6.22170      -10.01080
H          2.47440        6.25160       -7.60420
H          2.33370        5.58010       -3.63810
H          0.06090        6.09400       -2.86520
H         -2.98180        5.71240       -4.92150
H         -2.31690        6.40450       -3.43360
H         -2.64780        4.67540       -3.53580
H         -1.53670        4.45660       -6.46320
H          0.73080        3.92980       -7.23560
H          5.10970       -1.13950        0.53850
H          4.68820       -3.55200        0.60540
H          4.50000       -5.66680       -1.29300
H          2.96730       -5.44340       -2.14030
H          3.02880       -5.37460       -0.37340
H          3.03200       -3.38030       -3.32120
H          3.47860       -0.97340       -3.40830
H          4.63470        2.91170       -0.43020
H          6.61430        4.00810        0.52290
H          9.57770        2.32430        1.57610
H          9.85260        3.16230        0.05410
H          8.86280        3.92180        1.30270
H          8.90610        0.48360       -0.18640
H          6.95090       -0.59390       -1.19860
H          0.82190       -1.28290       -3.25020
H          1.76370       -1.78140       -5.46580
H          1.70540        0.64200       -9.97930
H          0.09510        0.83710       -9.25820
H          1.49600        1.76260       -8.61790
H         -0.39490        1.51730       -7.12190
H         -1.28180        2.04490       -4.92410
H         -2.97020        0.23020       -3.91790
H         -5.14820        1.32490       -3.56320
H         -5.54330        4.03850        0.35710
H         -6.84700        4.98260       -0.40000
H         -5.15890        5.34360       -0.81350
H         -3.38780        3.84800       -0.59000
H         -1.23100        2.77470       -0.95910
H          2.78590       -3.03890        3.00250
H          5.11170       -2.24330        3.22020
H          7.30570        2.35970        3.58830
H          5.71310        2.32910        4.37900
H          5.84530        2.53300        2.59550
H          3.72490        1.80160        3.18190
H          1.42450        1.00970        3.00050
H          1.18240       -2.08420        5.29350
H          0.31920       -3.95360        6.59450
H         -1.03660       -7.16700        7.85510
H         -0.61110       -5.44490        7.93300
H          0.43540       -6.58220        7.03200
H         -1.74530       -5.40120        3.13940
H         -0.83400       -3.54090        1.81580
H         -4.07120       -1.92320        1.29700
H         -7.67410       -4.78550        2.21900
H         -8.95190       -3.99230        0.11400
H         -6.64900        0.19580       -0.87540
H         -7.82140        0.73420       -2.09540
H         -8.31900        0.71630        0.92840
H         -8.00950        2.14580       -0.06310
H         -9.48940        1.20950       -0.30150
H         -2.52690       -0.71070        6.81720
H         -1.11400       -1.12810        8.94360
H         -1.44710       -5.70110       11.63230
H         -2.18920       -5.80000       10.02640
H         -4.06720       -4.32260       10.83480
H         -3.30590       -4.24490       12.42810
H         -3.92970       -5.78410       11.82080
H         -5.50270       -4.47150        7.75630
H         -8.86890       -5.90430        7.20400
H         -9.08460       -7.29410       11.53620
H         -7.58750       -7.53350       12.48970
H         -9.02500       -9.57560       12.54610
H         -7.49530       -9.90420       11.72450
H         -8.97690       -9.66120       10.78140
H         -4.22180       -6.46500        6.81100
H         -4.52680       -8.18450        6.84560
H         -5.65560       -7.11170        6.00440
