236

C         11.52060        6.01520       -2.18180
C         12.55690        5.78830       -1.32160
C         13.58160        6.85360       -1.20840
O         13.80880        7.65240       -2.09150
N         14.19690        6.94030        0.02350
C         15.11040        8.05810        0.23840
C         16.53390        7.68180       -0.15100
C         14.03790        6.04200        1.07590
O         14.51750        6.26380        2.16620
C         13.34310        4.79740        0.72330
C         12.68030        4.64550       -0.46040
C         12.25070        3.28710       -0.92040
C         13.38070        3.74460        1.65710
N         13.33310        2.88400        2.41570
C         10.26120        5.37120       -2.04130
C          9.71120        4.98810       -0.84420
C          8.45770        4.35310       -0.96200
C          7.67270        3.78740        0.06320
C          8.08670        3.80240        1.46930
C          9.42520        3.53480        1.82630
C          9.83240        3.55630        3.12740
C          8.90660        3.76480        4.17020
C          9.28420        3.67760        5.52410
C          8.34550        3.80810        6.51890
O          8.57590        3.72140        7.85450
C          9.83860        3.28330        8.31670
C         10.03150        1.78000        8.13670
C          6.99700        4.07010        6.17350
C          6.61600        4.17860        4.87170
C          7.55300        4.01250        3.82740
C          7.17950        4.05980        2.47470
C          6.49100        3.18640       -0.34330
C          6.05950        3.12390       -1.69350
C          6.85010        3.68380       -2.71300
C          6.47260        3.58200       -4.12820
C          6.46700        4.68810       -4.94290
C          6.13060        4.58520       -6.30520
C          6.12150        5.70070       -7.16430
C          5.79640        5.58070       -8.48660
C          5.45640        4.32230       -9.02530
O          5.13930        4.09130      -10.32790
C          4.98770        5.16900      -11.22920
C          3.67270        5.91850      -11.03410
C          5.45970        3.21470       -8.20300
C          5.79300        3.31570       -6.84490
C          5.81070        2.19240       -5.98800
C          6.13950        2.32030       -4.67140
C          8.02680        4.29650       -2.31420
S          9.18970        5.03960       -3.38800
C          4.80730        2.47000       -1.82080
C          4.31480        2.00840       -0.63580
S          5.37580        2.36610        0.71280
C          3.10920        1.30430       -0.35520
C          2.72360        0.89530        0.88790
C          1.51070        0.17310        0.91490
C          0.87490       -0.41980        2.03210
C          1.48160       -0.42110        3.34220
C          0.87490       -0.42070        4.57700
C          1.77740       -0.42460        5.64240
C          3.10550       -0.44520        5.26180
C          4.20360       -0.31010        6.16190
C          5.53500       -0.17590        5.96230
C          6.33230       -0.28620        4.78090
C          6.19230       -1.01610        3.62710
C          7.28030       -0.91070        2.75020
C          8.28180       -0.10970        3.22540
S          9.75160        0.26870        2.36830
C         10.93330        0.47510        3.74920
C         11.25830       -0.84620        4.41470
S          7.87240        0.55150        4.77870
S          3.21290       -0.47690        3.53120
C         -0.36290       -1.01340        1.78230
C         -0.93500       -1.06580        0.49000
C         -0.26520       -0.53530       -0.63160
C         -0.88280       -0.66840       -1.93550
C         -1.42190       -1.81350       -2.46500
C         -2.12670       -1.60370       -3.65360
C         -2.15330       -0.28500       -4.04800
C         -2.88170        0.32440       -5.11190
C         -3.85960       -0.31180       -5.79330
C         -4.68610        0.25980       -6.79920
C         -4.69760        1.51280       -7.36690
C         -5.71230        1.69160       -8.31460
C         -6.49440        0.57750       -8.48110
S         -7.86980        0.47770       -9.54910
C         -8.37990       -1.26860       -9.36930
C         -7.49950       -2.21190      -10.16500
S         -5.97260       -0.71780       -7.46140
S         -1.22030        0.69970       -2.95190
C          0.94090        0.09660       -0.38170
S          1.95580        0.84730       -1.58710
C         -2.21210       -1.66740        0.49290
C         -2.61460       -2.10660        1.72060
S         -1.40760       -1.79130        2.94760
C         -3.87230       -2.72490        1.99020
C         -4.91860       -2.77700        1.11180
C         -6.04380       -3.47510        1.60100
C         -7.27130       -3.67360        0.94860
C         -7.46960       -3.21670       -0.43330
C         -6.51410       -3.54690       -1.42240
C         -6.64830       -3.10210       -2.70430
C         -7.74650       -2.29810       -3.08280
C         -7.90090       -1.80460       -4.38690
C         -8.98210       -1.02160       -4.73270
O         -9.01240       -0.58070       -6.02190
C        -10.09280        0.21110       -6.47780
C        -11.33270       -0.61780       -6.80110
C         -9.95480       -0.72130       -3.75680
C         -9.82330       -1.19460       -2.48130
C         -8.72410       -1.98770       -2.10060
C         -8.56230       -2.46240       -0.78580
C         -8.26240       -4.32180        1.67080
C         -8.05060       -4.80010        2.99420
C         -6.81050       -4.60570        3.64900
C         -6.58610       -5.06740        5.02220
C         -5.47370       -5.81130        5.34310
C         -5.25200       -6.26080        6.65510
C         -4.12230       -7.03530        7.00260
C         -3.93530       -7.46150        8.28110
C         -4.86880       -7.14010        9.29660
O         -4.56250       -7.63150       10.52240
C         -5.43140       -7.36650       11.60590
C         -4.84930       -8.03800       12.83940
C         -5.97520       -6.38580        8.98830
C         -6.18740       -5.93440        7.67020
C         -7.31170       -5.15580        7.32250
C         -7.50850       -4.73710        6.03840
C         -5.83480       -3.95090        2.92400
S         -4.23360       -3.53520        3.49780
C         -9.17430       -5.48870        3.46520
C        -10.23970       -5.52990        2.57370
S         -9.85730       -4.69600        1.08140
C        -11.43030       -6.19380        2.91820
C        -12.63320       -6.39540        2.27200
C        -12.88750       -5.84300        0.93920
O        -12.07060       -5.16820        0.32780
N        -14.10530       -6.10100        0.35520
C        -14.33760       -5.54440       -0.97390
C        -14.82240       -4.10300       -0.88960
C        -15.14640       -6.81460        0.93400
O        -16.19780       -6.97060        0.35050
C        -14.86100       -7.34780        2.26680
C        -13.67160       -7.15540        2.91030
C        -13.46700       -7.74250        4.27350
C        -15.90980       -8.08630        2.85650
N        -16.75910       -8.68600        3.34100
H         11.63450        6.79090       -2.92800
H         14.75660        8.89020       -0.37330
H         15.05940        8.31920        1.29700
H         17.19430        8.52790        0.01620
H         16.88010        6.84420        0.45050
H         16.57520        7.40810       -1.20290
H         11.70970        3.32770       -1.85970
H         13.14630        2.67990       -1.06380
H         11.64630        2.77400       -0.17480
H         10.17680        5.21880        0.09640
H         10.12670        3.26160        1.05550
H         10.87070        3.37710        3.36730
H         10.32510        3.49240        5.74140
H          9.84130        3.53600        9.38060
H         10.64580        3.84250        7.82870
H          9.26450        1.24100        8.68720
H          9.95540        1.50350        7.08780
H         11.00810        1.48700        8.51160
H          6.28850        4.17510        6.98020
H          5.58340        4.37000        4.61840
H          6.15760        4.31620        2.23700
H          6.70190        5.66300       -4.53940
H          6.38280        6.66880       -6.76120
H          5.81010        6.45980       -9.11170
H          5.84240        5.85410      -11.16720
H          5.00100        4.69640      -12.21550
H          3.62530        6.37280      -10.04720
H          2.83850        5.22850      -11.13330
H          3.57930        6.69680      -11.78660
H          5.20320        2.25520       -8.62490
H          5.56400        1.22390       -6.39830
H          6.17630        1.45180       -4.02990
H          4.28260        2.35720       -2.75290
H          3.30950        1.13840        1.75380
H         -0.19010       -0.37150        4.71300
H          1.47220       -0.39670        6.67370
H          3.87140       -0.22220        7.19040
H          6.11560        0.08420        6.84030
H          5.36730       -1.67730        3.44330
H          7.34650       -1.42100        1.80680
H         11.81570        0.92520        3.29560
H         10.48230        1.17940        4.44680
H         11.67940       -1.54260        3.69350
H         11.98320       -0.68650        5.21010
H         10.36290       -1.29100        4.84550
H         -1.29190       -2.77920       -2.00820
H         -2.60350       -2.39510       -4.20240
H         -2.66320        1.36270       -5.31500
H         -4.08090       -1.34200       -5.55010
H         -3.99210        2.28100       -7.10750
H         -5.87820        2.60170       -8.86190
H         -9.40510       -1.28670       -9.73930
H         -8.37210       -1.49720       -8.30340
H         -7.52550       -1.95690      -11.22220
H         -7.85530       -3.23280      -10.04250
H         -6.46920       -2.16380       -9.82050
H         -2.81550       -1.75800       -0.39020
H         -4.90440       -2.29810        0.15070
H         -5.68230       -4.18080       -1.14980
H         -5.91360       -3.36200       -3.45310
H         -7.16140       -2.03160       -5.13970
H        -10.32720        1.00080       -5.75440
H         -9.71860        0.68820       -7.38830
H        -12.10900        0.02790       -7.20220
H        -11.71180       -1.11760       -5.91290
H        -11.08860       -1.37700       -7.54030
H        -10.81100       -0.11300       -4.00260
H        -10.57510       -0.96120       -1.74130
H         -9.30200       -2.19830       -0.04450
H         -4.76380       -6.08330        4.57530
H         -3.40550       -7.28240        6.23340
H         -3.07830       -8.05330        8.56200
H         -5.51330       -6.28220       11.76490
H         -6.43240       -7.76640       11.39120
H         -5.48790       -7.85260       13.69830
H         -4.77140       -9.10950       12.67630
H         -3.85630       -7.64580       13.04060
H         -6.70490       -6.12050        9.73810
H         -8.01890       -4.88930        8.09540
H         -8.35980       -4.12000        5.78930
H         -9.21230       -5.96690        4.42880
H        -11.35910       -6.63470        3.90540
H        -13.39480       -5.59530       -1.52210
H        -15.08990       -6.17180       -1.45480
H        -14.07180       -3.48340       -0.40440
H        -15.75070       -4.05110       -0.32520
H        -14.99990       -3.71920       -1.89030
H        -13.26660       -6.95960        5.00420
H        -12.62720       -8.43670        4.27030
H        -14.35650       -8.28300        4.58690
