118

C          6.04210       -3.82490       -5.45960
C          7.28330       -3.45380       -5.11270
C          8.39840       -4.27390       -5.63280
O          8.28770       -5.00010       -6.59560
N          9.60970       -4.18750       -4.94780
C         10.76660       -4.85260       -5.54480
C         11.58250       -3.87380       -6.37870
C          9.81410       -3.56610       -3.73590
O         10.89230       -3.55960       -3.19900
C          8.56690       -2.94390       -3.11050
C          8.92960       -1.94680       -2.12960
N          9.17410       -1.13230       -1.36760
C          7.65860       -2.33320       -4.19320
C          8.38240       -1.21530       -4.94760
C          4.77720       -3.26210       -5.01510
C          3.79890       -4.11990       -4.54680
C          2.61460       -3.64980       -3.99050
C          2.32600       -2.29770       -3.90960
C          3.24850       -1.38890       -4.51220
N          2.95020       -0.07940       -4.60190
C          3.81010        0.72090       -5.17170
C          5.02540        0.24190       -5.69280
N          5.34310       -1.02260       -5.63550
C          4.47840       -1.87310       -5.04680
C          1.15340       -1.83460       -3.21570
C          0.86460       -0.56560       -2.80770
C         -0.33400       -0.45130       -2.06790
C         -0.86840        0.70960       -1.46420
C         -0.32080        2.00960       -1.75990
C          0.24500        2.43840       -2.93330
C          0.67270        3.77480       -2.88590
Cl         1.42000        4.58030       -4.20610
C          0.43440        4.39190       -1.68250
S          0.80170        6.05630       -1.32650
C          0.19400        6.21810        0.38890
C          1.16930        5.66080        1.40640
S         -0.33740        3.29610       -0.58150
C         -1.93770        0.51550       -0.59340
C         -2.54420       -0.74820       -0.38650
C         -2.06060       -1.89670       -1.05460
C         -2.65530       -3.19800       -0.85420
S         -2.89020       -4.27940       -2.20480
C         -3.60480       -5.48650       -1.18460
S         -4.14700       -7.04900       -1.72980
C         -4.04630       -6.86770       -3.54480
C         -5.19120       -6.04790       -4.10570
C         -3.63030       -5.05920        0.11960
C         -3.09740       -3.77090        0.30640
Cl        -4.25810       -6.02390        1.39490
C         -0.95720       -1.70810       -1.87890
S         -0.07960       -2.97180       -2.69560
C         -3.62470       -0.66220        0.51710
C         -3.81910        0.59220        1.03500
S         -2.70050        1.75430        0.36970
C         -4.72800        0.97260        2.07480
C         -5.60590        0.08670        2.68700
C         -6.32610        0.44020        3.81860
C         -6.18390        1.67880        4.43050
C         -5.39830        2.66060        3.75780
N         -5.35840        3.92760        4.20650
C         -4.60430        4.78860        3.57380
C         -3.84580        4.41890        2.45090
N         -3.91340        3.20800        1.96600
C         -4.67970        2.30240        2.58560
C         -6.82100        1.95960        5.68340
C         -6.39440        2.80010        6.65760
C         -7.34100        3.26560        7.70790
O         -8.42190        2.79930        7.97530
C         -6.68910        4.45320        8.30630
C         -7.18880        5.33230        9.24510
C         -6.39580        6.40490        9.63880
Cl        -6.98440        7.51780       10.80710
C         -5.12510        6.57280        9.08000
Br        -4.05850        8.04560        9.59650
C         -4.61610        5.68150        8.14410
C         -5.40290        4.60980        7.75670
C         -5.13740        3.50170        6.84450
C         -3.89320        3.08240        6.45760
C         -2.70960        3.81200        6.68980
N         -1.72370        4.38660        6.81330
C         -3.64040        1.86820        5.78720
N         -3.36550        0.88240        5.26730
H          5.96020       -4.71150       -6.07970
H         11.37400       -5.25600       -4.73270
H         10.38610       -5.66380       -6.16720
H         10.97230       -3.45610       -7.17690
H         12.42920       -4.39000       -6.82170
H         11.95670       -3.06670       -5.75270
H          8.03080       -3.74810       -2.58590
H          6.76400       -1.92060       -3.71930
H          8.63050       -0.40480       -4.26530
H          7.73140       -0.83610       -5.72960
H          9.30200       -1.57730       -5.40220
H          3.98330       -5.18420       -4.56280
H          1.90870       -4.35900       -3.58320
H          3.53380        1.76470       -5.23350
H          5.73370        0.90250       -6.17440
H          1.53460        0.25070       -2.99160
H          0.31320        1.84200       -3.82350
H          0.05590        7.29070        0.52390
H         -0.77330        5.71790        0.43600
H          1.32150        4.59530        1.25390
H          2.12890        6.16600        1.32800
H          0.77670        5.81090        2.40980
H         -3.07690       -6.42650       -3.77640
H         -4.07600       -7.89090       -3.91790
H         -6.14490       -6.50530       -3.85330
H         -5.17340       -5.03570       -3.70880
H         -5.10520       -5.99390       -5.18870
H         -3.00030       -3.31650        1.27490
H         -4.23710       -1.50590        0.77330
H         -5.70630       -0.91590        2.30330
H         -6.95760       -0.29920        4.28880
H         -4.60460        5.80190        3.95190
H         -3.20680        5.12030        1.93430
H         -7.77950        1.48270        5.86050
H         -8.17230        5.18950        9.66390
H         -3.63190        5.84540        7.73490
