115

C          2.24050       -3.70220        6.95810
C          1.48610       -4.72550        7.37620
C          0.46140       -5.33130        6.49190
O          0.63070       -5.52790        5.30870
N         -0.67680       -5.83380        7.13170
C         -1.65910       -6.51580        6.29360
C         -1.33640       -7.99940        6.17360
C         -0.94300       -5.74470        8.46980
O         -1.95800       -6.17130        8.96390
C          0.14290       -5.07960        9.31980
C         -0.12740       -3.66040        9.33950
N         -0.33860       -2.53760        9.35060
C          1.54500       -5.35490        8.74040
C          2.63790       -4.82090        9.65620
C          1.97470       -2.92760        5.76150
C          2.98550       -2.35740        5.01630
C          2.71350       -1.58160        3.89370
C          1.42280       -1.30860        3.47260
C          0.34680       -1.83430        4.25210
N         -0.93350       -1.56920        3.93260
C         -1.88360       -2.07260        4.67190
C         -1.60140       -2.86830        5.79660
N         -0.37160       -3.13820        6.13490
C          0.63130       -2.64620        5.38570
C          1.19400       -0.51610        2.29100
C          0.01990       -0.26030        1.64750
C          0.14760        0.58350        0.51930
C         -0.87600        1.01790       -0.34970
C         -2.26210        0.71060       -0.07050
C         -2.88140        0.69790        1.15040
C         -4.24860        0.37290        1.07250
Cl        -5.25300        0.33770        2.46810
C         -4.68350        0.11520       -0.20120
S         -6.27840       -0.30380       -0.78380
C         -6.62280       -1.82210        0.18640
C         -5.60790       -2.91170       -0.09200
S         -3.38160        0.29520       -1.33610
C         -0.47610        1.76400       -1.45250
C          0.87430        2.12240       -1.69730
C          1.89910        1.69320       -0.82280
C          3.28210        2.00740       -1.08860
S          4.38370        2.37380        0.21490
C          5.69350        2.63720       -0.89090
S          7.31980        3.03930       -0.41910
C          7.12410        3.35100        1.37040
C          6.49790        4.70170        1.65470
C          5.27950        2.42860       -2.18360
C          3.92450        2.07430       -2.29630
Cl         6.33390        2.59140       -3.52890
C          1.49510        0.94660        0.27980
S          2.54560        0.27400        1.49280
C          0.99890        2.95490       -2.83000
C         -0.18510        3.20860       -3.46570
S         -1.53550        2.43270       -2.65940
C         -0.38310        3.98430       -4.65280
C         -1.64930        4.22770       -5.16530
C         -1.83920        4.95200       -6.33670
F         -3.10270        5.11680       -6.76260
C         -0.80950        5.45440       -7.12510
C          0.49360        5.26750       -6.59670
C          0.71100        4.53880       -5.37550
N          2.00420        4.49510       -5.05720
S          2.84550        5.30140       -6.16090
N          1.62540        5.75620       -7.09600
C         -1.06430        6.15770       -8.34760
C         -0.29310        6.07730       -9.46310
C          0.68430        4.98950       -9.73390
O          0.96500        4.04250       -9.03560
C          1.14740        5.22090      -11.12010
C          2.06050        4.48630      -11.84840
C          2.33160        4.87330      -13.15570
Cl         3.47040        3.99000      -14.08930
C          1.67360        5.97910      -13.70280
Br         2.03470        6.49890      -15.48410
C          0.75010        6.71510      -12.97160
C          0.48550        6.33450      -11.66530
C         -0.40340        6.90060      -10.65550
C         -1.13540        8.04860      -10.78770
C         -1.91140        8.63720       -9.76470
N         -2.54220        9.19090       -8.98220
C         -1.18820        8.82080      -11.96850
N         -1.27360        9.48250      -12.90200
H          3.07190       -3.35960        7.55790
H         -1.63110       -6.04210        5.31070
H         -2.63880       -6.37370        6.75320
H         -0.35290       -8.13300        5.72920
H         -2.07380       -8.48440        5.54050
H         -1.35500       -8.47000        7.15410
H          0.04240       -5.46290       10.34200
H          1.66130       -6.44190        8.63930
H          2.51430       -3.75320        9.82310
H          2.59360       -5.32650       10.61860
H          3.61770       -5.00370        9.22210
H          4.01370       -2.54100        5.29110
H          3.54050       -1.18280        3.32350
H         -2.89910       -1.83580        4.38450
H         -2.38330       -3.27040        6.42630
H         -0.90500       -0.69630        1.96910
H         -2.40110        0.96510        2.07330
H         -6.65190       -1.55290        1.24030
H         -7.62040       -2.11350       -0.13950
H         -4.61590       -2.60770        0.23760
H         -5.88660       -3.81750        0.44260
H         -5.56700       -3.13240       -1.15630
H          6.53340        2.53280        1.78240
H          8.13890        3.29800        1.76380
H          5.49330        4.75730        1.24250
H          6.43730        4.85690        2.72960
H          7.09830        5.49730        1.22010
H          3.46560        1.83470       -3.23680
H          1.92000        3.39070       -3.16570
H         -2.52040        3.84180       -4.65760
H         -1.96000        6.76700       -8.35790
H          2.55340        3.63330      -11.40960
H          0.26010        7.55650      -13.43450
