216

C          4.95790        0.07190       -7.86570
C          4.78960        0.11990       -9.19770
C          5.83340        0.84710       -9.95100
O          6.87480        1.21700       -9.44850
N          5.56620        1.12080      -11.28910
C          6.66610        1.64190      -12.09790
C          7.41610        0.50700      -12.78300
C          4.34390        0.98840      -11.91310
O          4.19390        1.25430      -13.07840
C          3.21170        0.53990      -10.99770
C          2.08620        0.05180      -11.75700
N          1.17800       -0.36140      -12.31360
C          3.70720       -0.52330      -10.00350
C          4.23490       -1.76690      -10.72520
C          4.11440       -0.40890       -6.79400
C          4.74170       -0.83860       -5.63280
F          6.07930       -0.96790       -5.62040
C          4.05620       -1.09380       -4.44550
F          4.76680       -1.44050       -3.35680
C          2.68630       -0.94000       -4.35210
C          1.99440       -0.57720       -5.54010
N          0.66610       -0.41180       -5.47660
C          0.01890        0.09280       -6.49710
C         -1.46020        0.24420       -6.31730
C         -1.83080        1.67890       -5.93480
C          0.73020        0.47880       -7.66780
N          2.02140        0.26270       -7.76430
C          2.69730       -0.27340       -6.73470
C          0.10290        1.16450       -8.84390
C          0.56170        2.62440       -8.90900
C          2.00630       -0.94900       -3.08060
C          2.37790       -0.20470       -1.96980
N          3.38350        0.74940       -1.97460
C          3.92620        1.20070       -0.76900
C          4.19210        0.30930        0.26750
C          4.63520        0.76520        1.49470
C          4.83000        2.12310        1.70340
S          5.32710        2.83420        3.23880
C          5.50750        1.41280        4.34730
C          4.62590        3.01170        0.64890
C          4.18330        2.55870       -0.57220
C          3.58310        1.49390       -3.15540
C          2.49200        1.94990       -3.89760
C          2.68870        2.57480       -5.10780
C          3.97790        2.76110       -5.60670
S          4.09370        3.46470       -7.22020
C          5.86320        3.79510       -7.45020
C          5.06760        2.37050       -4.83950
C          4.86920        1.74720       -3.62050
C          1.45010       -0.38970       -0.91950
S          1.29100        0.27380        0.66260
C         -0.32780       -0.38620        0.79920
C         -0.67550       -1.15310       -0.29740
N         -1.95770       -1.70350       -0.47750
C         -2.94120       -0.80260       -0.92110
C         -2.64820        0.09790       -1.94060
C         -3.58620        1.02060       -2.36310
C         -4.83480        1.06580       -1.76090
S         -6.09730        2.22470       -2.19180
C         -5.41390        3.09690       -3.63020
C         -5.13190        0.16810       -0.73650
C         -4.19890       -0.75430       -0.31920
C         -2.21800       -3.02240       -0.13810
C         -1.32990       -3.72970        0.67280
C         -1.59280       -5.03230        1.04500
C         -2.73430       -5.66810        0.58370
S         -3.17690       -7.32020        1.05740
C         -1.57150       -8.08810        1.41540
C         -3.59840       -4.98850       -0.26800
C         -3.34980       -3.68180       -0.62150
C          0.35130       -1.16520       -1.26580
S          0.46970       -1.75850       -2.88510
C         -1.08320       -0.13750        1.98090
C         -0.94340        0.94350        2.84050
N         -0.14870        2.06090        2.58500
C          0.77010        2.45840        3.56010
C          1.30020        1.51230        4.43890
C          2.19830        1.88890        5.41200
C          2.61160        3.21370        5.51600
S          3.78810        3.58990        6.77950
C          4.51970        5.15050        6.20970
C          2.07820        4.16160        4.65370
C          1.15930        3.78860        3.69330
C         -0.25300        2.67450        1.33300
C          0.85340        3.24460        0.70200
C          0.76250        3.71240       -0.59400
C         -0.43940        3.63190       -1.28240
S         -0.63040        4.09320       -2.98040
C          0.78710        5.18380       -3.29040
C         -1.56160        3.12010       -0.63790
C         -1.47050        2.64490        0.65020
C         -1.74630        0.78240        3.99240
S         -1.95720        1.67650        5.45630
C         -3.13540        0.49710        6.02950
C         -3.28230       -0.56950        5.15300
N         -3.98200       -1.73530        5.40800
C         -4.00720       -2.29410        6.69540
C         -2.91680       -2.16300        7.55080
C         -2.98020       -2.61800        8.85170
C         -4.13780       -3.22410        9.32120
S         -4.33700       -3.78270       10.98330
C         -3.03040       -2.89000       11.87720
C         -5.20680       -3.42100        8.45020
C         -5.14490       -2.96080        7.15340
C         -4.58980       -2.40520        4.32790
C         -5.31880       -1.68200        3.38410
C         -5.95630       -2.33690        2.35460
C         -5.86910       -3.72260        2.23600
S         -6.74810       -4.45310        0.89700
C         -6.79030       -6.21640        1.32300
C         -5.11680       -4.44170        3.15610
C         -4.48910       -3.78620        4.19690
C         -2.50620       -0.37690        3.98450
S         -2.26740       -1.30170        2.54600
C         -3.71270        0.66180        7.32970
C         -4.99120        0.41020        7.68880
C         -5.23490        0.33470        9.13880
O         -4.46540        0.77170        9.96910
N         -6.33710       -0.41670        9.53420
C         -6.40450       -0.85450       10.92640
C         -7.38770       -0.00460       11.71890
C         -7.34520       -0.83850        8.70130
O         -8.13060       -1.69530        9.01590
C         -7.44950       -0.03000        7.41260
C         -8.36190       -0.66600        6.48910
N         -9.03680       -1.16980        5.71810
C         -6.10270        0.18930        6.70350
C         -6.22760        1.39070        5.75750
H          5.90260        0.47750       -7.51330
H          7.33050        2.19060      -11.42830
H          6.24030        2.31810      -12.84100
H          8.23400        0.91240      -13.37150
H          6.74870       -0.03910      -13.44610
H          7.82550       -0.17730      -12.04270
H          2.87540        1.41890      -10.43030
H          2.88100       -0.81140       -9.35220
H          5.07670       -1.52800      -11.37230
H          3.44650       -2.20490      -11.33400
H          4.56210       -2.50520       -9.99650
H         -1.98340       -0.04460       -7.23040
H         -1.76230       -0.42740       -5.51240
H         -2.90470        1.75140       -5.78230
H         -1.55060        2.38070       -6.71560
H         -1.32830        1.96880       -5.01490
H         -0.98310        1.12040       -8.78950
H          0.42080        0.65100       -9.75350
H          0.15010        3.19630       -8.07990
H          1.64620        2.68450       -8.84700
H          0.23140        3.07970       -9.83890
H          4.05400       -0.74910        0.10730
H          4.82150        0.04850        2.27760
H          6.31020        0.77040        3.99710
H          4.56340        0.87990        4.40980
H          5.75810        1.82690        5.31920
H          4.80500        4.06440        0.80820
H          4.01880        3.25670       -1.37950
H          1.48910        1.79480       -3.52670
H          1.84510        2.91670       -5.68840
H          6.41080        2.86830       -7.59490
H          6.24260        4.35960       -6.60400
H          5.92960        4.39690       -8.35160
H          6.07600        2.51840       -5.19090
H          5.71750        1.42260       -3.03660
H         -1.68150        0.08080       -2.41910
H         -3.32180        1.69590       -3.16040
H         -6.18610        3.79370       -3.94090
H         -5.21480        2.38800       -4.42860
H         -4.51590        3.64260       -3.35400
H         -6.10330        0.21130       -0.26800
H         -4.43210       -1.43940        0.48130
H         -0.43090       -3.24950        1.03030
H         -0.90070       -5.53890        1.69950
H         -1.20010       -7.75610        2.38100
H         -0.87350       -7.84260        0.62080
H         -1.75010       -9.15860        1.44010
H         -4.46770       -5.49390       -0.65780
H         -4.02900       -3.17150       -1.28600
H          1.01370        0.47520        4.34470
H          2.59870        1.15790        6.09840
H          4.80540        5.04880        5.16690
H          5.40020        5.30630        6.82530
H          3.82270        5.97090        6.35480
H          2.36250        5.19870        4.72850
H          0.73170        4.53850        3.04520
H          1.80660        3.27390        1.20750
H          1.64710        4.11200       -1.06310
H          1.70520        4.60490       -3.34550
H          0.59550        5.65420       -4.24990
H          0.83820        5.93750       -2.51050
H         -2.50520        3.08610       -1.15770
H         -2.34790        2.23460        1.12700
H         -2.01060       -1.69460        7.19740
H         -2.11930       -2.49550        9.48840
H         -3.26090       -3.00950       12.93120
H         -2.05910       -3.32730       11.66420
H         -3.05610       -1.83860       11.60620
H         -6.09800       -3.91410        8.80630
H         -5.98990       -3.10300        6.49500
H         -5.39950       -0.60850        3.47390
H         -6.55340       -1.78650        1.64410
H         -7.45670       -6.67610        0.59970
H         -5.79900       -6.65340        1.23950
H         -7.19210       -6.33540        2.32460
H         -5.00910       -5.51040        3.06930
H         -3.91540       -4.34820        4.91900
H         -3.04450        1.00300        8.11310
H         -6.71360       -1.90150       10.93060
H         -5.40170       -0.75930       11.34290
H         -7.40730       -0.34060       12.75160
H         -7.08740        1.04080       11.69690
H         -8.38870       -0.09900       11.30430
H         -7.87410        0.94150        7.70440
H         -5.89710       -0.69650        6.09560
H         -6.40680        2.30430        6.32140
H         -5.31540        1.52200        5.18240
H         -7.05490        1.23490        5.06780
