152

C          0.46680        0.48890        7.04410
C          1.27300        0.10240        8.03860
C          2.12640       -1.10130        7.93150
O          1.82580       -2.07930        7.28690
N          3.30580       -1.07270        8.67100
C          4.18530       -2.23470        8.55560
C          5.17480       -2.05390        7.41250
C          3.76750       -0.01920        9.42640
O          4.84140       -0.05350        9.97260
C          2.84750        1.20050        9.51180
C          3.06850        1.90050       10.75680
N          3.19530        2.45990       11.74410
C          1.36170        0.83140        9.34620
C          0.85620       -0.02120       10.51130
C          0.43280       -0.07800        5.70530
C          1.56560       -0.33310        4.95800
F          2.78210       -0.08450        5.49060
C          1.53140       -0.72840        3.62550
C          0.32340       -0.88780        2.97650
C         -0.87160       -0.75820        3.73090
N         -2.05800       -1.07450        3.16450
C         -3.13500       -0.91130        3.86750
C         -3.08610       -0.38880        5.19390
O         -4.23850       -0.21270        5.83440
C         -4.16740        0.26530        7.17620
C         -3.87490        1.75760        7.23940
N         -1.94620       -0.11750        5.77900
C         -0.81290       -0.31660        5.07470
C          0.25920       -1.08020        1.54560
C         -0.52530       -0.38290        0.64540
N         -1.43900        0.62430        0.91340
C         -1.29640        1.49570        1.98620
C         -2.41660        1.97250        2.66800
C         -2.27640        2.73910        3.80630
C         -1.01140        3.05610        4.28090
S         -0.74840        3.91740        5.80690
C         -2.17110        5.05020        5.87390
C          0.10980        2.64910        3.56570
C         -0.02980        1.89140        2.42420
C         -2.61750        0.61500        0.13680
C         -3.28240       -0.58840       -0.09630
C         -4.39670       -0.61600       -0.90280
C         -4.87490        0.55510       -1.49100
S         -6.30220        0.38590       -2.51000
C         -6.72670        2.08370       -2.98440
C         -4.22210        1.75700       -1.24690
C         -3.10170        1.78430       -0.43740
C         -0.24910       -0.79810       -0.68090
S         -0.85590       -0.32340       -2.22140
C          0.22830       -1.45640       -3.02630
C          0.98030       -2.20150       -2.12040
N          1.84770       -3.24030       -2.41410
C          1.53420       -4.21370       -3.36610
C          0.20950       -4.51220       -3.69070
C         -0.07600       -5.43420       -4.67160
C          0.94820       -6.09210       -5.35080
S          0.45490       -7.22340       -6.61280
C          2.01780       -7.93720       -7.19910
C          2.26810       -5.81710       -5.01640
C          2.55530       -4.88550       -4.03780
C          2.97420       -3.39800       -1.58640
C          3.73100       -2.28510       -1.23180
C          4.81820       -2.40970       -0.38890
C          5.16950       -3.65670        0.10970
S          6.53270       -3.93890        1.19280
C          6.98510       -2.27360        1.75760
C          4.42550       -4.77650       -0.26030
C          3.33820       -4.65120       -1.09410
C          0.72090       -1.77910       -0.79060
S          1.36010       -2.19810        0.76210
C          0.19890       -1.44370       -4.44660
C          1.02980       -2.02610       -5.38200
C          0.65210       -1.75230       -6.70390
O          1.25440       -2.19940       -7.82410
C          2.30230       -3.12990       -7.67600
C         -0.46180       -0.91310       -6.81320
S         -1.04460       -0.51140       -5.21970
C         -0.98620       -0.44760       -8.03800
C         -1.97960        0.44520       -8.28460
C         -2.21050        0.79330       -9.68520
O         -1.59540        0.30120      -10.61000
N         -3.16250        1.79400       -9.94340
C         -3.14320        2.39590      -11.27370
C         -2.20060        3.59180      -11.31330
C         -4.10350        2.25460       -9.06320
O         -4.84850        3.16660       -9.32660
C         -4.16730        1.46380       -7.75760
C         -4.94040        2.16200       -6.76050
N         -5.51810        2.70180       -5.93560
C         -2.75210        1.17910       -7.22930
C         -2.03390        2.47860       -6.84900
H         -0.22030        1.31030        7.20300
H          4.71320       -2.34510        9.50440
H          3.54890       -3.10270        8.37540
H          5.82430       -1.20420        7.60930
H          4.64080       -1.88490        6.48060
H          5.78550       -2.94660        7.31160
H          3.14690        1.87220        8.69420
H          0.76890        1.75080        9.29660
H          0.93710        0.53210       11.44460
H          1.42860       -0.94170       10.60610
H         -0.18720       -0.28170       10.34900
H          2.46130       -0.84620        3.09010
H         -4.07890       -1.18860        3.42120
H         -5.14930        0.04190        7.59900
H         -3.39270       -0.29250        7.71180
H         -3.89410        2.08870        8.27390
H         -2.89120        1.95560        6.82180
H         -4.62670        2.30760        6.67720
H         -3.40360        1.70180        2.32390
H         -3.16050        3.06460        4.33200
H         -3.06330        4.52480        6.20110
H         -1.91050        5.81500        6.59860
H         -2.31520        5.49620        4.89500
H          1.09050        2.93160        3.91640
H          0.84500        1.59310        1.86720
H         -2.91740       -1.49050        0.37120
H         -4.91650       -1.54350       -1.08790
H         -5.96910        2.48980       -3.64780
H         -6.86000        2.69170       -2.09460
H         -7.66660        2.00540       -3.52190
H         -4.56610        2.67500       -1.69510
H         -2.58990        2.71820       -0.25600
H         -0.59590       -4.02160       -3.16680
H         -1.10060       -5.65940       -4.92400
H          2.63720       -7.16730       -7.65050
H          1.73740       -8.66880       -7.95050
H          2.53180       -8.43010       -6.37920
H          3.08570       -6.31080       -5.51660
H          3.58570       -4.66640       -3.79900
H          3.46200       -1.31350       -1.62060
H          5.38460       -1.52830       -0.13540
H          6.10820       -1.77420        2.15810
H          7.71820       -2.42070        2.54460
H          7.42940       -1.70530        0.94550
H          4.70430       -5.74270        0.13060
H          2.75310       -5.51950       -1.35690
H          1.89340       -2.60350       -5.11830
H          1.97300       -4.01180       -7.11800
H          2.58340       -3.41750       -8.68750
H          3.16560       -2.68400       -7.17190
H         -0.48660       -0.85860       -8.90850
H         -2.81300        1.62500      -11.97190
H         -4.16180        2.70730      -11.51090
H         -1.19020        3.28320      -11.05310
H         -2.53290        4.35600      -10.61400
H         -2.18890        4.01630      -12.31310
H         -4.67600        0.51470       -7.97700
H         -2.84610        0.55620       -6.33470
H         -2.59140        3.00920       -6.08050
H         -1.93010        3.12980       -7.71500
H         -1.04240        2.25220       -6.46520
