
  xtb     02032219073D
 energy: -221.724966793148 gnorm: 0.000261320812 xtb: 6.4.1 (unknown)
118129  0     0  0            999 V2000
    6.0421   -3.8249   -5.4596 C   0  0  0  0  0  0  0  0  0  0  0  0
    7.2833   -3.4538   -5.1127 C   0  0  0  0  0  0  0  0  0  0  0  0
    8.3984   -4.2739   -5.6328 C   0  0  0  0  0  0  0  0  0  0  0  0
    8.2877   -5.0001   -6.5956 O   0  0  0  0  0  0  0  0  0  0  0  0
    9.6097   -4.1875   -4.9478 N   0  0  0  0  0  0  0  0  0  0  0  0
   10.7666   -4.8526   -5.5448 C   0  0  0  0  0  0  0  0  0  0  0  0
   11.5825   -3.8738   -6.3787 C   0  0  0  0  0  0  0  0  0  0  0  0
    9.8141   -3.5661   -3.7359 C   0  0  0  0  0  0  0  0  0  0  0  0
   10.8923   -3.5596   -3.1990 O   0  0  0  0  0  0  0  0  0  0  0  0
    8.5669   -2.9439   -3.1105 C   0  0  0  0  0  0  0  0  0  0  0  0
    8.9296   -1.9468   -2.1296 C   0  0  0  0  0  0  0  0  0  0  0  0
    9.1741   -1.1323   -1.3676 N   0  0  0  0  0  0  0  0  0  0  0  0
    7.6586   -2.3332   -4.1932 C   0  0  0  0  0  0  0  0  0  0  0  0
    8.3824   -1.2153   -4.9476 C   0  0  0  0  0  0  0  0  0  0  0  0
    4.7772   -3.2621   -5.0151 C   0  0  0  0  0  0  0  0  0  0  0  0
    3.7989   -4.1199   -4.5468 C   0  0  0  0  0  0  0  0  0  0  0  0
    2.6146   -3.6498   -3.9905 C   0  0  0  0  0  0  0  0  0  0  0  0
    2.3260   -2.2977   -3.9096 C   0  0  0  0  0  0  0  0  0  0  0  0
    3.2485   -1.3889   -4.5122 C   0  0  0  0  0  0  0  0  0  0  0  0
    2.9502   -0.0794   -4.6019 N   0  0  0  0  0  0  0  0  0  0  0  0
    3.8101    0.7209   -5.1717 C   0  0  0  0  0  0  0  0  0  0  0  0
    5.0254    0.2419   -5.6928 C   0  0  0  0  0  0  0  0  0  0  0  0
    5.3431   -1.0226   -5.6355 N   0  0  0  0  0  0  0  0  0  0  0  0
    4.4784   -1.8731   -5.0468 C   0  0  0  0  0  0  0  0  0  0  0  0
    1.1534   -1.8346   -3.2157 C   0  0  0  0  0  0  0  0  0  0  0  0
    0.8646   -0.5656   -2.8077 C   0  0  0  0  0  0  0  0  0  0  0  0
   -0.3340   -0.4513   -2.0679 C   0  0  0  0  0  0  0  0  0  0  0  0
   -0.8684    0.7096   -1.4642 C   0  0  0  0  0  0  0  0  0  0  0  0
   -0.3208    2.0096   -1.7599 C   0  0  0  0  0  0  0  0  0  0  0  0
    0.2450    2.4384   -2.9333 C   0  0  0  0  0  0  0  0  0  0  0  0
    0.6727    3.7748   -2.8859 C   0  0  0  0  0  0  0  0  0  0  0  0
    1.4200    4.5803   -4.2061 Cl  0  0  0  0  0  0  0  0  0  0  0  0
    0.4344    4.3919   -1.6825 C   0  0  0  0  0  0  0  0  0  0  0  0
    0.8017    6.0563   -1.3265 S   0  0  0  0  0  0  0  0  0  0  0  0
    0.1940    6.2181    0.3889 C   0  0  0  0  0  0  0  0  0  0  0  0
    1.1693    5.6608    1.4064 C   0  0  0  0  0  0  0  0  0  0  0  0
   -0.3374    3.2961   -0.5815 S   0  0  0  0  0  0  0  0  0  0  0  0
   -1.9377    0.5155   -0.5934 C   0  0  0  0  0  0  0  0  0  0  0  0
   -2.5442   -0.7482   -0.3865 C   0  0  0  0  0  0  0  0  0  0  0  0
   -2.0606   -1.8967   -1.0546 C   0  0  0  0  0  0  0  0  0  0  0  0
   -2.6553   -3.1980   -0.8542 C   0  0  0  0  0  0  0  0  0  0  0  0
   -2.8902   -4.2794   -2.2048 S   0  0  0  0  0  0  0  0  0  0  0  0
   -3.6048   -5.4865   -1.1846 C   0  0  0  0  0  0  0  0  0  0  0  0
   -4.1470   -7.0490   -1.7298 S   0  0  0  0  0  0  0  0  0  0  0  0
   -4.0463   -6.8677   -3.5448 C   0  0  0  0  0  0  0  0  0  0  0  0
   -5.1912   -6.0479   -4.1057 C   0  0  0  0  0  0  0  0  0  0  0  0
   -3.6303   -5.0592    0.1196 C   0  0  0  0  0  0  0  0  0  0  0  0
   -3.0974   -3.7709    0.3064 C   0  0  0  0  0  0  0  0  0  0  0  0
   -4.2581   -6.0239    1.3949 Cl  0  0  0  0  0  0  0  0  0  0  0  0
   -0.9572   -1.7081   -1.8789 C   0  0  0  0  0  0  0  0  0  0  0  0
   -0.0796   -2.9718   -2.6956 S   0  0  0  0  0  0  0  0  0  0  0  0
   -3.6247   -0.6622    0.5171 C   0  0  0  0  0  0  0  0  0  0  0  0
   -3.8191    0.5922    1.0350 C   0  0  0  0  0  0  0  0  0  0  0  0
   -2.7005    1.7543    0.3697 S   0  0  0  0  0  0  0  0  0  0  0  0
   -4.7280    0.9726    2.0748 C   0  0  0  0  0  0  0  0  0  0  0  0
   -5.6059    0.0867    2.6870 C   0  0  0  0  0  0  0  0  0  0  0  0
   -6.3261    0.4402    3.8186 C   0  0  0  0  0  0  0  0  0  0  0  0
   -6.1839    1.6788    4.4305 C   0  0  0  0  0  0  0  0  0  0  0  0
   -5.3983    2.6606    3.7578 C   0  0  0  0  0  0  0  0  0  0  0  0
   -5.3584    3.9276    4.2065 N   0  0  0  0  0  0  0  0  0  0  0  0
   -4.6043    4.7886    3.5738 C   0  0  0  0  0  0  0  0  0  0  0  0
   -3.8458    4.4189    2.4509 C   0  0  0  0  0  0  0  0  0  0  0  0
   -3.9134    3.2080    1.9660 N   0  0  0  0  0  0  0  0  0  0  0  0
   -4.6797    2.3024    2.5856 C   0  0  0  0  0  0  0  0  0  0  0  0
   -6.8210    1.9596    5.6834 C   0  0  0  0  0  0  0  0  0  0  0  0
   -6.3944    2.8001    6.6576 C   0  0  0  0  0  0  0  0  0  0  0  0
   -7.3410    3.2656    7.7079 C   0  0  0  0  0  0  0  0  0  0  0  0
   -8.4219    2.7993    7.9753 O   0  0  0  0  0  0  0  0  0  0  0  0
   -6.6891    4.4532    8.3063 C   0  0  0  0  0  0  0  0  0  0  0  0
   -7.1888    5.3323    9.2451 C   0  0  0  0  0  0  0  0  0  0  0  0
   -6.3958    6.4049    9.6388 C   0  0  0  0  0  0  0  0  0  0  0  0
   -6.9844    7.5178   10.8071 Cl  0  0  0  0  0  0  0  0  0  0  0  0
   -5.1251    6.5728    9.0800 C   0  0  0  0  0  0  0  0  0  0  0  0
   -4.0585    8.0456    9.5965 Br  0  0  0  0  0  0  0  0  0  0  0  0
   -4.6161    5.6815    8.1441 C   0  0  0  0  0  0  0  0  0  0  0  0
   -5.4029    4.6098    7.7567 C   0  0  0  0  0  0  0  0  0  0  0  0
   -5.1374    3.5017    6.8445 C   0  0  0  0  0  0  0  0  0  0  0  0
   -3.8932    3.0824    6.4576 C   0  0  0  0  0  0  0  0  0  0  0  0
   -2.7096    3.8120    6.6898 C   0  0  0  0  0  0  0  0  0  0  0  0
   -1.7237    4.3866    6.8133 N   0  0  0  0  0  0  0  0  0  0  0  0
   -3.6404    1.8682    5.7872 C   0  0  0  0  0  0  0  0  0  0  0  0
   -3.3655    0.8824    5.2673 N   0  0  0  0  0  0  0  0  0  0  0  0
    5.9602   -4.7115   -6.0797 H   0  0  0  0  0  0  0  0  0  0  0  0
   11.3740   -5.2560   -4.7327 H   0  0  0  0  0  0  0  0  0  0  0  0
   10.3861   -5.6638   -6.1672 H   0  0  0  0  0  0  0  0  0  0  0  0
   10.9723   -3.4561   -7.1769 H   0  0  0  0  0  0  0  0  0  0  0  0
   12.4292   -4.3900   -6.8217 H   0  0  0  0  0  0  0  0  0  0  0  0
   11.9567   -3.0667   -5.7527 H   0  0  0  0  0  0  0  0  0  0  0  0
    8.0308   -3.7481   -2.5859 H   0  0  0  0  0  0  0  0  0  0  0  0
    6.7640   -1.9206   -3.7193 H   0  0  0  0  0  0  0  0  0  0  0  0
    8.6305   -0.4048   -4.2653 H   0  0  0  0  0  0  0  0  0  0  0  0
    7.7314   -0.8361   -5.7296 H   0  0  0  0  0  0  0  0  0  0  0  0
    9.3020   -1.5773   -5.4022 H   0  0  0  0  0  0  0  0  0  0  0  0
    3.9833   -5.1842   -4.5628 H   0  0  0  0  0  0  0  0  0  0  0  0
    1.9087   -4.3590   -3.5832 H   0  0  0  0  0  0  0  0  0  0  0  0
    3.5338    1.7647   -5.2335 H   0  0  0  0  0  0  0  0  0  0  0  0
    5.7337    0.9025   -6.1744 H   0  0  0  0  0  0  0  0  0  0  0  0
    1.5346    0.2507   -2.9916 H   0  0  0  0  0  0  0  0  0  0  0  0
    0.3132    1.8420   -3.8235 H   0  0  0  0  0  0  0  0  0  0  0  0
    0.0559    7.2907    0.5239 H   0  0  0  0  0  0  0  0  0  0  0  0
   -0.7733    5.7179    0.4360 H   0  0  0  0  0  0  0  0  0  0  0  0
    1.3215    4.5953    1.2539 H   0  0  0  0  0  0  0  0  0  0  0  0
    2.1289    6.1660    1.3280 H   0  0  0  0  0  0  0  0  0  0  0  0
    0.7767    5.8109    2.4098 H   0  0  0  0  0  0  0  0  0  0  0  0
   -3.0769   -6.4265   -3.7764 H   0  0  0  0  0  0  0  0  0  0  0  0
   -4.0760   -7.8909   -3.9179 H   0  0  0  0  0  0  0  0  0  0  0  0
   -6.1449   -6.5053   -3.8533 H   0  0  0  0  0  0  0  0  0  0  0  0
   -5.1734   -5.0357   -3.7088 H   0  0  0  0  0  0  0  0  0  0  0  0
   -5.1052   -5.9939   -5.1887 H   0  0  0  0  0  0  0  0  0  0  0  0
   -3.0003   -3.3165    1.2749 H   0  0  0  0  0  0  0  0  0  0  0  0
   -4.2371   -1.5059    0.7733 H   0  0  0  0  0  0  0  0  0  0  0  0
   -5.7063   -0.9159    2.3033 H   0  0  0  0  0  0  0  0  0  0  0  0
   -6.9576   -0.2992    4.2888 H   0  0  0  0  0  0  0  0  0  0  0  0
   -4.6046    5.8019    3.9519 H   0  0  0  0  0  0  0  0  0  0  0  0
   -3.2068    5.1203    1.9343 H   0  0  0  0  0  0  0  0  0  0  0  0
   -7.7795    1.4827    5.8605 H   0  0  0  0  0  0  0  0  0  0  0  0
   -8.1723    5.1895    9.6639 H   0  0  0  0  0  0  0  0  0  0  0  0
   -3.6319    5.8454    7.7349 H   0  0  0  0  0  0  0  0  0  0  0  0
  1  2  2  0  0  0  0
  2  3  1  0  0  0  0
  3  4  2  0  0  0  0
  3  5  1  0  0  0  0
  5  6  1  0  0  0  0
  6  7  1  0  0  0  0
  5  8  1  0  0  0  0
  8  9  2  0  0  0  0
  8 10  1  0  0  0  0
 10 11  1  0  0  0  0
 11 12  3  0  0  0  0
 10 13  1  0  0  0  0
 13 14  1  0  0  0  0
  1 15  1  0  0  0  0
 15 16  2  0  0  0  0
 16 17  1  0  0  0  0
 17 18  2  0  0  0  0
 18 19  1  0  0  0  0
 19 20  2  0  0  0  0
 20 21  1  0  0  0  0
 21 22  2  0  0  0  0
 22 23  1  0  0  0  0
 23 24  2  0  0  0  0
 18 25  1  0  0  0  0
 25 26  2  0  0  0  0
 26 27  1  0  0  0  0
 27 28  2  0  0  0  0
 28 29  1  0  0  0  0
 29 30  2  0  0  0  0
 30 31  1  0  0  0  0
 31 32  1  0  0  0  0
 31 33  2  0  0  0  0
 33 34  1  0  0  0  0
 34 35  1  0  0  0  0
 35 36  1  0  0  0  0
 33 37  1  0  0  0  0
 28 38  1  0  0  0  0
 38 39  2  0  0  0  0
 39 40  1  0  0  0  0
 40 41  1  0  0  0  0
 41 42  1  0  0  0  0
 42 43  1  0  0  0  0
 43 44  1  0  0  0  0
 44 45  1  0  0  0  0
 45 46  1  0  0  0  0
 43 47  2  0  0  0  0
 47 48  1  0  0  0  0
 47 49  1  0  0  0  0
 40 50  2  0  0  0  0
 50 51  1  0  0  0  0
 39 52  1  0  0  0  0
 52 53  2  0  0  0  0
 53 54  1  0  0  0  0
 53 55  1  0  0  0  0
 55 56  2  0  0  0  0
 56 57  1  0  0  0  0
 57 58  2  0  0  0  0
 58 59  1  0  0  0  0
 59 60  2  0  0  0  0
 60 61  1  0  0  0  0
 61 62  2  0  0  0  0
 62 63  1  0  0  0  0
 63 64  2  0  0  0  0
 58 65  1  0  0  0  0
 65 66  2  0  0  0  0
 66 67  1  0  0  0  0
 67 68  2  0  0  0  0
 67 69  1  0  0  0  0
 69 70  2  0  0  0  0
 70 71  1  0  0  0  0
 71 72  1  0  0  0  0
 71 73  2  0  0  0  0
 73 74  1  0  0  0  0
 73 75  1  0  0  0  0
 75 76  2  0  0  0  0
 76 77  1  0  0  0  0
 77 78  2  0  0  0  0
 78 79  1  0  0  0  0
 79 80  3  0  0  0  0
 78 81  1  0  0  0  0
 81 82  3  0  0  0  0
 13  2  1  0  0  0  0
 24 15  1  0  0  0  0
 51 25  1  0  0  0  0
 64 55  1  0  0  0  0
 77 66  1  0  0  0  0
 24 19  1  0  0  0  0
 50 27  1  0  0  0  0
 64 59  1  0  0  0  0
 76 69  1  0  0  0  0
 37 29  1  0  0  0  0
 54 38  1  0  0  0  0
 48 41  2  0  0  0  0
  1 83  1  0  0  0  0
  6 84  1  0  0  0  0
  6 85  1  0  0  0  0
  7 86  1  0  0  0  0
  7 87  1  0  0  0  0
  7 88  1  0  0  0  0
 10 89  1  0  0  0  0
 13 90  1  0  0  0  0
 14 91  1  0  0  0  0
 14 92  1  0  0  0  0
 14 93  1  0  0  0  0
 16 94  1  0  0  0  0
 17 95  1  0  0  0  0
 21 96  1  0  0  0  0
 22 97  1  0  0  0  0
 26 98  1  0  0  0  0
 30 99  1  0  0  0  0
 35100  1  0  0  0  0
 35101  1  0  0  0  0
 36102  1  0  0  0  0
 36103  1  0  0  0  0
 36104  1  0  0  0  0
 45105  1  0  0  0  0
 45106  1  0  0  0  0
 46107  1  0  0  0  0
 46108  1  0  0  0  0
 46109  1  0  0  0  0
 48110  1  0  0  0  0
 52111  1  0  0  0  0
 56112  1  0  0  0  0
 57113  1  0  0  0  0
 61114  1  0  0  0  0
 62115  1  0  0  0  0
 65116  1  0  0  0  0
 70117  1  0  0  0  0
 75118  1  0  0  0  0
M  END
