128

C          8.74400        4.67530        0.63020
C          9.21830        4.64490        1.88060
C          8.29270        4.49140        3.02420
O          7.21410        3.95180        2.94760
N          8.75370        4.94090        4.26830
C          7.90820        4.65290        5.42510
C          8.20690        3.27050        5.98990
C          9.92840        5.60530        4.49650
O         10.29660        5.92850        5.59840
C         10.74680        5.91960        3.24400
C         10.18170        7.10350        2.64110
N          9.70700        8.02480        2.15980
C         10.67520        4.73800        2.25880
C         11.63220        4.94000        1.09120
C          7.32110        4.73760        0.29120
C          6.75430        3.73050       -0.47650
C          5.39390        3.79110       -0.73410
N          4.58500        2.88450       -1.37160
C          5.00990        1.67250       -2.01810
C          5.26460        1.89070       -3.50910
C          3.29960        3.36980       -1.36410
C          3.27050        4.62540       -0.71020
C          4.61470        4.88960       -0.29150
C          5.21190        5.91450        0.43250
C          6.55270        5.82360        0.73260
C          2.06380        5.30430       -0.58260
C          0.91160        4.71800       -1.05840
C          0.93520        3.45190       -1.66070
C          2.14070        2.77960       -1.83590
C         -0.30320        2.76010       -2.03350
C         -0.41220        2.00250       -3.17960
F          0.57040        2.01490       -4.10480
C         -1.51650        1.17520       -3.43620
F         -1.49480        0.45720       -4.57820
C         -2.57920        1.06820       -2.56740
C         -2.54470        1.90680       -1.41960
N         -3.56520        1.86990       -0.54640
C         -3.53500        2.61580        0.52920
C         -4.74750        2.52710        1.40950
C         -5.96320        3.13470        0.70730
C         -2.40440        3.43670        0.80210
N         -1.39080        3.46460       -0.02560
C         -1.42200        2.73590       -1.15450
C         -2.27290        4.31470        2.01110
C         -3.06780        5.61090        1.84270
C         -3.63140        0.05830       -2.73000
C         -3.24620       -1.24500       -3.02080
C         -4.21770       -2.23120       -3.03990
N         -4.08410       -3.57890       -3.25840
C         -2.85090       -4.28790       -3.47630
C         -2.28050       -4.83740       -2.16960
C         -5.30380       -4.17150       -3.05190
C         -6.27140       -3.17810       -2.75910
C         -5.57440       -1.92750       -2.76150
C         -5.94860       -0.60990       -2.51870
C         -4.97980        0.36870       -2.50500
C         -7.58730       -3.55530       -2.50880
C         -7.90640       -4.89410       -2.51220
C         -6.93050       -5.88060       -2.74640
C         -5.62830       -5.51720       -3.06390
C         -7.33700       -7.27410       -2.65130
C         -6.76210       -8.27490       -1.96070
C         -5.59710       -8.09970       -1.07860
O         -4.71900       -7.27960       -1.22860
N         -5.52200       -8.96670        0.02290
C         -4.33160       -8.84700        0.86290
C         -3.18020       -9.67360        0.30550
C         -6.43460       -9.92530        0.37570
O         -6.26590      -10.67390        1.30640
C         -7.70070       -9.97430       -0.47660
C         -8.61860       -8.99530        0.05670
N         -9.33390       -8.19960        0.45770
C         -7.38330       -9.64860       -1.94250
C         -6.45320      -10.69990       -2.55010
H          9.42980        4.67380       -0.20670
H          6.87120        4.70930        5.08970
H          8.10470        5.42310        6.17240
H          7.56670        3.08060        6.84650
H          9.24470        3.20840        6.30990
H          8.01670        2.50880        5.23720
H         11.77410        6.13570        3.55670
H         10.96590        3.82880        2.80290
H         11.59200        4.09030        0.41430
H         12.65190        5.02890        1.46080
H         11.38400        5.84620        0.54250
H          7.36090        2.90210       -0.81140
H          5.91950        1.31920       -1.52640
H          4.23480        0.91310       -1.87980
H          6.03420        2.64570       -3.65270
H          5.59010        0.96430       -3.97480
H          4.35440        2.22770       -3.99940
H          4.62920        6.75830        0.76900
H          7.03710        6.60080        1.30560
H          2.03130        6.27280       -0.10700
H         -0.03210        5.22870       -0.96420
H          2.16150        1.80230       -2.29180
H         -4.94960        1.47080        1.59840
H         -4.57670        3.02700        2.36150
H         -6.15320        2.60300       -0.22070
H         -6.84200        3.05700        1.34270
H         -5.79360        4.18450        0.47610
H         -1.21490        4.55550        2.12340
H         -2.60770        3.78500        2.90460
H         -2.73250        6.14090        0.95430
H         -2.91770        6.25440        2.70610
H         -4.13140        5.40930        1.74370
H         -2.20600       -1.48310       -3.18020
H         -3.04220       -5.10870       -4.17380
H         -2.14090       -3.60310       -3.94630
H         -1.34380       -5.35490       -2.35960
H         -2.09660       -4.02520       -1.46970
H         -2.98300       -5.53380       -1.71820
H         -6.98240       -0.36370       -2.32810
H         -5.24740        1.39450       -2.31240
H         -8.34090       -2.81050       -2.30230
H         -8.91510       -5.20830       -2.28750
H         -4.89940       -6.26920       -3.31060
H         -8.27580       -7.50300       -3.14730
H         -4.60210       -9.19360        1.86120
H         -4.05960       -7.79050        0.89570
H         -2.92200       -9.33370       -0.69510
H         -3.45310      -10.72610        0.26880
H         -2.30940       -9.56320        0.94520
H         -8.14430      -10.96970       -0.36260
H         -8.31740       -9.63340       -2.51450
H         -6.23720      -10.44420       -3.58490
H         -5.51210      -10.75660       -2.00730
H         -6.92330      -11.68080       -2.52730
