
  xtb     02142223533D
 energy: -205.265561204049 gnorm: 0.000181815653 xtb: 6.4.1 (unknown)
128137  0     0  0            999 V2000
    8.7440    4.6753    0.6302 C   0  0  0  0  0  0  0  0  0  0  0  0
    9.2183    4.6449    1.8806 C   0  0  0  0  0  0  0  0  0  0  0  0
    8.2927    4.4914    3.0242 C   0  0  0  0  0  0  0  0  0  0  0  0
    7.2141    3.9518    2.9476 O   0  0  0  0  0  0  0  0  0  0  0  0
    8.7537    4.9409    4.2683 N   0  0  0  0  0  0  0  0  0  0  0  0
    7.9082    4.6529    5.4251 C   0  0  0  0  0  0  0  0  0  0  0  0
    8.2069    3.2705    5.9899 C   0  0  0  0  0  0  0  0  0  0  0  0
    9.9284    5.6053    4.4965 C   0  0  0  0  0  0  0  0  0  0  0  0
   10.2966    5.9285    5.5984 O   0  0  0  0  0  0  0  0  0  0  0  0
   10.7468    5.9196    3.2440 C   0  0  0  0  0  0  0  0  0  0  0  0
   10.1817    7.1035    2.6411 C   0  0  0  0  0  0  0  0  0  0  0  0
    9.7070    8.0248    2.1598 N   0  0  0  0  0  0  0  0  0  0  0  0
   10.6752    4.7380    2.2588 C   0  0  0  0  0  0  0  0  0  0  0  0
   11.6322    4.9400    1.0912 C   0  0  0  0  0  0  0  0  0  0  0  0
    7.3211    4.7376    0.2912 C   0  0  0  0  0  0  0  0  0  0  0  0
    6.7543    3.7305   -0.4765 C   0  0  0  0  0  0  0  0  0  0  0  0
    5.3939    3.7911   -0.7341 C   0  0  0  0  0  0  0  0  0  0  0  0
    4.5850    2.8845   -1.3716 N   0  0  0  0  0  0  0  0  0  0  0  0
    5.0099    1.6725   -2.0181 C   0  0  0  0  0  0  0  0  0  0  0  0
    5.2646    1.8907   -3.5091 C   0  0  0  0  0  0  0  0  0  0  0  0
    3.2996    3.3698   -1.3641 C   0  0  0  0  0  0  0  0  0  0  0  0
    3.2705    4.6254   -0.7102 C   0  0  0  0  0  0  0  0  0  0  0  0
    4.6147    4.8896   -0.2915 C   0  0  0  0  0  0  0  0  0  0  0  0
    5.2119    5.9145    0.4325 C   0  0  0  0  0  0  0  0  0  0  0  0
    6.5527    5.8236    0.7326 C   0  0  0  0  0  0  0  0  0  0  0  0
    2.0638    5.3043   -0.5826 C   0  0  0  0  0  0  0  0  0  0  0  0
    0.9116    4.7180   -1.0584 C   0  0  0  0  0  0  0  0  0  0  0  0
    0.9352    3.4519   -1.6607 C   0  0  0  0  0  0  0  0  0  0  0  0
    2.1407    2.7796   -1.8359 C   0  0  0  0  0  0  0  0  0  0  0  0
   -0.3032    2.7601   -2.0335 C   0  0  0  0  0  0  0  0  0  0  0  0
   -0.4122    2.0025   -3.1796 C   0  0  0  0  0  0  0  0  0  0  0  0
    0.5704    2.0149   -4.1048 F   0  0  0  0  0  0  0  0  0  0  0  0
   -1.5165    1.1752   -3.4362 C   0  0  0  0  0  0  0  0  0  0  0  0
   -1.4948    0.4572   -4.5782 F   0  0  0  0  0  0  0  0  0  0  0  0
   -2.5792    1.0682   -2.5674 C   0  0  0  0  0  0  0  0  0  0  0  0
   -2.5447    1.9068   -1.4196 C   0  0  0  0  0  0  0  0  0  0  0  0
   -3.5652    1.8699   -0.5464 N   0  0  0  0  0  0  0  0  0  0  0  0
   -3.5350    2.6158    0.5292 C   0  0  0  0  0  0  0  0  0  0  0  0
   -4.7475    2.5271    1.4095 C   0  0  0  0  0  0  0  0  0  0  0  0
   -5.9632    3.1347    0.7073 C   0  0  0  0  0  0  0  0  0  0  0  0
   -2.4044    3.4367    0.8021 C   0  0  0  0  0  0  0  0  0  0  0  0
   -1.3908    3.4646   -0.0256 N   0  0  0  0  0  0  0  0  0  0  0  0
   -1.4220    2.7359   -1.1545 C   0  0  0  0  0  0  0  0  0  0  0  0
   -2.2729    4.3147    2.0111 C   0  0  0  0  0  0  0  0  0  0  0  0
   -3.0678    5.6109    1.8427 C   0  0  0  0  0  0  0  0  0  0  0  0
   -3.6314    0.0583   -2.7300 C   0  0  0  0  0  0  0  0  0  0  0  0
   -3.2462   -1.2450   -3.0208 C   0  0  0  0  0  0  0  0  0  0  0  0
   -4.2177   -2.2312   -3.0399 C   0  0  0  0  0  0  0  0  0  0  0  0
   -4.0841   -3.5789   -3.2584 N   0  0  0  0  0  0  0  0  0  0  0  0
   -2.8509   -4.2879   -3.4763 C   0  0  0  0  0  0  0  0  0  0  0  0
   -2.2805   -4.8374   -2.1696 C   0  0  0  0  0  0  0  0  0  0  0  0
   -5.3038   -4.1715   -3.0519 C   0  0  0  0  0  0  0  0  0  0  0  0
   -6.2714   -3.1781   -2.7591 C   0  0  0  0  0  0  0  0  0  0  0  0
   -5.5744   -1.9275   -2.7615 C   0  0  0  0  0  0  0  0  0  0  0  0
   -5.9486   -0.6099   -2.5187 C   0  0  0  0  0  0  0  0  0  0  0  0
   -4.9798    0.3687   -2.5050 C   0  0  0  0  0  0  0  0  0  0  0  0
   -7.5873   -3.5553   -2.5088 C   0  0  0  0  0  0  0  0  0  0  0  0
   -7.9064   -4.8941   -2.5122 C   0  0  0  0  0  0  0  0  0  0  0  0
   -6.9305   -5.8806   -2.7464 C   0  0  0  0  0  0  0  0  0  0  0  0
   -5.6283   -5.5172   -3.0639 C   0  0  0  0  0  0  0  0  0  0  0  0
   -7.3370   -7.2741   -2.6513 C   0  0  0  0  0  0  0  0  0  0  0  0
   -6.7621   -8.2749   -1.9607 C   0  0  0  0  0  0  0  0  0  0  0  0
   -5.5971   -8.0997   -1.0786 C   0  0  0  0  0  0  0  0  0  0  0  0
   -4.7190   -7.2796   -1.2286 O   0  0  0  0  0  0  0  0  0  0  0  0
   -5.5220   -8.9667    0.0229 N   0  0  0  0  0  0  0  0  0  0  0  0
   -4.3316   -8.8470    0.8629 C   0  0  0  0  0  0  0  0  0  0  0  0
   -3.1802   -9.6736    0.3055 C   0  0  0  0  0  0  0  0  0  0  0  0
   -6.4346   -9.9253    0.3757 C   0  0  0  0  0  0  0  0  0  0  0  0
   -6.2659  -10.6739    1.3064 O   0  0  0  0  0  0  0  0  0  0  0  0
   -7.7007   -9.9743   -0.4766 C   0  0  0  0  0  0  0  0  0  0  0  0
   -8.6186   -8.9953    0.0567 C   0  0  0  0  0  0  0  0  0  0  0  0
   -9.3339   -8.1996    0.4577 N   0  0  0  0  0  0  0  0  0  0  0  0
   -7.3833   -9.6486   -1.9425 C   0  0  0  0  0  0  0  0  0  0  0  0
   -6.4532  -10.6999   -2.5501 C   0  0  0  0  0  0  0  0  0  0  0  0
    9.4298    4.6738   -0.2067 H   0  0  0  0  0  0  0  0  0  0  0  0
    6.8712    4.7093    5.0897 H   0  0  0  0  0  0  0  0  0  0  0  0
    8.1047    5.4231    6.1724 H   0  0  0  0  0  0  0  0  0  0  0  0
    7.5667    3.0806    6.8465 H   0  0  0  0  0  0  0  0  0  0  0  0
    9.2447    3.2084    6.3099 H   0  0  0  0  0  0  0  0  0  0  0  0
    8.0167    2.5088    5.2372 H   0  0  0  0  0  0  0  0  0  0  0  0
   11.7741    6.1357    3.5567 H   0  0  0  0  0  0  0  0  0  0  0  0
   10.9659    3.8288    2.8029 H   0  0  0  0  0  0  0  0  0  0  0  0
   11.5920    4.0903    0.4143 H   0  0  0  0  0  0  0  0  0  0  0  0
   12.6519    5.0289    1.4608 H   0  0  0  0  0  0  0  0  0  0  0  0
   11.3840    5.8462    0.5425 H   0  0  0  0  0  0  0  0  0  0  0  0
    7.3609    2.9021   -0.8114 H   0  0  0  0  0  0  0  0  0  0  0  0
    5.9195    1.3192   -1.5264 H   0  0  0  0  0  0  0  0  0  0  0  0
    4.2348    0.9131   -1.8798 H   0  0  0  0  0  0  0  0  0  0  0  0
    6.0342    2.6457   -3.6527 H   0  0  0  0  0  0  0  0  0  0  0  0
    5.5901    0.9643   -3.9748 H   0  0  0  0  0  0  0  0  0  0  0  0
    4.3544    2.2277   -3.9994 H   0  0  0  0  0  0  0  0  0  0  0  0
    4.6292    6.7583    0.7690 H   0  0  0  0  0  0  0  0  0  0  0  0
    7.0371    6.6008    1.3056 H   0  0  0  0  0  0  0  0  0  0  0  0
    2.0313    6.2728   -0.1070 H   0  0  0  0  0  0  0  0  0  0  0  0
   -0.0321    5.2287   -0.9642 H   0  0  0  0  0  0  0  0  0  0  0  0
    2.1615    1.8023   -2.2918 H   0  0  0  0  0  0  0  0  0  0  0  0
   -4.9496    1.4708    1.5984 H   0  0  0  0  0  0  0  0  0  0  0  0
   -4.5767    3.0270    2.3615 H   0  0  0  0  0  0  0  0  0  0  0  0
   -6.1532    2.6030   -0.2207 H   0  0  0  0  0  0  0  0  0  0  0  0
   -6.8420    3.0570    1.3427 H   0  0  0  0  0  0  0  0  0  0  0  0
   -5.7936    4.1845    0.4761 H   0  0  0  0  0  0  0  0  0  0  0  0
   -1.2149    4.5555    2.1234 H   0  0  0  0  0  0  0  0  0  0  0  0
   -2.6077    3.7850    2.9046 H   0  0  0  0  0  0  0  0  0  0  0  0
   -2.7325    6.1409    0.9543 H   0  0  0  0  0  0  0  0  0  0  0  0
   -2.9177    6.2544    2.7061 H   0  0  0  0  0  0  0  0  0  0  0  0
   -4.1314    5.4093    1.7437 H   0  0  0  0  0  0  0  0  0  0  0  0
   -2.2060   -1.4831   -3.1802 H   0  0  0  0  0  0  0  0  0  0  0  0
   -3.0422   -5.1087   -4.1738 H   0  0  0  0  0  0  0  0  0  0  0  0
   -2.1409   -3.6031   -3.9463 H   0  0  0  0  0  0  0  0  0  0  0  0
   -1.3438   -5.3549   -2.3596 H   0  0  0  0  0  0  0  0  0  0  0  0
   -2.0966   -4.0252   -1.4697 H   0  0  0  0  0  0  0  0  0  0  0  0
   -2.9830   -5.5338   -1.7182 H   0  0  0  0  0  0  0  0  0  0  0  0
   -6.9824   -0.3637   -2.3281 H   0  0  0  0  0  0  0  0  0  0  0  0
   -5.2474    1.3945   -2.3124 H   0  0  0  0  0  0  0  0  0  0  0  0
   -8.3409   -2.8105   -2.3023 H   0  0  0  0  0  0  0  0  0  0  0  0
   -8.9151   -5.2083   -2.2875 H   0  0  0  0  0  0  0  0  0  0  0  0
   -4.8994   -6.2692   -3.3106 H   0  0  0  0  0  0  0  0  0  0  0  0
   -8.2758   -7.5030   -3.1473 H   0  0  0  0  0  0  0  0  0  0  0  0
   -4.6021   -9.1936    1.8612 H   0  0  0  0  0  0  0  0  0  0  0  0
   -4.0596   -7.7905    0.8957 H   0  0  0  0  0  0  0  0  0  0  0  0
   -2.9220   -9.3337   -0.6951 H   0  0  0  0  0  0  0  0  0  0  0  0
   -3.4531  -10.7261    0.2688 H   0  0  0  0  0  0  0  0  0  0  0  0
   -2.3094   -9.5632    0.9452 H   0  0  0  0  0  0  0  0  0  0  0  0
   -8.1443  -10.9697   -0.3626 H   0  0  0  0  0  0  0  0  0  0  0  0
   -8.3174   -9.6334   -2.5145 H   0  0  0  0  0  0  0  0  0  0  0  0
   -6.2372  -10.4442   -3.5849 H   0  0  0  0  0  0  0  0  0  0  0  0
   -5.5121  -10.7566   -2.0073 H   0  0  0  0  0  0  0  0  0  0  0  0
   -6.9233  -11.6808   -2.5273 H   0  0  0  0  0  0  0  0  0  0  0  0
  1  2  2  0  0  0  0
  2  3  1  0  0  0  0
  3  4  2  0  0  0  0
  3  5  1  0  0  0  0
  5  6  1  0  0  0  0
  6  7  1  0  0  0  0
  5  8  1  0  0  0  0
  8  9  2  0  0  0  0
  8 10  1  0  0  0  0
 10 11  1  0  0  0  0
 11 12  3  0  0  0  0
 10 13  1  0  0  0  0
 13 14  1  0  0  0  0
  1 15  1  0  0  0  0
 15 16  2  0  0  0  0
 16 17  1  0  0  0  0
 17 18  1  0  0  0  0
 18 19  1  0  0  0  0
 19 20  1  0  0  0  0
 18 21  1  0  0  0  0
 21 22  2  0  0  0  0
 22 23  1  0  0  0  0
 23 24  1  0  0  0  0
 24 25  2  0  0  0  0
 22 26  1  0  0  0  0
 26 27  2  0  0  0  0
 27 28  1  0  0  0  0
 28 29  2  0  0  0  0
 28 30  1  0  0  0  0
 30 31  2  0  0  0  0
 31 32  1  0  0  0  0
 31 33  1  0  0  0  0
 33 34  1  0  0  0  0
 33 35  2  0  0  0  0
 35 36  1  0  0  0  0
 36 37  2  0  0  0  0
 37 38  1  0  0  0  0
 38 39  1  0  0  0  0
 39 40  1  0  0  0  0
 38 41  2  0  0  0  0
 41 42  1  0  0  0  0
 42 43  2  0  0  0  0
 41 44  1  0  0  0  0
 44 45  1  0  0  0  0
 35 46  1  0  0  0  0
 46 47  2  0  0  0  0
 47 48  1  0  0  0  0
 48 49  1  0  0  0  0
 49 50  1  0  0  0  0
 50 51  1  0  0  0  0
 49 52  1  0  0  0  0
 52 53  2  0  0  0  0
 53 54  1  0  0  0  0
 54 55  1  0  0  0  0
 55 56  2  0  0  0  0
 53 57  1  0  0  0  0
 57 58  2  0  0  0  0
 58 59  1  0  0  0  0
 59 60  2  0  0  0  0
 59 61  1  0  0  0  0
 61 62  2  0  0  0  0
 62 63  1  0  0  0  0
 63 64  2  0  0  0  0
 63 65  1  0  0  0  0
 65 66  1  0  0  0  0
 66 67  1  0  0  0  0
 65 68  1  0  0  0  0
 68 69  2  0  0  0  0
 68 70  1  0  0  0  0
 70 71  1  0  0  0  0
 71 72  3  0  0  0  0
 70 73  1  0  0  0  0
 73 74  1  0  0  0  0
 13  2  1  0  0  0  0
 25 15  1  0  0  0  0
 43 30  1  0  0  0  0
 56 46  1  0  0  0  0
 73 62  1  0  0  0  0
 23 17  2  0  0  0  0
 43 36  1  0  0  0  0
 54 48  2  0  0  0  0
 29 21  1  0  0  0  0
 60 52  1  0  0  0  0
  1 75  1  0  0  0  0
  6 76  1  0  0  0  0
  6 77  1  0  0  0  0
  7 78  1  0  0  0  0
  7 79  1  0  0  0  0
  7 80  1  0  0  0  0
 10 81  1  0  0  0  0
 13 82  1  0  0  0  0
 14 83  1  0  0  0  0
 14 84  1  0  0  0  0
 14 85  1  0  0  0  0
 16 86  1  0  0  0  0
 19 87  1  0  0  0  0
 19 88  1  0  0  0  0
 20 89  1  0  0  0  0
 20 90  1  0  0  0  0
 20 91  1  0  0  0  0
 24 92  1  0  0  0  0
 25 93  1  0  0  0  0
 26 94  1  0  0  0  0
 27 95  1  0  0  0  0
 29 96  1  0  0  0  0
 39 97  1  0  0  0  0
 39 98  1  0  0  0  0
 40 99  1  0  0  0  0
 40100  1  0  0  0  0
 40101  1  0  0  0  0
 44102  1  0  0  0  0
 44103  1  0  0  0  0
 45104  1  0  0  0  0
 45105  1  0  0  0  0
 45106  1  0  0  0  0
 47107  1  0  0  0  0
 50108  1  0  0  0  0
 50109  1  0  0  0  0
 51110  1  0  0  0  0
 51111  1  0  0  0  0
 51112  1  0  0  0  0
 55113  1  0  0  0  0
 56114  1  0  0  0  0
 57115  1  0  0  0  0
 58116  1  0  0  0  0
 60117  1  0  0  0  0
 61118  1  0  0  0  0
 66119  1  0  0  0  0
 66120  1  0  0  0  0
 67121  1  0  0  0  0
 67122  1  0  0  0  0
 67123  1  0  0  0  0
 70124  1  0  0  0  0
 73125  1  0  0  0  0
 74126  1  0  0  0  0
 74127  1  0  0  0  0
 74128  1  0  0  0  0
M  END
