
  xtb     02092210513D
 energy: -329.328649263075 gnorm: 0.000398951540 xtb: 6.4.1 (unknown)
204218  0     0  0            999 V2000
    7.7123    4.1002    2.4781 C   0  0  0  0  0  0  0  0  0  0  0  0
    8.6213    3.2723    1.9043 C   0  0  0  0  0  0  0  0  0  0  0  0
   10.0196    3.4727    2.2934 C   0  0  0  0  0  0  0  0  0  0  0  0
   10.3937    4.3880    2.9992 O   0  0  0  0  0  0  0  0  0  0  0  0
   10.9395    2.5030    1.8759 N   0  0  0  0  0  0  0  0  0  0  0  0
   12.2542    2.5202    2.5132 C   0  0  0  0  0  0  0  0  0  0  0  0
   13.2319    3.3922    1.7367 C   0  0  0  0  0  0  0  0  0  0  0  0
   10.7492    1.5950    0.8666 C   0  0  0  0  0  0  0  0  0  0  0  0
   11.5614    0.7475    0.5914 O   0  0  0  0  0  0  0  0  0  0  0  0
    9.4515    1.8059    0.0892 C   0  0  0  0  0  0  0  0  0  0  0  0
    9.1412    0.6694   -0.7431 C   0  0  0  0  0  0  0  0  0  0  0  0
    8.8386   -0.2211   -1.3921 N   0  0  0  0  0  0  0  0  0  0  0  0
    8.2811    2.0920    1.0431 C   0  0  0  0  0  0  0  0  0  0  0  0
    7.9704    0.8729    1.9193 C   0  0  0  0  0  0  0  0  0  0  0  0
    6.2958    4.0809    2.3981 C   0  0  0  0  0  0  0  0  0  0  0  0
    5.4433    4.7140    3.2797 C   0  0  0  0  0  0  0  0  0  0  0  0
    4.0832    4.4443    3.0706 C   0  0  0  0  0  0  0  0  0  0  0  0
    2.8045    4.8511    4.2042 S   0  0  0  0  0  0  0  0  0  0  0  0
    3.4841    6.3479    5.0175 C   0  0  0  0  0  0  0  0  0  0  0  0
    2.4109    6.9808    5.8803 C   0  0  0  0  0  0  0  0  0  0  0  0
    3.8608    3.6318    1.9659 C   0  0  0  0  0  0  0  0  0  0  0  0
    5.3707    3.1728    1.2335 S   0  0  0  0  0  0  0  0  0  0  0  0
    2.6937    3.0474    1.4114 C   0  0  0  0  0  0  0  0  0  0  0  0
    1.3541    3.4245    1.4101 C   0  0  0  0  0  0  0  0  0  0  0  0
    0.8139    4.6215    1.8383 N   0  0  0  0  0  0  0  0  0  0  0  0
    1.4482    5.8496    1.6520 C   0  0  0  0  0  0  0  0  0  0  0  0
    2.4541    6.0231    0.7055 C   0  0  0  0  0  0  0  0  0  0  0  0
    3.1157    7.2310    0.5841 C   0  0  0  0  0  0  0  0  0  0  0  0
    2.7688    8.3011    1.3941 C   0  0  0  0  0  0  0  0  0  0  0  0
    3.5707    9.8761    1.3672 S   0  0  0  0  0  0  0  0  0  0  0  0
    4.7033    9.7663   -0.0461 C   0  0  0  0  0  0  0  0  0  0  0  0
    1.7295    8.1492    2.3115 C   0  0  0  0  0  0  0  0  0  0  0  0
    1.0798    6.9442    2.4398 C   0  0  0  0  0  0  0  0  0  0  0  0
   -0.5173    4.5645    2.3031 C   0  0  0  0  0  0  0  0  0  0  0  0
   -1.5116    5.3724    1.7628 C   0  0  0  0  0  0  0  0  0  0  0  0
   -2.8265    5.2292    2.1649 C   0  0  0  0  0  0  0  0  0  0  0  0
   -3.1676    4.2649    3.1049 C   0  0  0  0  0  0  0  0  0  0  0  0
   -4.8145    3.9418    3.6495 S   0  0  0  0  0  0  0  0  0  0  0  0
   -5.8560    4.9332    2.5453 C   0  0  0  0  0  0  0  0  0  0  0  0
   -2.1648    3.4834    3.6774 C   0  0  0  0  0  0  0  0  0  0  0  0
   -0.8541    3.6336    3.2859 C   0  0  0  0  0  0  0  0  0  0  0  0
    0.5586    2.4099    0.8211 C   0  0  0  0  0  0  0  0  0  0  0  0
   -1.1399    2.2200    0.5748 S   0  0  0  0  0  0  0  0  0  0  0  0
   -0.8787    0.6698   -0.2190 C   0  0  0  0  0  0  0  0  0  0  0  0
    0.4769    0.3677   -0.3507 C   0  0  0  0  0  0  0  0  0  0  0  0
    1.0184   -0.7177   -1.0184 N   0  0  0  0  0  0  0  0  0  0  0  0
    0.4677   -1.2088   -2.2026 C   0  0  0  0  0  0  0  0  0  0  0  0
    0.5751   -2.5657   -2.5062 C   0  0  0  0  0  0  0  0  0  0  0  0
   -0.0674   -3.0993   -3.6033 C   0  0  0  0  0  0  0  0  0  0  0  0
   -0.8377   -2.2841   -4.4213 C   0  0  0  0  0  0  0  0  0  0  0  0
   -1.7756   -2.8770   -5.7965 S   0  0  0  0  0  0  0  0  0  0  0  0
   -1.8486   -4.6696   -5.5211 C   0  0  0  0  0  0  0  0  0  0  0  0
   -0.8884   -0.9155   -4.1652 C   0  0  0  0  0  0  0  0  0  0  0  0
   -0.2380   -0.3803   -3.0759 C   0  0  0  0  0  0  0  0  0  0  0  0
    2.2347   -1.2429   -0.5416 C   0  0  0  0  0  0  0  0  0  0  0  0
    2.3957   -1.5198    0.8153 C   0  0  0  0  0  0  0  0  0  0  0  0
    3.6037   -1.9813    1.2875 C   0  0  0  0  0  0  0  0  0  0  0  0
    4.6750   -2.1762    0.4167 C   0  0  0  0  0  0  0  0  0  0  0  0
    6.1822   -2.7410    1.1388 S   0  0  0  0  0  0  0  0  0  0  0  0
    7.3036   -2.9708   -0.2705 C   0  0  0  0  0  0  0  0  0  0  0  0
    4.5109   -1.9233   -0.9392 C   0  0  0  0  0  0  0  0  0  0  0  0
    3.2978   -1.4622   -1.4118 C   0  0  0  0  0  0  0  0  0  0  0  0
    1.2683    1.3477    0.2862 C   0  0  0  0  0  0  0  0  0  0  0  0
    2.9631    1.5321    0.5416 S   0  0  0  0  0  0  0  0  0  0  0  0
   -1.9866   -0.1826   -0.4407 C   0  0  0  0  0  0  0  0  0  0  0  0
   -3.3426    0.1389   -0.4288 C   0  0  0  0  0  0  0  0  0  0  0  0
   -3.8467    1.4324   -0.4616 N   0  0  0  0  0  0  0  0  0  0  0  0
   -5.0552    1.6698    0.2047 C   0  0  0  0  0  0  0  0  0  0  0  0
   -6.0680    2.4257   -0.3839 C   0  0  0  0  0  0  0  0  0  0  0  0
   -7.2922    2.5434    0.2384 C   0  0  0  0  0  0  0  0  0  0  0  0
   -7.5231    1.9068    1.4512 C   0  0  0  0  0  0  0  0  0  0  0  0
   -9.1435    1.9938    2.1613 S   0  0  0  0  0  0  0  0  0  0  0  0
   -9.3485    0.2663    2.6952 C   0  0  0  0  0  0  0  0  0  0  0  0
   -6.4974    1.2110    2.0745 C   0  0  0  0  0  0  0  0  0  0  0  0
   -5.2718    1.0948    1.4551 C   0  0  0  0  0  0  0  0  0  0  0  0
   -3.3409    2.3660   -1.3730 C   0  0  0  0  0  0  0  0  0  0  0  0
   -3.3378    3.7242   -1.0485 C   0  0  0  0  0  0  0  0  0  0  0  0
   -2.8098    4.6466   -1.9210 C   0  0  0  0  0  0  0  0  0  0  0  0
   -2.2683    4.2388   -3.1394 C   0  0  0  0  0  0  0  0  0  0  0  0
   -1.5921    5.5091   -4.1639 S   0  0  0  0  0  0  0  0  0  0  0  0
   -1.2005    4.6561   -5.7180 C   0  0  0  0  0  0  0  0  0  0  0  0
   -2.2786    2.8916   -3.4719 C   0  0  0  0  0  0  0  0  0  0  0  0
   -2.8173    1.9664   -2.5981 C   0  0  0  0  0  0  0  0  0  0  0  0
   -4.1492   -1.0221   -0.4223 C   0  0  0  0  0  0  0  0  0  0  0  0
   -5.8523   -1.3315   -0.3938 S   0  0  0  0  0  0  0  0  0  0  0  0
   -5.5660   -3.0642   -0.5422 C   0  0  0  0  0  0  0  0  0  0  0  0
   -4.1940   -3.3564   -0.6238 C   0  0  0  0  0  0  0  0  0  0  0  0
   -3.6454   -4.6074   -0.8687 N   0  0  0  0  0  0  0  0  0  0  0  0
   -4.1385   -5.3768   -1.9368 C   0  0  0  0  0  0  0  0  0  0  0  0
   -4.6755   -4.7625   -3.0658 C   0  0  0  0  0  0  0  0  0  0  0  0
   -5.2175   -5.5127   -4.0891 C   0  0  0  0  0  0  0  0  0  0  0  0
   -5.2284   -6.8989   -4.0001 C   0  0  0  0  0  0  0  0  0  0  0  0
   -5.9427   -7.9507   -5.2223 S   0  0  0  0  0  0  0  0  0  0  0  0
   -6.8310   -6.8005   -6.3096 C   0  0  0  0  0  0  0  0  0  0  0  0
   -4.6485   -7.5198   -2.8940 C   0  0  0  0  0  0  0  0  0  0  0  0
   -4.1079   -6.7696   -1.8722 C   0  0  0  0  0  0  0  0  0  0  0  0
   -2.3690   -4.8556   -0.3385 C   0  0  0  0  0  0  0  0  0  0  0  0
   -1.3407   -5.3884   -1.1095 C   0  0  0  0  0  0  0  0  0  0  0  0
   -0.0641   -5.5088   -0.5942 C   0  0  0  0  0  0  0  0  0  0  0  0
    0.2078   -5.0953    0.7031 C   0  0  0  0  0  0  0  0  0  0  0  0
    1.8086   -5.1288    1.4475 S   0  0  0  0  0  0  0  0  0  0  0  0
    2.9437   -5.3634    0.0522 C   0  0  0  0  0  0  0  0  0  0  0  0
   -0.8343   -4.6250    1.5001 C   0  0  0  0  0  0  0  0  0  0  0  0
   -2.1064   -4.5109    0.9895 C   0  0  0  0  0  0  0  0  0  0  0  0
   -3.4165   -2.1984   -0.4950 C   0  0  0  0  0  0  0  0  0  0  0  0
   -1.7149   -1.9177   -0.5068 S   0  0  0  0  0  0  0  0  0  0  0  0
   -6.5495   -4.0725   -0.5833 C   0  0  0  0  0  0  0  0  0  0  0  0
   -7.9086   -4.0309   -0.6529 C   0  0  0  0  0  0  0  0  0  0  0  0
   -8.6697   -2.8006   -0.5861 C   0  0  0  0  0  0  0  0  0  0  0  0
   -8.2465   -1.7563   -0.1137 O   0  0  0  0  0  0  0  0  0  0  0  0
   -9.9951   -2.8364   -1.0486 N   0  0  0  0  0  0  0  0  0  0  0  0
  -10.8288   -1.6621   -0.8007 C   0  0  0  0  0  0  0  0  0  0  0  0
  -11.6944   -1.8640    0.4359 C   0  0  0  0  0  0  0  0  0  0  0  0
  -10.5561   -3.8513   -1.7698 C   0  0  0  0  0  0  0  0  0  0  0  0
  -11.6902   -3.8165   -2.1799 O   0  0  0  0  0  0  0  0  0  0  0  0
   -9.6425   -5.0523   -2.0232 C   0  0  0  0  0  0  0  0  0  0  0  0
   -8.8515   -4.7946   -3.1989 C   0  0  0  0  0  0  0  0  0  0  0  0
   -8.2178   -4.5924   -4.1291 N   0  0  0  0  0  0  0  0  0  0  0  0
   -8.7375   -5.2882   -0.8021 C   0  0  0  0  0  0  0  0  0  0  0  0
   -7.9578   -6.5883   -0.9614 C   0  0  0  0  0  0  0  0  0  0  0  0
    8.1186    4.8549    3.1430 H   0  0  0  0  0  0  0  0  0  0  0  0
   12.1209    2.9098    3.5235 H   0  0  0  0  0  0  0  0  0  0  0  0
   12.6100    1.4888    2.5512 H   0  0  0  0  0  0  0  0  0  0  0  0
   13.3589    3.0089    0.7266 H   0  0  0  0  0  0  0  0  0  0  0  0
   12.8645    4.4146    1.6903 H   0  0  0  0  0  0  0  0  0  0  0  0
   14.1974    3.3899    2.2342 H   0  0  0  0  0  0  0  0  0  0  0  0
    9.6110    2.6725   -0.5684 H   0  0  0  0  0  0  0  0  0  0  0  0
    7.4032    2.3167    0.4313 H   0  0  0  0  0  0  0  0  0  0  0  0
    7.6959    0.0196    1.3042 H   0  0  0  0  0  0  0  0  0  0  0  0
    8.8334    0.6009    2.5242 H   0  0  0  0  0  0  0  0  0  0  0  0
    7.1395    1.0964    2.5834 H   0  0  0  0  0  0  0  0  0  0  0  0
    5.8152    5.3125    4.0911 H   0  0  0  0  0  0  0  0  0  0  0  0
    3.8041    7.0240    4.2247 H   0  0  0  0  0  0  0  0  0  0  0  0
    4.3358    6.0453    5.6264 H   0  0  0  0  0  0  0  0  0  0  0  0
    1.5556    7.2667    5.2741 H   0  0  0  0  0  0  0  0  0  0  0  0
    2.0771    6.2839    6.6457 H   0  0  0  0  0  0  0  0  0  0  0  0
    2.8088    7.8697    6.3649 H   0  0  0  0  0  0  0  0  0  0  0  0
    2.7245    5.2129    0.0464 H   0  0  0  0  0  0  0  0  0  0  0  0
    3.8993    7.3175   -0.1514 H   0  0  0  0  0  0  0  0  0  0  0  0
    5.4673    9.0174    0.1426 H   0  0  0  0  0  0  0  0  0  0  0  0
    4.1438    9.5422   -0.9496 H   0  0  0  0  0  0  0  0  0  0  0  0
    5.1624   10.7465   -0.1289 H   0  0  0  0  0  0  0  0  0  0  0  0
    1.4507    8.9891    2.9296 H   0  0  0  0  0  0  0  0  0  0  0  0
    0.2892    6.8295    3.1657 H   0  0  0  0  0  0  0  0  0  0  0  0
   -1.2558    6.1034    1.0100 H   0  0  0  0  0  0  0  0  0  0  0  0
   -3.5772    5.8690    1.7285 H   0  0  0  0  0  0  0  0  0  0  0  0
   -6.8790    4.6724    2.7991 H   0  0  0  0  0  0  0  0  0  0  0  0
   -5.6902    5.9922    2.7210 H   0  0  0  0  0  0  0  0  0  0  0  0
   -5.6603    4.6622    1.5120 H   0  0  0  0  0  0  0  0  0  0  0  0
   -2.4329    2.7546    4.4265 H   0  0  0  0  0  0  0  0  0  0  0  0
   -0.0764    3.0261    3.7243 H   0  0  0  0  0  0  0  0  0  0  0  0
    1.1326   -3.2111   -1.8454 H   0  0  0  0  0  0  0  0  0  0  0  0
    0.0236   -4.1555   -3.7983 H   0  0  0  0  0  0  0  0  0  0  0  0
   -2.5501   -5.0518   -6.2559 H   0  0  0  0  0  0  0  0  0  0  0  0
   -0.8726   -5.1186   -5.6814 H   0  0  0  0  0  0  0  0  0  0  0  0
   -2.2214   -4.8701   -4.5206 H   0  0  0  0  0  0  0  0  0  0  0  0
   -1.4543   -0.2810   -4.8307 H   0  0  0  0  0  0  0  0  0  0  0  0
   -0.2917    0.6801   -2.8792 H   0  0  0  0  0  0  0  0  0  0  0  0
    1.5661   -1.3718    1.4903 H   0  0  0  0  0  0  0  0  0  0  0  0
    3.7324   -2.1998    2.3360 H   0  0  0  0  0  0  0  0  0  0  0  0
    7.5164   -2.0201   -0.7522 H   0  0  0  0  0  0  0  0  0  0  0  0
    8.2187   -3.3722    0.1543 H   0  0  0  0  0  0  0  0  0  0  0  0
    6.8780   -3.6865   -0.9678 H   0  0  0  0  0  0  0  0  0  0  0  0
    5.3238   -2.0616   -1.6333 H   0  0  0  0  0  0  0  0  0  0  0  0
    3.1750   -1.2534   -2.4646 H   0  0  0  0  0  0  0  0  0  0  0  0
   -5.9042    2.8852   -1.3475 H   0  0  0  0  0  0  0  0  0  0  0  0
   -8.0898    3.1027   -0.2261 H   0  0  0  0  0  0  0  0  0  0  0  0
  -10.4168    0.1049    2.7999 H   0  0  0  0  0  0  0  0  0  0  0  0
   -8.8578    0.1047    3.6507 H   0  0  0  0  0  0  0  0  0  0  0  0
   -8.9343   -0.3819    1.9280 H   0  0  0  0  0  0  0  0  0  0  0  0
   -6.6507    0.7575    3.0405 H   0  0  0  0  0  0  0  0  0  0  0  0
   -4.4718    0.5507    1.9346 H   0  0  0  0  0  0  0  0  0  0  0  0
   -3.7331    4.0383   -0.0953 H   0  0  0  0  0  0  0  0  0  0  0  0
   -2.7993    5.6957   -1.6678 H   0  0  0  0  0  0  0  0  0  0  0  0
   -0.8654    5.4317   -6.3995 H   0  0  0  0  0  0  0  0  0  0  0  0
   -0.4031    3.9353   -5.5613 H   0  0  0  0  0  0  0  0  0  0  0  0
   -2.0933    4.1796   -6.1117 H   0  0  0  0  0  0  0  0  0  0  0  0
   -1.8763    2.5460   -4.4109 H   0  0  0  0  0  0  0  0  0  0  0  0
   -2.8346    0.9216   -2.8702 H   0  0  0  0  0  0  0  0  0  0  0  0
   -4.6737   -3.6855   -3.1417 H   0  0  0  0  0  0  0  0  0  0  0  0
   -5.6281   -5.0029   -4.9434 H   0  0  0  0  0  0  0  0  0  0  0  0
   -7.4390   -7.4232   -6.9585 H   0  0  0  0  0  0  0  0  0  0  0  0
   -6.1245   -6.2298   -6.9057 H   0  0  0  0  0  0  0  0  0  0  0  0
   -7.4637   -6.1483   -5.7140 H   0  0  0  0  0  0  0  0  0  0  0  0
   -4.6434   -8.5975   -2.8406 H   0  0  0  0  0  0  0  0  0  0  0  0
   -3.6722   -7.2531   -1.0104 H   0  0  0  0  0  0  0  0  0  0  0  0
   -1.5376   -5.6918   -2.1272 H   0  0  0  0  0  0  0  0  0  0  0  0
    0.7152   -5.9134   -1.2208 H   0  0  0  0  0  0  0  0  0  0  0  0
    3.9390   -5.2467    0.4697 H   0  0  0  0  0  0  0  0  0  0  0  0
    2.7696   -4.5957   -0.6962 H   0  0  0  0  0  0  0  0  0  0  0  0
    2.8335   -6.3601   -0.3653 H   0  0  0  0  0  0  0  0  0  0  0  0
   -0.6264   -4.3390    2.5194 H   0  0  0  0  0  0  0  0  0  0  0  0
   -2.9069   -4.1291    1.6057 H   0  0  0  0  0  0  0  0  0  0  0  0
   -6.1104   -5.0610   -0.5981 H   0  0  0  0  0  0  0  0  0  0  0  0
  -11.4566   -1.5085   -1.6802 H   0  0  0  0  0  0  0  0  0  0  0  0
  -10.1578   -0.8119   -0.6690 H   0  0  0  0  0  0  0  0  0  0  0  0
  -12.3834   -2.6912    0.2820 H   0  0  0  0  0  0  0  0  0  0  0  0
  -12.2696   -0.9627    0.6276 H   0  0  0  0  0  0  0  0  0  0  0  0
  -11.0729   -2.0752    1.3038 H   0  0  0  0  0  0  0  0  0  0  0  0
  -10.2840   -5.9174   -2.2275 H   0  0  0  0  0  0  0  0  0  0  0  0
   -9.3924   -5.3824    0.0765 H   0  0  0  0  0  0  0  0  0  0  0  0
   -7.3039   -6.5505   -1.8307 H   0  0  0  0  0  0  0  0  0  0  0  0
   -7.3613   -6.7935   -0.0760 H   0  0  0  0  0  0  0  0  0  0  0  0
   -8.6535   -7.4149   -1.0932 H   0  0  0  0  0  0  0  0  0  0  0  0
  1  2  2  0  0  0  0
  2  3  1  0  0  0  0
  3  4  2  0  0  0  0
  3  5  1  0  0  0  0
  5  6  1  0  0  0  0
  6  7  1  0  0  0  0
  5  8  1  0  0  0  0
  8  9  2  0  0  0  0
  8 10  1  0  0  0  0
 10 11  1  0  0  0  0
 11 12  3  0  0  0  0
 10 13  1  0  0  0  0
 13 14  1  0  0  0  0
  1 15  1  0  0  0  0
 15 16  2  0  0  0  0
 16 17  1  0  0  0  0
 17 18  1  0  0  0  0
 18 19  1  0  0  0  0
 19 20  1  0  0  0  0
 17 21  2  0  0  0  0
 21 22  1  0  0  0  0
 21 23  1  0  0  0  0
 23 24  2  0  0  0  0
 24 25  1  0  0  0  0
 25 26  1  0  0  0  0
 26 27  2  0  0  0  0
 27 28  1  0  0  0  0
 28 29  2  0  0  0  0
 29 30  1  0  0  0  0
 30 31  1  0  0  0  0
 29 32  1  0  0  0  0
 32 33  2  0  0  0  0
 25 34  1  0  0  0  0
 34 35  2  0  0  0  0
 35 36  1  0  0  0  0
 36 37  2  0  0  0  0
 37 38  1  0  0  0  0
 38 39  1  0  0  0  0
 37 40  1  0  0  0  0
 40 41  2  0  0  0  0
 24 42  1  0  0  0  0
 42 43  1  0  0  0  0
 43 44  1  0  0  0  0
 44 45  2  0  0  0  0
 45 46  1  0  0  0  0
 46 47  1  0  0  0  0
 47 48  2  0  0  0  0
 48 49  1  0  0  0  0
 49 50  2  0  0  0  0
 50 51  1  0  0  0  0
 51 52  1  0  0  0  0
 50 53  1  0  0  0  0
 53 54  2  0  0  0  0
 46 55  1  0  0  0  0
 55 56  2  0  0  0  0
 56 57  1  0  0  0  0
 57 58  2  0  0  0  0
 58 59  1  0  0  0  0
 59 60  1  0  0  0  0
 58 61  1  0  0  0  0
 61 62  2  0  0  0  0
 45 63  1  0  0  0  0
 63 64  1  0  0  0  0
 44 65  1  0  0  0  0
 65 66  2  0  0  0  0
 66 67  1  0  0  0  0
 67 68  1  0  0  0  0
 68 69  2  0  0  0  0
 69 70  1  0  0  0  0
 70 71  2  0  0  0  0
 71 72  1  0  0  0  0
 72 73  1  0  0  0  0
 71 74  1  0  0  0  0
 74 75  2  0  0  0  0
 67 76  1  0  0  0  0
 76 77  2  0  0  0  0
 77 78  1  0  0  0  0
 78 79  2  0  0  0  0
 79 80  1  0  0  0  0
 80 81  1  0  0  0  0
 79 82  1  0  0  0  0
 82 83  2  0  0  0  0
 66 84  1  0  0  0  0
 84 85  1  0  0  0  0
 85 86  1  0  0  0  0
 86 87  2  0  0  0  0
 87 88  1  0  0  0  0
 88 89  1  0  0  0  0
 89 90  2  0  0  0  0
 90 91  1  0  0  0  0
 91 92  2  0  0  0  0
 92 93  1  0  0  0  0
 93 94  1  0  0  0  0
 92 95  1  0  0  0  0
 95 96  2  0  0  0  0
 88 97  1  0  0  0  0
 97 98  2  0  0  0  0
 98 99  1  0  0  0  0
 99100  2  0  0  0  0
100101  1  0  0  0  0
101102  1  0  0  0  0
100103  1  0  0  0  0
103104  2  0  0  0  0
 87105  1  0  0  0  0
105106  1  0  0  0  0
 86107  1  0  0  0  0
107108  2  0  0  0  0
108109  1  0  0  0  0
109110  2  0  0  0  0
109111  1  0  0  0  0
111112  1  0  0  0  0
112113  1  0  0  0  0
111114  1  0  0  0  0
114115  2  0  0  0  0
114116  1  0  0  0  0
116117  1  0  0  0  0
117118  3  0  0  0  0
116119  1  0  0  0  0
119120  1  0  0  0  0
 13  2  1  0  0  0  0
 22 15  1  0  0  0  0
 64 23  1  0  0  0  0
106 65  1  0  0  0  0
119108  1  0  0  0  0
 33 26  1  0  0  0  0
 41 34  1  0  0  0  0
 63 42  2  0  0  0  0
 75 68  1  0  0  0  0
 83 76  1  0  0  0  0
105 84  2  0  0  0  0
 54 47  1  0  0  0  0
 62 55  1  0  0  0  0
 96 89  1  0  0  0  0
104 97  1  0  0  0  0
  1121  1  0  0  0  0
  6122  1  0  0  0  0
  6123  1  0  0  0  0
  7124  1  0  0  0  0
  7125  1  0  0  0  0
  7126  1  0  0  0  0
 10127  1  0  0  0  0
 13128  1  0  0  0  0
 14129  1  0  0  0  0
 14130  1  0  0  0  0
 14131  1  0  0  0  0
 16132  1  0  0  0  0
 19133  1  0  0  0  0
 19134  1  0  0  0  0
 20135  1  0  0  0  0
 20136  1  0  0  0  0
 20137  1  0  0  0  0
 27138  1  0  0  0  0
 28139  1  0  0  0  0
 31140  1  0  0  0  0
 31141  1  0  0  0  0
 31142  1  0  0  0  0
 32143  1  0  0  0  0
 33144  1  0  0  0  0
 35145  1  0  0  0  0
 36146  1  0  0  0  0
 39147  1  0  0  0  0
 39148  1  0  0  0  0
 39149  1  0  0  0  0
 40150  1  0  0  0  0
 41151  1  0  0  0  0
 48152  1  0  0  0  0
 49153  1  0  0  0  0
 52154  1  0  0  0  0
 52155  1  0  0  0  0
 52156  1  0  0  0  0
 53157  1  0  0  0  0
 54158  1  0  0  0  0
 56159  1  0  0  0  0
 57160  1  0  0  0  0
 60161  1  0  0  0  0
 60162  1  0  0  0  0
 60163  1  0  0  0  0
 61164  1  0  0  0  0
 62165  1  0  0  0  0
 69166  1  0  0  0  0
 70167  1  0  0  0  0
 73168  1  0  0  0  0
 73169  1  0  0  0  0
 73170  1  0  0  0  0
 74171  1  0  0  0  0
 75172  1  0  0  0  0
 77173  1  0  0  0  0
 78174  1  0  0  0  0
 81175  1  0  0  0  0
 81176  1  0  0  0  0
 81177  1  0  0  0  0
 82178  1  0  0  0  0
 83179  1  0  0  0  0
 90180  1  0  0  0  0
 91181  1  0  0  0  0
 94182  1  0  0  0  0
 94183  1  0  0  0  0
 94184  1  0  0  0  0
 95185  1  0  0  0  0
 96186  1  0  0  0  0
 98187  1  0  0  0  0
 99188  1  0  0  0  0
102189  1  0  0  0  0
102190  1  0  0  0  0
102191  1  0  0  0  0
103192  1  0  0  0  0
104193  1  0  0  0  0
107194  1  0  0  0  0
112195  1  0  0  0  0
112196  1  0  0  0  0
113197  1  0  0  0  0
113198  1  0  0  0  0
113199  1  0  0  0  0
116200  1  0  0  0  0
119201  1  0  0  0  0
120202  1  0  0  0  0
120203  1  0  0  0  0
120204  1  0  0  0  0
M  END
