
  xtb     02072212153D
 energy: -342.774805759390 gnorm: 0.000412694067 xtb: 6.4.1 (unknown)
202220  0     0  0            999 V2000
   -5.9479   -0.2573   -4.6097 C   0  0  0  0  0  0  0  0  0  0  0  0
   -6.0829   -1.1332   -5.6546 C   0  0  0  0  0  0  0  0  0  0  0  0
   -5.0493   -2.0567   -6.1686 C   0  0  0  0  0  0  0  0  0  0  0  0
   -3.8463   -2.0050   -5.9894 O   0  0  0  0  0  0  0  0  0  0  0  0
   -5.7814   -3.0458   -6.9647 C   0  0  0  0  0  0  0  0  0  0  0  0
   -7.1140   -2.6912   -7.0098 C   0  0  0  0  0  0  0  0  0  0  0  0
   -8.0852   -3.7733   -7.9351 S   0  0  0  0  0  0  0  0  0  0  0  0
   -6.6648   -4.7482   -8.2765 C   0  0  0  0  0  0  0  0  0  0  0  0
   -6.6341   -5.9077   -9.0343 C   0  0  0  0  0  0  0  0  0  0  0  0
   -5.4242   -6.5545   -9.1916 C   0  0  0  0  0  0  0  0  0  0  0  0
   -4.2596   -6.0607   -8.6008 C   0  0  0  0  0  0  0  0  0  0  0  0
   -4.2802   -4.9083   -7.8495 C   0  0  0  0  0  0  0  0  0  0  0  0
   -5.4900   -4.2320   -7.6828 C   0  0  0  0  0  0  0  0  0  0  0  0
   -7.3557   -1.4885   -6.2508 C   0  0  0  0  0  0  0  0  0  0  0  0
   -8.5787   -0.8744   -6.1244 C   0  0  0  0  0  0  0  0  0  0  0  0
   -9.7304   -1.4342   -6.7133 C   0  0  0  0  0  0  0  0  0  0  0  0
  -10.6721   -1.9013   -7.1745 N   0  0  0  0  0  0  0  0  0  0  0  0
   -8.8192    0.3324   -5.4457 C   0  0  0  0  0  0  0  0  0  0  0  0
   -9.0752    1.3235   -4.9232 N   0  0  0  0  0  0  0  0  0  0  0  0
   -4.8330    0.0042   -3.8023 C   0  0  0  0  0  0  0  0  0  0  0  0
   -4.9169    0.5399   -2.4950 C   0  0  0  0  0  0  0  0  0  0  0  0
   -6.0785    0.5892   -1.7678 N   0  0  0  0  0  0  0  0  0  0  0  0
   -6.1873    1.3864   -0.6176 C   0  0  0  0  0  0  0  0  0  0  0  0
   -6.7660    0.8532    0.5362 C   0  0  0  0  0  0  0  0  0  0  0  0
   -6.8994    1.6224    1.6676 C   0  0  0  0  0  0  0  0  0  0  0  0
   -6.4673    2.9482    1.6724 C   0  0  0  0  0  0  0  0  0  0  0  0
   -6.6897    3.8440    3.1745 S   0  0  0  0  0  0  0  0  0  0  0  0
   -5.8828    5.4402    2.8583 C   0  0  0  0  0  0  0  0  0  0  0  0
   -5.9088    3.4850    0.5218 C   0  0  0  0  0  0  0  0  0  0  0  0
   -5.7616    2.7101   -0.6135 C   0  0  0  0  0  0  0  0  0  0  0  0
   -7.1450   -0.3000   -2.0366 C   0  0  0  0  0  0  0  0  0  0  0  0
   -6.9072   -1.6415   -2.3272 C   0  0  0  0  0  0  0  0  0  0  0  0
   -7.9444   -2.4691   -2.7063 C   0  0  0  0  0  0  0  0  0  0  0  0
   -9.2414   -1.9723   -2.7785 C   0  0  0  0  0  0  0  0  0  0  0  0
  -10.6222   -2.9206   -3.3305 S   0  0  0  0  0  0  0  0  0  0  0  0
   -9.8538   -4.2894   -4.2437 C   0  0  0  0  0  0  0  0  0  0  0  0
   -9.4921   -0.6576   -2.3914 C   0  0  0  0  0  0  0  0  0  0  0  0
   -8.4554    0.1732   -2.0270 C   0  0  0  0  0  0  0  0  0  0  0  0
   -3.6309    0.8153   -1.9883 C   0  0  0  0  0  0  0  0  0  0  0  0
   -2.9993    1.4595   -0.5049 S   0  0  0  0  0  0  0  0  0  0  0  0
   -1.3491    1.0967   -1.0141 C   0  0  0  0  0  0  0  0  0  0  0  0
   -1.3173    0.5209   -2.2659 C   0  0  0  0  0  0  0  0  0  0  0  0
   -0.1715    0.0147   -2.8656 N   0  0  0  0  0  0  0  0  0  0  0  0
    0.9970    0.7715   -2.9551 C   0  0  0  0  0  0  0  0  0  0  0  0
    0.9435    2.1577   -3.1076 C   0  0  0  0  0  0  0  0  0  0  0  0
    2.1047    2.8793   -3.2647 C   0  0  0  0  0  0  0  0  0  0  0  0
    3.3460    2.2463   -3.2514 C   0  0  0  0  0  0  0  0  0  0  0  0
    4.7523    3.2954   -3.4532 S   0  0  0  0  0  0  0  0  0  0  0  0
    6.1650    2.1611   -3.3501 C   0  0  0  0  0  0  0  0  0  0  0  0
    3.4043    0.8699   -3.0753 C   0  0  0  0  0  0  0  0  0  0  0  0
    2.2387    0.1418   -2.9313 C   0  0  0  0  0  0  0  0  0  0  0  0
   -0.2961   -1.2207   -3.5201 C   0  0  0  0  0  0  0  0  0  0  0  0
   -1.0568   -2.2340   -2.9360 C   0  0  0  0  0  0  0  0  0  0  0  0
   -1.2852   -3.4092   -3.6144 C   0  0  0  0  0  0  0  0  0  0  0  0
   -0.7411   -3.6083   -4.8798 C   0  0  0  0  0  0  0  0  0  0  0  0
   -1.1309   -5.1389   -5.6718 S   0  0  0  0  0  0  0  0  0  0  0  0
   -0.2124   -5.0680   -7.2353 C   0  0  0  0  0  0  0  0  0  0  0  0
    0.0572   -2.6244   -5.4431 C   0  0  0  0  0  0  0  0  0  0  0  0
    0.2731   -1.4390   -4.7695 C   0  0  0  0  0  0  0  0  0  0  0  0
   -2.6086    0.4119   -2.8375 C   0  0  0  0  0  0  0  0  0  0  0  0
   -3.1735   -0.3086   -4.2934 S   0  0  0  0  0  0  0  0  0  0  0  0
   -0.2526    0.9815   -0.0780 C   0  0  0  0  0  0  0  0  0  0  0  0
    0.6614    1.8396    0.4979 C   0  0  0  0  0  0  0  0  0  0  0  0
    0.8582    3.1796    0.2381 N   0  0  0  0  0  0  0  0  0  0  0  0
    2.1615    3.7033    0.3821 C   0  0  0  0  0  0  0  0  0  0  0  0
    2.3432    4.9361    0.9996 C   0  0  0  0  0  0  0  0  0  0  0  0
    3.6078    5.4681    1.1527 C   0  0  0  0  0  0  0  0  0  0  0  0
    4.7162    4.7655    0.6991 C   0  0  0  0  0  0  0  0  0  0  0  0
    6.3699    5.3567    0.8336 S   0  0  0  0  0  0  0  0  0  0  0  0
    6.2481    6.6761    2.0764 C   0  0  0  0  0  0  0  0  0  0  0  0
    4.5384    3.5326    0.0782 C   0  0  0  0  0  0  0  0  0  0  0  0
    3.2760    3.0075   -0.0839 C   0  0  0  0  0  0  0  0  0  0  0  0
   -0.1301    4.0368   -0.2588 C   0  0  0  0  0  0  0  0  0  0  0  0
   -1.4348    4.0072    0.2161 C   0  0  0  0  0  0  0  0  0  0  0  0
   -2.3856    4.8836   -0.2783 C   0  0  0  0  0  0  0  0  0  0  0  0
   -2.0391    5.8205   -1.2401 C   0  0  0  0  0  0  0  0  0  0  0  0
   -3.1339    7.0137   -1.9471 S   0  0  0  0  0  0  0  0  0  0  0  0
   -4.7085    6.7517   -1.0847 C   0  0  0  0  0  0  0  0  0  0  0  0
   -0.7240    5.8685   -1.7017 C   0  0  0  0  0  0  0  0  0  0  0  0
    0.2161    4.9909   -1.2195 C   0  0  0  0  0  0  0  0  0  0  0  0
    1.5245    1.1260    1.3834 C   0  0  0  0  0  0  0  0  0  0  0  0
    2.7981    1.5719    2.4663 S   0  0  0  0  0  0  0  0  0  0  0  0
    3.0520   -0.1076    2.9294 C   0  0  0  0  0  0  0  0  0  0  0  0
    2.1577   -0.9585    2.2959 C   0  0  0  0  0  0  0  0  0  0  0  0
    2.1202   -2.3538    2.3265 N   0  0  0  0  0  0  0  0  0  0  0  0
    2.0967   -2.9585    1.0552 C   0  0  0  0  0  0  0  0  0  0  0  0
    1.1756   -3.9444    0.7170 C   0  0  0  0  0  0  0  0  0  0  0  0
    1.1539   -4.4786   -0.5574 C   0  0  0  0  0  0  0  0  0  0  0  0
    2.0585   -4.0391   -1.5147 C   0  0  0  0  0  0  0  0  0  0  0  0
    2.1232   -4.6461   -3.1691 S   0  0  0  0  0  0  0  0  0  0  0  0
    1.1246   -6.1589   -3.1091 C   0  0  0  0  0  0  0  0  0  0  0  0
    2.9822   -3.0514   -1.1787 C   0  0  0  0  0  0  0  0  0  0  0  0
    2.9990   -2.5135    0.0875 C   0  0  0  0  0  0  0  0  0  0  0  0
    1.8385   -3.0612    3.4885 C   0  0  0  0  0  0  0  0  0  0  0  0
    2.1817   -4.4124    3.5972 C   0  0  0  0  0  0  0  0  0  0  0  0
    1.9465   -5.0959    4.7680 C   0  0  0  0  0  0  0  0  0  0  0  0
    1.3785   -4.4534    5.8680 C   0  0  0  0  0  0  0  0  0  0  0  0
    1.1758   -5.4310    7.3259 S   0  0  0  0  0  0  0  0  0  0  0  0
    0.4406   -4.2846    8.5246 C   0  0  0  0  0  0  0  0  0  0  0  0
    1.0270   -3.1146    5.7633 C   0  0  0  0  0  0  0  0  0  0  0  0
    1.2476   -2.4302    4.5834 C   0  0  0  0  0  0  0  0  0  0  0  0
    1.3029   -0.2356    1.4304 C   0  0  0  0  0  0  0  0  0  0  0  0
   -0.0133   -0.7005    0.4280 S   0  0  0  0  0  0  0  0  0  0  0  0
    4.1535   -0.3685    3.7923 C   0  0  0  0  0  0  0  0  0  0  0  0
    4.4168   -1.4761    4.5736 C   0  0  0  0  0  0  0  0  0  0  0  0
    5.5958   -1.3499    5.3047 C   0  0  0  0  0  0  0  0  0  0  0  0
    6.2114   -2.5052    6.4610 S   0  0  0  0  0  0  0  0  0  0  0  0
    5.1799   -3.9893    6.1950 C   0  0  0  0  0  0  0  0  0  0  0  0
    5.5193   -4.6951    4.8973 C   0  0  0  0  0  0  0  0  0  0  0  0
    6.2839   -0.1458    5.0622 C   0  0  0  0  0  0  0  0  0  0  0  0
    5.4098    0.8270    3.9030 S   0  0  0  0  0  0  0  0  0  0  0  0
    7.4826    0.1913    5.6980 C   0  0  0  0  0  0  0  0  0  0  0  0
    8.3128    1.2644    5.5007 C   0  0  0  0  0  0  0  0  0  0  0  0
    8.1619    2.3034    4.4640 C   0  0  0  0  0  0  0  0  0  0  0  0
    7.2226    2.4619    3.7033 O   0  0  0  0  0  0  0  0  0  0  0  0
    9.3803    3.1122    4.5436 C   0  0  0  0  0  0  0  0  0  0  0  0
   10.1589    2.6516    5.5856 C   0  0  0  0  0  0  0  0  0  0  0  0
   11.6133    3.5454    5.8096 S   0  0  0  0  0  0  0  0  0  0  0  0
   11.1877    4.5694    4.4484 C   0  0  0  0  0  0  0  0  0  0  0  0
   11.9405    5.6215    3.9515 C   0  0  0  0  0  0  0  0  0  0  0  0
   11.4606    6.3097    2.8546 C   0  0  0  0  0  0  0  0  0  0  0  0
   10.2509    5.9560    2.2542 C   0  0  0  0  0  0  0  0  0  0  0  0
    9.4936    4.9166    2.7443 C   0  0  0  0  0  0  0  0  0  0  0  0
    9.9533    4.2124    3.8583 C   0  0  0  0  0  0  0  0  0  0  0  0
    9.5462    1.5115    6.2237 C   0  0  0  0  0  0  0  0  0  0  0  0
   10.0720    0.8504    7.3059 C   0  0  0  0  0  0  0  0  0  0  0  0
   11.2942    1.2581    7.8792 C   0  0  0  0  0  0  0  0  0  0  0  0
   12.2889    1.5757    8.3561 N   0  0  0  0  0  0  0  0  0  0  0  0
    9.4941   -0.2501    7.9663 C   0  0  0  0  0  0  0  0  0  0  0  0
    9.0856   -1.1451    8.5594 N   0  0  0  0  0  0  0  0  0  0  0  0
   -6.8502    0.2597   -4.3079 H   0  0  0  0  0  0  0  0  0  0  0  0
   -7.5359   -6.2907   -9.4857 H   0  0  0  0  0  0  0  0  0  0  0  0
   -5.3799   -7.4595   -9.7782 H   0  0  0  0  0  0  0  0  0  0  0  0
   -3.3321   -6.5963   -8.7356 H   0  0  0  0  0  0  0  0  0  0  0  0
   -3.3934   -4.5185   -7.3762 H   0  0  0  0  0  0  0  0  0  0  0  0
   -7.1022   -0.1726    0.5369 H   0  0  0  0  0  0  0  0  0  0  0  0
   -7.3372    1.2084    2.5625 H   0  0  0  0  0  0  0  0  0  0  0  0
   -5.9475    5.9882    3.7932 H   0  0  0  0  0  0  0  0  0  0  0  0
   -6.4138    5.9817    2.0802 H   0  0  0  0  0  0  0  0  0  0  0  0
   -4.8404    5.2816    2.5971 H   0  0  0  0  0  0  0  0  0  0  0  0
   -5.6040    4.5173    0.4973 H   0  0  0  0  0  0  0  0  0  0  0  0
   -5.3341    3.1358   -1.5095 H   0  0  0  0  0  0  0  0  0  0  0  0
   -5.9015   -2.0327   -2.2794 H   0  0  0  0  0  0  0  0  0  0  0  0
   -7.7322   -3.5004   -2.9398 H   0  0  0  0  0  0  0  0  0  0  0  0
  -10.6589   -4.7515   -4.8060 H   0  0  0  0  0  0  0  0  0  0  0  0
   -9.4197   -5.0112   -3.5576 H   0  0  0  0  0  0  0  0  0  0  0  0
   -9.1078   -3.8986   -4.9291 H   0  0  0  0  0  0  0  0  0  0  0  0
  -10.5040   -0.2859   -2.4166 H   0  0  0  0  0  0  0  0  0  0  0  0
   -8.6507    1.2028   -1.7709 H   0  0  0  0  0  0  0  0  0  0  0  0
   -0.0125    2.6601   -3.1249 H   0  0  0  0  0  0  0  0  0  0  0  0
    2.0676    3.9459   -3.4218 H   0  0  0  0  0  0  0  0  0  0  0  0
    7.0471    2.7862   -3.4487 H   0  0  0  0  0  0  0  0  0  0  0  0
    6.1746    1.6630   -2.3851 H   0  0  0  0  0  0  0  0  0  0  0  0
    6.1276    1.4436   -4.1648 H   0  0  0  0  0  0  0  0  0  0  0  0
    4.3488    0.3503   -3.0505 H   0  0  0  0  0  0  0  0  0  0  0  0
    2.2820   -0.9297   -2.8047 H   0  0  0  0  0  0  0  0  0  0  0  0
   -1.4753   -2.0864   -1.9507 H   0  0  0  0  0  0  0  0  0  0  0  0
   -1.8985   -4.1819   -3.1741 H   0  0  0  0  0  0  0  0  0  0  0  0
   -0.4085   -6.0115   -7.7356 H   0  0  0  0  0  0  0  0  0  0  0  0
    0.8505   -4.9709   -7.0336 H   0  0  0  0  0  0  0  0  0  0  0  0
   -0.5762   -4.2445   -7.8432 H   0  0  0  0  0  0  0  0  0  0  0  0
    0.5020   -2.7540   -6.4159 H   0  0  0  0  0  0  0  0  0  0  0  0
    0.8710   -0.6648   -5.2267 H   0  0  0  0  0  0  0  0  0  0  0  0
    1.4835    5.4828    1.3586 H   0  0  0  0  0  0  0  0  0  0  0  0
    3.7139    6.4285    1.6308 H   0  0  0  0  0  0  0  0  0  0  0  0
    5.7248    7.5352    1.6664 H   0  0  0  0  0  0  0  0  0  0  0  0
    5.7480    6.2905    2.9597 H   0  0  0  0  0  0  0  0  0  0  0  0
    7.2693    6.9516    2.3215 H   0  0  0  0  0  0  0  0  0  0  0  0
    5.4054    2.9947   -0.2707 H   0  0  0  0  0  0  0  0  0  0  0  0
    3.1429    2.0533   -0.5712 H   0  0  0  0  0  0  0  0  0  0  0  0
   -1.7081    3.3039    0.9888 H   0  0  0  0  0  0  0  0  0  0  0  0
   -3.3899    4.8198    0.1053 H   0  0  0  0  0  0  0  0  0  0  0  0
   -5.3760    7.5238   -1.4548 H   0  0  0  0  0  0  0  0  0  0  0  0
   -5.1080    5.7734   -1.3341 H   0  0  0  0  0  0  0  0  0  0  0  0
   -4.5665    6.8714   -0.0141 H   0  0  0  0  0  0  0  0  0  0  0  0
   -0.4559    6.6034   -2.4453 H   0  0  0  0  0  0  0  0  0  0  0  0
    1.2332    5.0386   -1.5744 H   0  0  0  0  0  0  0  0  0  0  0  0
    0.4596   -4.2823    1.4513 H   0  0  0  0  0  0  0  0  0  0  0  0
    0.4159   -5.2272   -0.7956 H   0  0  0  0  0  0  0  0  0  0  0  0
    1.2731   -6.6492   -4.0660 H   0  0  0  0  0  0  0  0  0  0  0  0
    0.0745   -5.9113   -2.9899 H   0  0  0  0  0  0  0  0  0  0  0  0
    1.4802   -6.7968   -2.3055 H   0  0  0  0  0  0  0  0  0  0  0  0
    3.6942   -2.7245   -1.9213 H   0  0  0  0  0  0  0  0  0  0  0  0
    3.7171   -1.7479    0.3425 H   0  0  0  0  0  0  0  0  0  0  0  0
    2.6461   -4.9138    2.7618 H   0  0  0  0  0  0  0  0  0  0  0  0
    2.2116   -6.1386    4.8533 H   0  0  0  0  0  0  0  0  0  0  0  0
   -0.5242   -3.9387    8.1651 H   0  0  0  0  0  0  0  0  0  0  0  0
    0.3089   -4.8614    9.4348 H   0  0  0  0  0  0  0  0  0  0  0  0
    1.1163   -3.4546    8.7098 H   0  0  0  0  0  0  0  0  0  0  0  0
    0.5766   -2.5891    6.5896 H   0  0  0  0  0  0  0  0  0  0  0  0
    0.9697   -1.3894    4.5111 H   0  0  0  0  0  0  0  0  0  0  0  0
    3.7563   -2.3170    4.6379 H   0  0  0  0  0  0  0  0  0  0  0  0
    5.4173   -4.6191    7.0522 H   0  0  0  0  0  0  0  0  0  0  0  0
    4.1308   -3.7036    6.2507 H   0  0  0  0  0  0  0  0  0  0  0  0
    5.3148   -4.0577    4.0398 H   0  0  0  0  0  0  0  0  0  0  0  0
    6.5719   -4.9680    4.8823 H   0  0  0  0  0  0  0  0  0  0  0  0
    4.9214   -5.5991    4.8068 H   0  0  0  0  0  0  0  0  0  0  0  0
    7.7914   -0.5342    6.4429 H   0  0  0  0  0  0  0  0  0  0  0  0
   12.8792    5.8874    4.4119 H   0  0  0  0  0  0  0  0  0  0  0  0
   12.0344    7.1304    2.4514 H   0  0  0  0  0  0  0  0  0  0  0  0
    9.9098    6.5031    1.3879 H   0  0  0  0  0  0  0  0  0  0  0  0
    8.5624    4.6249    2.2846 H   0  0  0  0  0  0  0  0  0  0  0  0
  1  2  2  0  0  0  0
  2  3  1  0  0  0  0
  3  4  2  0  0  0  0
  3  5  1  0  0  0  0
  5  6  2  0  0  0  0
  6  7  1  0  0  0  0
  7  8  1  0  0  0  0
  8  9  2  0  0  0  0
  9 10  1  0  0  0  0
 10 11  2  0  0  0  0
 11 12  1  0  0  0  0
 12 13  2  0  0  0  0
  6 14  1  0  0  0  0
 14 15  2  0  0  0  0
 15 16  1  0  0  0  0
 16 17  3  0  0  0  0
 15 18  1  0  0  0  0
 18 19  3  0  0  0  0
  1 20  1  0  0  0  0
 20 21  2  0  0  0  0
 21 22  1  0  0  0  0
 22 23  1  0  0  0  0
 23 24  2  0  0  0  0
 24 25  1  0  0  0  0
 25 26  2  0  0  0  0
 26 27  1  0  0  0  0
 27 28  1  0  0  0  0
 26 29  1  0  0  0  0
 29 30  2  0  0  0  0
 22 31  1  0  0  0  0
 31 32  2  0  0  0  0
 32 33  1  0  0  0  0
 33 34  2  0  0  0  0
 34 35  1  0  0  0  0
 35 36  1  0  0  0  0
 34 37  1  0  0  0  0
 37 38  2  0  0  0  0
 21 39  1  0  0  0  0
 39 40  1  0  0  0  0
 40 41  1  0  0  0  0
 41 42  2  0  0  0  0
 42 43  1  0  0  0  0
 43 44  1  0  0  0  0
 44 45  2  0  0  0  0
 45 46  1  0  0  0  0
 46 47  2  0  0  0  0
 47 48  1  0  0  0  0
 48 49  1  0  0  0  0
 47 50  1  0  0  0  0
 50 51  2  0  0  0  0
 43 52  1  0  0  0  0
 52 53  2  0  0  0  0
 53 54  1  0  0  0  0
 54 55  2  0  0  0  0
 55 56  1  0  0  0  0
 56 57  1  0  0  0  0
 55 58  1  0  0  0  0
 58 59  2  0  0  0  0
 42 60  1  0  0  0  0
 60 61  1  0  0  0  0
 41 62  1  0  0  0  0
 62 63  2  0  0  0  0
 63 64  1  0  0  0  0
 64 65  1  0  0  0  0
 65 66  2  0  0  0  0
 66 67  1  0  0  0  0
 67 68  2  0  0  0  0
 68 69  1  0  0  0  0
 69 70  1  0  0  0  0
 68 71  1  0  0  0  0
 71 72  2  0  0  0  0
 64 73  1  0  0  0  0
 73 74  2  0  0  0  0
 74 75  1  0  0  0  0
 75 76  2  0  0  0  0
 76 77  1  0  0  0  0
 77 78  1  0  0  0  0
 76 79  1  0  0  0  0
 79 80  2  0  0  0  0
 63 81  1  0  0  0  0
 81 82  1  0  0  0  0
 82 83  1  0  0  0  0
 83 84  2  0  0  0  0
 84 85  1  0  0  0  0
 85 86  1  0  0  0  0
 86 87  2  0  0  0  0
 87 88  1  0  0  0  0
 88 89  2  0  0  0  0
 89 90  1  0  0  0  0
 90 91  1  0  0  0  0
 89 92  1  0  0  0  0
 92 93  2  0  0  0  0
 85 94  1  0  0  0  0
 94 95  2  0  0  0  0
 95 96  1  0  0  0  0
 96 97  2  0  0  0  0
 97 98  1  0  0  0  0
 98 99  1  0  0  0  0
 97100  1  0  0  0  0
100101  2  0  0  0  0
 84102  1  0  0  0  0
102103  1  0  0  0  0
 83104  1  0  0  0  0
104105  2  0  0  0  0
105106  1  0  0  0  0
106107  1  0  0  0  0
107108  1  0  0  0  0
108109  1  0  0  0  0
106110  2  0  0  0  0
110111  1  0  0  0  0
110112  1  0  0  0  0
112113  2  0  0  0  0
113114  1  0  0  0  0
114115  2  0  0  0  0
114116  1  0  0  0  0
116117  2  0  0  0  0
117118  1  0  0  0  0
118119  1  0  0  0  0
119120  2  0  0  0  0
120121  1  0  0  0  0
121122  2  0  0  0  0
122123  1  0  0  0  0
123124  2  0  0  0  0
117125  1  0  0  0  0
125126  2  0  0  0  0
126127  1  0  0  0  0
127128  3  0  0  0  0
126129  1  0  0  0  0
129130  3  0  0  0  0
 14  2  1  0  0  0  0
 61 20  1  0  0  0  0
103 62  1  0  0  0  0
111104  1  0  0  0  0
125113  1  0  0  0  0
 13  5  1  0  0  0  0
 30 23  1  0  0  0  0
 38 31  1  0  0  0  0
 60 39  2  0  0  0  0
 72 65  1  0  0  0  0
 80 73  1  0  0  0  0
102 81  2  0  0  0  0
124116  1  0  0  0  0
 13  8  1  0  0  0  0
 51 44  1  0  0  0  0
 59 52  1  0  0  0  0
 93 86  1  0  0  0  0
101 94  1  0  0  0  0
124119  1  0  0  0  0
  1131  1  0  0  0  0
  9132  1  0  0  0  0
 10133  1  0  0  0  0
 11134  1  0  0  0  0
 12135  1  0  0  0  0
 24136  1  0  0  0  0
 25137  1  0  0  0  0
 28138  1  0  0  0  0
 28139  1  0  0  0  0
 28140  1  0  0  0  0
 29141  1  0  0  0  0
 30142  1  0  0  0  0
 32143  1  0  0  0  0
 33144  1  0  0  0  0
 36145  1  0  0  0  0
 36146  1  0  0  0  0
 36147  1  0  0  0  0
 37148  1  0  0  0  0
 38149  1  0  0  0  0
 45150  1  0  0  0  0
 46151  1  0  0  0  0
 49152  1  0  0  0  0
 49153  1  0  0  0  0
 49154  1  0  0  0  0
 50155  1  0  0  0  0
 51156  1  0  0  0  0
 53157  1  0  0  0  0
 54158  1  0  0  0  0
 57159  1  0  0  0  0
 57160  1  0  0  0  0
 57161  1  0  0  0  0
 58162  1  0  0  0  0
 59163  1  0  0  0  0
 66164  1  0  0  0  0
 67165  1  0  0  0  0
 70166  1  0  0  0  0
 70167  1  0  0  0  0
 70168  1  0  0  0  0
 71169  1  0  0  0  0
 72170  1  0  0  0  0
 74171  1  0  0  0  0
 75172  1  0  0  0  0
 78173  1  0  0  0  0
 78174  1  0  0  0  0
 78175  1  0  0  0  0
 79176  1  0  0  0  0
 80177  1  0  0  0  0
 87178  1  0  0  0  0
 88179  1  0  0  0  0
 91180  1  0  0  0  0
 91181  1  0  0  0  0
 91182  1  0  0  0  0
 92183  1  0  0  0  0
 93184  1  0  0  0  0
 95185  1  0  0  0  0
 96186  1  0  0  0  0
 99187  1  0  0  0  0
 99188  1  0  0  0  0
 99189  1  0  0  0  0
100190  1  0  0  0  0
101191  1  0  0  0  0
105192  1  0  0  0  0
108193  1  0  0  0  0
108194  1  0  0  0  0
109195  1  0  0  0  0
109196  1  0  0  0  0
109197  1  0  0  0  0
112198  1  0  0  0  0
120199  1  0  0  0  0
121200  1  0  0  0  0
122201  1  0  0  0  0
123202  1  0  0  0  0
M  END
