
  xtb     02172218523D
 energy: -342.783955148449 gnorm: 0.000376880455 xtb: 6.4.1 (unknown)
202220  0     0  0            999 V2000
    4.6105    7.4569   -3.5211 C   0  0  0  0  0  0  0  0  0  0  0  0
    4.9339    8.2492   -4.5767 C   0  0  0  0  0  0  0  0  0  0  0  0
    5.8763    9.3973   -4.3910 C   0  0  0  0  0  0  0  0  0  0  0  0
    6.2417    9.8680   -3.3382 O   0  0  0  0  0  0  0  0  0  0  0  0
    6.2720    9.7705   -5.7529 C   0  0  0  0  0  0  0  0  0  0  0  0
    5.5516    9.0166   -6.6617 C   0  0  0  0  0  0  0  0  0  0  0  0
    5.9040    9.3864   -8.3047 S   0  0  0  0  0  0  0  0  0  0  0  0
    7.0758   10.5821   -7.7786 C   0  0  0  0  0  0  0  0  0  0  0  0
    7.8537   11.3771   -8.6048 C   0  0  0  0  0  0  0  0  0  0  0  0
    8.7216   12.2769   -8.0186 C   0  0  0  0  0  0  0  0  0  0  0  0
    8.8154   12.3891   -6.6300 C   0  0  0  0  0  0  0  0  0  0  0  0
    8.0462   11.6042   -5.8021 C   0  0  0  0  0  0  0  0  0  0  0  0
    7.1623   10.6841   -6.3705 C   0  0  0  0  0  0  0  0  0  0  0  0
    4.6208    8.1462   -5.9904 C   0  0  0  0  0  0  0  0  0  0  0  0
    3.5312    7.5555   -6.5813 C   0  0  0  0  0  0  0  0  0  0  0  0
    2.4721    6.9598   -5.8739 C   0  0  0  0  0  0  0  0  0  0  0  0
    1.5536    6.5143   -5.3471 N   0  0  0  0  0  0  0  0  0  0  0  0
    3.3441    7.5776   -7.9779 C   0  0  0  0  0  0  0  0  0  0  0  0
    3.1875    7.5536   -9.1147 N   0  0  0  0  0  0  0  0  0  0  0  0
    4.0882    6.1414   -3.5445 C   0  0  0  0  0  0  0  0  0  0  0  0
    4.2012    5.1767   -4.5256 C   0  0  0  0  0  0  0  0  0  0  0  0
    3.6206    3.9589   -4.1747 C   0  0  0  0  0  0  0  0  0  0  0  0
    3.6602    2.5236   -5.2035 S   0  0  0  0  0  0  0  0  0  0  0  0
    2.5132    3.0460   -6.5340 C   0  0  0  0  0  0  0  0  0  0  0  0
    1.1143    3.3014   -6.0134 C   0  0  0  0  0  0  0  0  0  0  0  0
    3.0329    3.9727   -2.9166 C   0  0  0  0  0  0  0  0  0  0  0  0
    3.2602    5.5067   -2.1440 S   0  0  0  0  0  0  0  0  0  0  0  0
    2.2944    2.9469   -2.2795 C   0  0  0  0  0  0  0  0  0  0  0  0
    1.6531    3.0602   -1.0565 C   0  0  0  0  0  0  0  0  0  0  0  0
    1.6481    4.2337   -0.2785 N   0  0  0  0  0  0  0  0  0  0  0  0
    2.5425    4.3371    0.7916 C   0  0  0  0  0  0  0  0  0  0  0  0
    2.7787    5.5794    1.3852 C   0  0  0  0  0  0  0  0  0  0  0  0
    3.6534    5.6921    2.4416 C   0  0  0  0  0  0  0  0  0  0  0  0
    4.3285    4.5735    2.9261 C   0  0  0  0  0  0  0  0  0  0  0  0
    5.3795    4.8176    4.3291 S   0  0  0  0  0  0  0  0  0  0  0  0
    6.4113    3.3235    4.3566 C   0  0  0  0  0  0  0  0  0  0  0  0
    4.1309    3.3448    2.3157 C   0  0  0  0  0  0  0  0  0  0  0  0
    3.2522    3.2321    1.2547 C   0  0  0  0  0  0  0  0  0  0  0  0
    0.4399    4.9546   -0.3196 C   0  0  0  0  0  0  0  0  0  0  0  0
   -0.1635    5.1921   -1.5527 C   0  0  0  0  0  0  0  0  0  0  0  0
   -1.3410    5.9063   -1.6410 C   0  0  0  0  0  0  0  0  0  0  0  0
   -1.9401    6.3990   -0.4898 C   0  0  0  0  0  0  0  0  0  0  0  0
   -3.4435    7.3361   -0.4955 S   0  0  0  0  0  0  0  0  0  0  0  0
   -3.5520    7.9282   -2.2087 C   0  0  0  0  0  0  0  0  0  0  0  0
   -1.3645    6.1301    0.7491 C   0  0  0  0  0  0  0  0  0  0  0  0
   -0.1927    5.4097    0.8365 C   0  0  0  0  0  0  0  0  0  0  0  0
    0.9889    1.8716   -0.7117 C   0  0  0  0  0  0  0  0  0  0  0  0
    0.1950    1.3207    0.7171 S   0  0  0  0  0  0  0  0  0  0  0  0
    0.0315   -0.2908    0.0218 C   0  0  0  0  0  0  0  0  0  0  0  0
    0.5876   -0.3823   -1.2410 C   0  0  0  0  0  0  0  0  0  0  0  0
    0.7000   -1.5477   -1.9801 N   0  0  0  0  0  0  0  0  0  0  0  0
    0.7410   -1.4531   -3.3779 C   0  0  0  0  0  0  0  0  0  0  0  0
    1.6165   -2.2389   -4.1277 C   0  0  0  0  0  0  0  0  0  0  0  0
    1.6868   -2.0854   -5.4937 C   0  0  0  0  0  0  0  0  0  0  0  0
    0.8876   -1.1485   -6.1469 C   0  0  0  0  0  0  0  0  0  0  0  0
    1.1051   -1.0079   -7.8931 S   0  0  0  0  0  0  0  0  0  0  0  0
   -0.1623    0.1911   -8.3979 C   0  0  0  0  0  0  0  0  0  0  0  0
   -0.0041   -0.3843   -5.4087 C   0  0  0  0  0  0  0  0  0  0  0  0
   -0.0733   -0.5363   -4.0375 C   0  0  0  0  0  0  0  0  0  0  0  0
    1.0070   -2.7475   -1.3223 C   0  0  0  0  0  0  0  0  0  0  0  0
    0.4486   -3.9528   -1.7435 C   0  0  0  0  0  0  0  0  0  0  0  0
    0.6958   -5.1130   -1.0400 C   0  0  0  0  0  0  0  0  0  0  0  0
    1.4943   -5.0943    0.1021 C   0  0  0  0  0  0  0  0  0  0  0  0
    1.6527   -6.6096    0.9972 S   0  0  0  0  0  0  0  0  0  0  0  0
    3.0758   -6.3154    2.0860 C   0  0  0  0  0  0  0  0  0  0  0  0
    2.0945   -3.9063    0.4935 C   0  0  0  0  0  0  0  0  0  0  0  0
    1.8631   -2.7502   -0.2239 C   0  0  0  0  0  0  0  0  0  0  0  0
    1.1222    0.8625   -1.6529 C   0  0  0  0  0  0  0  0  0  0  0  0
    2.0595    1.3735   -3.0143 S   0  0  0  0  0  0  0  0  0  0  0  0
   -0.4648   -1.3407    0.8688 C   0  0  0  0  0  0  0  0  0  0  0  0
   -1.5625   -2.1695    0.7332 C   0  0  0  0  0  0  0  0  0  0  0  0
   -2.4901   -2.0862   -0.2853 N   0  0  0  0  0  0  0  0  0  0  0  0
   -3.3234   -3.1870   -0.5608 C   0  0  0  0  0  0  0  0  0  0  0  0
   -2.7909   -4.4705   -0.6663 C   0  0  0  0  0  0  0  0  0  0  0  0
   -3.6192   -5.5540   -0.8618 C   0  0  0  0  0  0  0  0  0  0  0  0
   -4.9950   -5.3772   -0.9562 C   0  0  0  0  0  0  0  0  0  0  0  0
   -5.9807   -6.8267   -1.1649 S   0  0  0  0  0  0  0  0  0  0  0  0
   -7.6185   -6.2937   -0.5823 C   0  0  0  0  0  0  0  0  0  0  0  0
   -5.5264   -4.0955   -0.9001 C   0  0  0  0  0  0  0  0  0  0  0  0
   -4.6965   -3.0103   -0.7010 C   0  0  0  0  0  0  0  0  0  0  0  0
   -2.7612   -0.8541   -0.8975 C   0  0  0  0  0  0  0  0  0  0  0  0
   -3.0150   -0.8030   -2.2667 C   0  0  0  0  0  0  0  0  0  0  0  0
   -3.2711    0.4054   -2.8809 C   0  0  0  0  0  0  0  0  0  0  0  0
   -3.2687    1.5847   -2.1425 C   0  0  0  0  0  0  0  0  0  0  0  0
   -3.5684    3.1072   -2.9930 S   0  0  0  0  0  0  0  0  0  0  0  0
   -4.4777    4.0556   -1.7366 C   0  0  0  0  0  0  0  0  0  0  0  0
   -3.0260    1.5389   -0.7763 C   0  0  0  0  0  0  0  0  0  0  0  0
   -2.7917    0.3275   -0.1590 C   0  0  0  0  0  0  0  0  0  0  0  0
   -1.6488   -3.0794    1.8212 C   0  0  0  0  0  0  0  0  0  0  0  0
   -2.7290   -4.3632    2.2212 S   0  0  0  0  0  0  0  0  0  0  0  0
   -1.8252   -4.6872    3.7021 C   0  0  0  0  0  0  0  0  0  0  0  0
   -0.6882   -3.8556    3.8189 C   0  0  0  0  0  0  0  0  0  0  0  0
    0.2912   -3.9521    4.7760 N   0  0  0  0  0  0  0  0  0  0  0  0
    0.6921   -5.1803    5.3333 C   0  0  0  0  0  0  0  0  0  0  0  0
    0.6731   -6.3564    4.5812 C   0  0  0  0  0  0  0  0  0  0  0  0
    1.0130   -7.5538    5.1672 C   0  0  0  0  0  0  0  0  0  0  0  0
    1.3973   -7.6021    6.5067 C   0  0  0  0  0  0  0  0  0  0  0  0
    1.7446   -9.1927    7.1867 S   0  0  0  0  0  0  0  0  0  0  0  0
    1.5505   -8.9208    8.9714 C   0  0  0  0  0  0  0  0  0  0  0  0
    1.4877   -6.4240    7.2344 C   0  0  0  0  0  0  0  0  0  0  0  0
    1.1280   -5.2235    6.6536 C   0  0  0  0  0  0  0  0  0  0  0  0
    1.0681   -2.8073    5.0418 C   0  0  0  0  0  0  0  0  0  0  0  0
    0.4485   -1.5841    5.2827 C   0  0  0  0  0  0  0  0  0  0  0  0
    1.1960   -0.4326    5.4374 C   0  0  0  0  0  0  0  0  0  0  0  0
    2.5803   -0.4905    5.3548 C   0  0  0  0  0  0  0  0  0  0  0  0
    3.6312    0.9211    5.4466 S   0  0  0  0  0  0  0  0  0  0  0  0
    2.4939    2.3323    5.3675 C   0  0  0  0  0  0  0  0  0  0  0  0
    3.2066   -1.7249    5.1831 C   0  0  0  0  0  0  0  0  0  0  0  0
    2.4612   -2.8716    5.0300 C   0  0  0  0  0  0  0  0  0  0  0  0
   -0.6399   -2.9279    2.7616 C   0  0  0  0  0  0  0  0  0  0  0  0
    0.4233   -1.6271    2.3603 S   0  0  0  0  0  0  0  0  0  0  0  0
   -2.2085   -5.6282    4.6633 C   0  0  0  0  0  0  0  0  0  0  0  0
   -3.1618   -6.6132    4.6069 C   0  0  0  0  0  0  0  0  0  0  0  0
   -4.0387   -6.9400    3.4637 C   0  0  0  0  0  0  0  0  0  0  0  0
   -4.2131   -6.2913    2.4471 O   0  0  0  0  0  0  0  0  0  0  0  0
   -4.6880   -8.2022    3.8202 C   0  0  0  0  0  0  0  0  0  0  0  0
   -4.2920   -8.5705    5.0897 C   0  0  0  0  0  0  0  0  0  0  0  0
   -5.0150  -10.0323    5.6406 S   0  0  0  0  0  0  0  0  0  0  0  0
   -5.8781  -10.1742    4.1176 C   0  0  0  0  0  0  0  0  0  0  0  0
   -6.7474  -11.1935    3.7639 C   0  0  0  0  0  0  0  0  0  0  0  0
   -7.3328  -11.1501    2.5139 C   0  0  0  0  0  0  0  0  0  0  0  0
   -7.0568  -10.1109    1.6232 C   0  0  0  0  0  0  0  0  0  0  0  0
   -6.1977   -9.0924    1.9665 C   0  0  0  0  0  0  0  0  0  0  0  0
   -5.5991   -9.1109    3.2278 C   0  0  0  0  0  0  0  0  0  0  0  0
   -3.3660   -7.6106    5.6389 C   0  0  0  0  0  0  0  0  0  0  0  0
   -2.8139   -7.6926    6.8948 C   0  0  0  0  0  0  0  0  0  0  0  0
   -1.9774   -6.7392    7.4976 C   0  0  0  0  0  0  0  0  0  0  0  0
   -1.3124   -6.0009    8.0768 N   0  0  0  0  0  0  0  0  0  0  0  0
   -3.0812   -8.7858    7.7439 C   0  0  0  0  0  0  0  0  0  0  0  0
   -3.2679   -9.6664    8.4562 N   0  0  0  0  0  0  0  0  0  0  0  0
    4.8484    7.8622   -2.5430 H   0  0  0  0  0  0  0  0  0  0  0  0
    7.7780   11.2900   -9.6773 H   0  0  0  0  0  0  0  0  0  0  0  0
    9.3371   12.9044   -8.6450 H   0  0  0  0  0  0  0  0  0  0  0  0
    9.5030   13.1038   -6.2042 H   0  0  0  0  0  0  0  0  0  0  0  0
    8.1066   11.6789   -4.7277 H   0  0  0  0  0  0  0  0  0  0  0  0
    4.7339    5.3210   -5.4488 H   0  0  0  0  0  0  0  0  0  0  0  0
    2.5399    2.2113   -7.2339 H   0  0  0  0  0  0  0  0  0  0  0  0
    2.9310    3.9314   -7.0126 H   0  0  0  0  0  0  0  0  0  0  0  0
    0.4452    3.5086   -6.8469 H   0  0  0  0  0  0  0  0  0  0  0  0
    0.7471    2.4358   -5.4657 H   0  0  0  0  0  0  0  0  0  0  0  0
    1.1037    4.1679   -5.3550 H   0  0  0  0  0  0  0  0  0  0  0  0
    2.2743    6.4544    1.0056 H   0  0  0  0  0  0  0  0  0  0  0  0
    3.8284    6.6517    2.9031 H   0  0  0  0  0  0  0  0  0  0  0  0
    5.8249    2.4605    4.6599 H   0  0  0  0  0  0  0  0  0  0  0  0
    7.1850    3.5171    5.0930 H   0  0  0  0  0  0  0  0  0  0  0  0
    6.8580    3.1755    3.3781 H   0  0  0  0  0  0  0  0  0  0  0  0
    4.6408    2.4611    2.6642 H   0  0  0  0  0  0  0  0  0  0  0  0
    3.1146    2.2648    0.7965 H   0  0  0  0  0  0  0  0  0  0  0  0
    0.2919    4.8233   -2.4585 H   0  0  0  0  0  0  0  0  0  0  0  0
   -1.7766    6.0684   -2.6133 H   0  0  0  0  0  0  0  0  0  0  0  0
   -3.8018    7.1118   -2.8802 H   0  0  0  0  0  0  0  0  0  0  0  0
   -2.6113    8.3915   -2.4902 H   0  0  0  0  0  0  0  0  0  0  0  0
   -4.3482    8.6661   -2.2151 H   0  0  0  0  0  0  0  0  0  0  0  0
   -1.8500    6.4893    1.6438 H   0  0  0  0  0  0  0  0  0  0  0  0
    0.2362    5.1975    1.8040 H   0  0  0  0  0  0  0  0  0  0  0  0
    2.2523   -2.9561   -3.6309 H   0  0  0  0  0  0  0  0  0  0  0  0
    2.3759   -2.6807   -6.0727 H   0  0  0  0  0  0  0  0  0  0  0  0
   -0.0719    0.2727   -9.4767 H   0  0  0  0  0  0  0  0  0  0  0  0
   -1.1487   -0.1816   -8.1381 H   0  0  0  0  0  0  0  0  0  0  0  0
    0.0294    1.1561   -7.9385 H   0  0  0  0  0  0  0  0  0  0  0  0
   -0.6529    0.3347   -5.8822 H   0  0  0  0  0  0  0  0  0  0  0  0
   -0.7685    0.0655   -3.4718 H   0  0  0  0  0  0  0  0  0  0  0  0
   -0.1876   -3.9693   -2.6159 H   0  0  0  0  0  0  0  0  0  0  0  0
    0.2567   -6.0469   -1.3571 H   0  0  0  0  0  0  0  0  0  0  0  0
    3.9275   -5.9959    1.4930 H   0  0  0  0  0  0  0  0  0  0  0  0
    3.2861   -7.2701    2.5581 H   0  0  0  0  0  0  0  0  0  0  0  0
    2.8257   -5.5825    2.8480 H   0  0  0  0  0  0  0  0  0  0  0  0
    2.7382   -3.8610    1.3572 H   0  0  0  0  0  0  0  0  0  0  0  0
    2.3453   -1.8331    0.0808 H   0  0  0  0  0  0  0  0  0  0  0  0
   -1.7258   -4.6128   -0.5770 H   0  0  0  0  0  0  0  0  0  0  0  0
   -3.2082   -6.5493   -0.9238 H   0  0  0  0  0  0  0  0  0  0  0  0
   -8.2000   -7.2013   -0.4525 H   0  0  0  0  0  0  0  0  0  0  0  0
   -8.0971   -5.6567   -1.3207 H   0  0  0  0  0  0  0  0  0  0  0  0
   -7.5084   -5.7822    0.3691 H   0  0  0  0  0  0  0  0  0  0  0  0
   -6.5877   -3.9298   -0.9959 H   0  0  0  0  0  0  0  0  0  0  0  0
   -5.1175   -2.0173   -0.6373 H   0  0  0  0  0  0  0  0  0  0  0  0
   -3.0091   -1.7168   -2.8419 H   0  0  0  0  0  0  0  0  0  0  0  0
   -3.4682    0.4472   -3.9413 H   0  0  0  0  0  0  0  0  0  0  0  0
   -3.7936    4.4819   -1.0093 H   0  0  0  0  0  0  0  0  0  0  0  0
   -5.2017    3.4045   -1.2571 H   0  0  0  0  0  0  0  0  0  0  0  0
   -4.9923    4.8498   -2.2681 H   0  0  0  0  0  0  0  0  0  0  0  0
   -3.0182    2.4429   -0.1874 H   0  0  0  0  0  0  0  0  0  0  0  0
   -2.6337    0.2958    0.9088 H   0  0  0  0  0  0  0  0  0  0  0  0
    0.3648   -6.3342    3.5468 H   0  0  0  0  0  0  0  0  0  0  0  0
    0.9788   -8.4679    4.5945 H   0  0  0  0  0  0  0  0  0  0  0  0
    2.4172   -8.4031    9.3724 H   0  0  0  0  0  0  0  0  0  0  0  0
    0.6375   -8.3612    9.1515 H   0  0  0  0  0  0  0  0  0  0  0  0
    1.4752   -9.9089    9.4143 H   0  0  0  0  0  0  0  0  0  0  0  0
    1.8111   -6.4283    8.2618 H   0  0  0  0  0  0  0  0  0  0  0  0
    1.1651   -4.3147    7.2342 H   0  0  0  0  0  0  0  0  0  0  0  0
   -0.6292   -1.5362    5.3347 H   0  0  0  0  0  0  0  0  0  0  0  0
    0.6859    0.5010    5.6101 H   0  0  0  0  0  0  0  0  0  0  0  0
    3.1215    3.2178    5.3264 H   0  0  0  0  0  0  0  0  0  0  0  0
    1.8771    2.3648    6.2608 H   0  0  0  0  0  0  0  0  0  0  0  0
    1.8917    2.2644    4.4659 H   0  0  0  0  0  0  0  0  0  0  0  0
    4.2845   -1.7663    5.1491 H   0  0  0  0  0  0  0  0  0  0  0  0
    2.9522   -3.8219    4.8789 H   0  0  0  0  0  0  0  0  0  0  0  0
   -1.6347   -5.5839    5.5808 H   0  0  0  0  0  0  0  0  0  0  0  0
   -6.9548  -11.9990    4.4509 H   0  0  0  0  0  0  0  0  0  0  0  0
   -8.0114  -11.9363    2.2194 H   0  0  0  0  0  0  0  0  0  0  0  0
   -7.5218  -10.1129    0.6488 H   0  0  0  0  0  0  0  0  0  0  0  0
   -5.9661   -8.2892    1.2847 H   0  0  0  0  0  0  0  0  0  0  0  0
  1  2  2  0  0  0  0
  2  3  1  0  0  0  0
  3  4  2  0  0  0  0
  3  5  1  0  0  0  0
  5  6  2  0  0  0  0
  6  7  1  0  0  0  0
  7  8  1  0  0  0  0
  8  9  2  0  0  0  0
  9 10  1  0  0  0  0
 10 11  2  0  0  0  0
 11 12  1  0  0  0  0
 12 13  2  0  0  0  0
  6 14  1  0  0  0  0
 14 15  2  0  0  0  0
 15 16  1  0  0  0  0
 16 17  3  0  0  0  0
 15 18  1  0  0  0  0
 18 19  3  0  0  0  0
  1 20  1  0  0  0  0
 20 21  2  0  0  0  0
 21 22  1  0  0  0  0
 22 23  1  0  0  0  0
 23 24  1  0  0  0  0
 24 25  1  0  0  0  0
 22 26  2  0  0  0  0
 26 27  1  0  0  0  0
 26 28  1  0  0  0  0
 28 29  2  0  0  0  0
 29 30  1  0  0  0  0
 30 31  1  0  0  0  0
 31 32  2  0  0  0  0
 32 33  1  0  0  0  0
 33 34  2  0  0  0  0
 34 35  1  0  0  0  0
 35 36  1  0  0  0  0
 34 37  1  0  0  0  0
 37 38  2  0  0  0  0
 30 39  1  0  0  0  0
 39 40  2  0  0  0  0
 40 41  1  0  0  0  0
 41 42  2  0  0  0  0
 42 43  1  0  0  0  0
 43 44  1  0  0  0  0
 42 45  1  0  0  0  0
 45 46  2  0  0  0  0
 29 47  1  0  0  0  0
 47 48  1  0  0  0  0
 48 49  1  0  0  0  0
 49 50  2  0  0  0  0
 50 51  1  0  0  0  0
 51 52  1  0  0  0  0
 52 53  2  0  0  0  0
 53 54  1  0  0  0  0
 54 55  2  0  0  0  0
 55 56  1  0  0  0  0
 56 57  1  0  0  0  0
 55 58  1  0  0  0  0
 58 59  2  0  0  0  0
 51 60  1  0  0  0  0
 60 61  2  0  0  0  0
 61 62  1  0  0  0  0
 62 63  2  0  0  0  0
 63 64  1  0  0  0  0
 64 65  1  0  0  0  0
 63 66  1  0  0  0  0
 66 67  2  0  0  0  0
 50 68  1  0  0  0  0
 68 69  1  0  0  0  0
 49 70  1  0  0  0  0
 70 71  2  0  0  0  0
 71 72  1  0  0  0  0
 72 73  1  0  0  0  0
 73 74  2  0  0  0  0
 74 75  1  0  0  0  0
 75 76  2  0  0  0  0
 76 77  1  0  0  0  0
 77 78  1  0  0  0  0
 76 79  1  0  0  0  0
 79 80  2  0  0  0  0
 72 81  1  0  0  0  0
 81 82  2  0  0  0  0
 82 83  1  0  0  0  0
 83 84  2  0  0  0  0
 84 85  1  0  0  0  0
 85 86  1  0  0  0  0
 84 87  1  0  0  0  0
 87 88  2  0  0  0  0
 71 89  1  0  0  0  0
 89 90  1  0  0  0  0
 90 91  1  0  0  0  0
 91 92  2  0  0  0  0
 92 93  1  0  0  0  0
 93 94  1  0  0  0  0
 94 95  2  0  0  0  0
 95 96  1  0  0  0  0
 96 97  2  0  0  0  0
 97 98  1  0  0  0  0
 98 99  1  0  0  0  0
 97100  1  0  0  0  0
100101  2  0  0  0  0
 93102  1  0  0  0  0
102103  2  0  0  0  0
103104  1  0  0  0  0
104105  2  0  0  0  0
105106  1  0  0  0  0
106107  1  0  0  0  0
105108  1  0  0  0  0
108109  2  0  0  0  0
 92110  1  0  0  0  0
110111  1  0  0  0  0
 91112  1  0  0  0  0
112113  2  0  0  0  0
113114  1  0  0  0  0
114115  2  0  0  0  0
114116  1  0  0  0  0
116117  2  0  0  0  0
117118  1  0  0  0  0
118119  1  0  0  0  0
119120  2  0  0  0  0
120121  1  0  0  0  0
121122  2  0  0  0  0
122123  1  0  0  0  0
123124  2  0  0  0  0
117125  1  0  0  0  0
125126  2  0  0  0  0
126127  1  0  0  0  0
127128  3  0  0  0  0
126129  1  0  0  0  0
129130  3  0  0  0  0
 14  2  1  0  0  0  0
 27 20  1  0  0  0  0
 69 28  1  0  0  0  0
111 70  1  0  0  0  0
125113  1  0  0  0  0
 13  5  1  0  0  0  0
 38 31  1  0  0  0  0
 46 39  1  0  0  0  0
 68 47  2  0  0  0  0
 80 73  1  0  0  0  0
 88 81  1  0  0  0  0
110 89  2  0  0  0  0
124116  1  0  0  0  0
 13  8  1  0  0  0  0
 59 52  1  0  0  0  0
 67 60  1  0  0  0  0
101 94  1  0  0  0  0
109102  1  0  0  0  0
124119  1  0  0  0  0
  1131  1  0  0  0  0
  9132  1  0  0  0  0
 10133  1  0  0  0  0
 11134  1  0  0  0  0
 12135  1  0  0  0  0
 21136  1  0  0  0  0
 24137  1  0  0  0  0
 24138  1  0  0  0  0
 25139  1  0  0  0  0
 25140  1  0  0  0  0
 25141  1  0  0  0  0
 32142  1  0  0  0  0
 33143  1  0  0  0  0
 36144  1  0  0  0  0
 36145  1  0  0  0  0
 36146  1  0  0  0  0
 37147  1  0  0  0  0
 38148  1  0  0  0  0
 40149  1  0  0  0  0
 41150  1  0  0  0  0
 44151  1  0  0  0  0
 44152  1  0  0  0  0
 44153  1  0  0  0  0
 45154  1  0  0  0  0
 46155  1  0  0  0  0
 53156  1  0  0  0  0
 54157  1  0  0  0  0
 57158  1  0  0  0  0
 57159  1  0  0  0  0
 57160  1  0  0  0  0
 58161  1  0  0  0  0
 59162  1  0  0  0  0
 61163  1  0  0  0  0
 62164  1  0  0  0  0
 65165  1  0  0  0  0
 65166  1  0  0  0  0
 65167  1  0  0  0  0
 66168  1  0  0  0  0
 67169  1  0  0  0  0
 74170  1  0  0  0  0
 75171  1  0  0  0  0
 78172  1  0  0  0  0
 78173  1  0  0  0  0
 78174  1  0  0  0  0
 79175  1  0  0  0  0
 80176  1  0  0  0  0
 82177  1  0  0  0  0
 83178  1  0  0  0  0
 86179  1  0  0  0  0
 86180  1  0  0  0  0
 86181  1  0  0  0  0
 87182  1  0  0  0  0
 88183  1  0  0  0  0
 95184  1  0  0  0  0
 96185  1  0  0  0  0
 99186  1  0  0  0  0
 99187  1  0  0  0  0
 99188  1  0  0  0  0
100189  1  0  0  0  0
101190  1  0  0  0  0
103191  1  0  0  0  0
104192  1  0  0  0  0
107193  1  0  0  0  0
107194  1  0  0  0  0
107195  1  0  0  0  0
108196  1  0  0  0  0
109197  1  0  0  0  0
112198  1  0  0  0  0
120199  1  0  0  0  0
121200  1  0  0  0  0
122201  1  0  0  0  0
123202  1  0  0  0  0
M  END
