200

C          6.62210       -2.43080        5.12860
C          7.02780       -1.93250        6.34460
C          6.35900       -1.04050        7.27970
O          5.24300       -0.55590        7.20980
C          7.32050       -0.83650        8.39940
C          7.17930       -0.08520        9.54740
C          8.23780       -0.05730       10.45080
Cl         8.09010        0.86990       11.89090
C          9.41160       -0.77230       10.19970
Cl        10.70180       -0.72560       11.33510
C          9.54990       -1.52710        9.03810
C          8.49650       -1.55230        8.14770
C          8.36580       -2.25990        6.84690
O          9.21740       -2.92840        6.29240
C          5.49550       -2.14960        4.35950
C          5.22950       -2.65250        3.06110
N          6.05820       -3.44380        2.30850
C          7.46010       -3.37140        2.39840
C          8.09950       -2.13950        2.53380
C          9.46070       -2.08420        2.74050
C         10.20670       -3.25660        2.78900
S         11.93630       -3.24060        3.14860
C         11.97220       -2.05590        4.52850
C          9.58620       -4.47780        2.55580
C          8.22160       -4.53810        2.36760
C          5.49900       -4.36480        1.40350
C          6.04870       -4.52140        0.13150
C          5.54420       -5.46960       -0.72840
C          4.48570       -6.28760       -0.33560
S          3.96770       -7.51110       -1.49410
C          2.85590       -8.57870       -0.53080
C          3.91900       -6.11620        0.92000
C          4.42300       -5.16180        1.78150
C          3.98430       -2.19250        2.59120
S          3.07340       -2.43790        1.13130
C          1.90070       -1.26050        1.66390
C          2.12960       -0.80260        2.95250
N          1.26020       -0.01640        3.68140
C          1.80180        0.86530        4.63120
C          2.91750        1.63340        4.30540
C          3.52990        2.40690        5.26760
C          3.03510        2.41960        6.56480
S          3.90840        3.34730        7.79450
C          3.89960        2.14640        9.16280
C          1.88150        1.71120        6.87460
C          1.26650        0.93670        5.91320
C         -0.11900       -0.11160        3.47070
C         -0.70620       -1.34730        3.20230
C         -2.03100       -1.43370        2.82920
C         -2.79820       -0.28080        2.72690
S         -4.46930       -0.27880        2.15720
C         -4.66940       -1.91980        1.41300
C         -2.24220        0.94500        3.08440
C         -0.91770        1.03170        3.45590
C          3.34140       -1.32450        3.46680
S          4.21300       -1.07370        4.93110
C          0.80100       -0.87260        0.81440
C          0.42280        0.44980        0.67790
F          1.15640        1.41850        1.25590
C         -0.67290        0.83010       -0.09920
F         -0.94250        2.14170       -0.21270
C         -1.47760       -0.09290       -0.73830
C         -1.13020       -1.46120       -0.59960
N         -1.89330       -2.40430       -1.17570
C         -1.48310       -3.64850       -1.17680
C         -2.42600       -4.65620       -1.76110
C         -3.24950       -5.31970       -0.65390
C         -0.22630       -3.99690       -0.60270
N          0.46740       -3.10760        0.06280
C          0.04380       -1.83680        0.09910
C          0.42150       -5.33280       -0.78660
C          1.14600       -5.34210       -2.13640
C         -2.52690        0.34690       -1.63610
C         -2.33260        1.23030       -2.68290
N         -1.09900        1.70850       -3.08290
C          0.02580        0.87810       -3.00080
C          1.25020        1.38000       -2.57110
C          2.32830        0.53570       -2.37640
C          2.20020       -0.82610       -2.61380
S          3.46940       -2.01990       -2.32790
C          4.81840       -1.05960       -1.59030
C          0.99460       -1.32060       -3.10980
C         -0.07770       -0.48200       -3.30270
C         -1.04310        2.97570       -3.68020
C         -0.30520        3.18110       -4.84240
C         -0.36790        4.39690       -5.49050
C         -1.16650        5.41420       -4.98600
S         -1.35710        6.94430       -5.86460
C         -1.84770        6.28490       -7.49080
C         -1.84460        5.23750       -3.78860
C         -1.78330        4.02410       -3.13720
C         -3.54920        1.50710       -3.35260
S         -3.95470        2.47330       -4.72020
C         -5.64010        1.96080       -4.58490
C         -5.83090        1.02080       -3.54070
N         -7.00860        0.37750       -3.26620
C         -7.90140        0.06850       -4.31450
C         -7.41950       -0.51500       -5.48480
C         -8.25310       -0.67100       -6.57000
C         -9.57620       -0.24550       -6.50060
S        -10.56170       -0.33870       -7.96190
C        -11.53380        1.19200       -7.81800
C        -10.08140        0.24610       -5.30300
C         -9.24990        0.39800       -4.21250
C         -7.33610        0.00400       -1.95550
C         -7.01750        0.82710       -0.87840
C         -7.35670        0.46600        0.41030
C         -8.02790       -0.72800        0.64280
S         -8.50270       -1.30450        2.23970
C         -7.98880        0.02400        3.36210
C         -8.35910       -1.54900       -0.43590
C         -8.01830       -1.19000       -1.71990
C         -4.63170        0.80280       -2.83830
S         -4.16570       -0.23830       -1.52960
C         -6.65250        2.48990       -5.38170
C         -6.60200        3.35170       -6.45080
C         -7.83550        3.69180       -7.16700
O         -8.96200        3.30590       -6.91950
C         -7.42160        4.58580       -8.28090
C         -8.18410        5.19140       -9.25780
C         -7.53770        5.99050      -10.19680
Cl        -8.45890        6.76310      -11.42510
C         -6.15280        6.16870      -10.15030
Cl        -5.37630        7.16020      -11.32080
C         -5.38750        5.55130       -9.16520
C         -6.03370        4.76390       -8.23500
C         -5.46780        3.99770       -7.08990
O         -4.28870        3.94570       -6.78380
H          7.32750       -3.13800        4.70550
H          6.27570        0.46860        9.74510
H         10.45600       -2.07970        8.84550
H          7.51690       -1.23040        2.51040
H          9.94120       -1.12680        2.86570
H         11.14000       -2.27690        5.19130
H         11.92440       -1.03540        4.15960
H         12.91600       -2.21740        5.03920
H         10.17690       -5.38010        2.56310
H          7.73290       -5.49170        2.23520
H          6.88370       -3.90520       -0.16730
H          5.96830       -5.59610       -1.71230
H          2.61350       -9.41110       -1.18420
H          3.37200       -8.94250        0.35240
H          1.94880       -8.04330       -0.26680
H          3.09710       -6.73120        1.24960
H          3.99430       -5.04810        2.76620
H          3.30320        1.60630        3.29730
H          4.40500        2.99090        5.02860
H          2.94110        2.15370        9.67350
H          4.67920        2.46530        9.84790
H          4.11840        1.16500        8.75110
H          1.47020        1.74800        7.87110
H          0.38180        0.36580        6.15480
H         -0.11180       -2.24700        3.26420
H         -2.45100       -2.40380        2.61670
H         -4.70640       -2.68060        2.18800
H         -5.61500       -1.88940        0.88010
H         -3.85960       -2.09700        0.71080
H         -2.85240        1.83360        3.03590
H         -0.47940        1.98880        3.69460
H         -3.09980       -4.13300       -2.44020
H         -1.87810       -5.41500       -2.31960
H         -3.91510       -6.06570       -1.08050
H         -2.60410       -5.80670        0.07460
H         -3.85170       -4.57530       -0.13830
H         -0.31280       -6.13800       -0.74510
H          1.15360       -5.46250        0.01100
H          1.92600       -4.58390       -2.14080
H          0.45330       -5.13400       -2.94960
H          1.60600       -6.30910       -2.31750
H          1.34720        2.43560       -2.36490
H          3.25680        0.95410       -2.02320
H          5.21450       -0.35390       -2.31480
H          5.57890       -1.78760       -1.32590
H          4.46520       -0.55540       -0.69570
H          0.91250       -2.37310       -3.33490
H         -1.01130       -0.87750       -3.67450
H          0.29270        2.37640       -5.24490
H          0.18920        4.54670       -6.40230
H         -2.31120        7.10940       -8.02370
H         -2.55770        5.47840       -7.32950
H         -0.97620        5.93570       -8.03710
H         -2.43200        6.04790       -3.38640
H         -2.31840        3.87170       -2.21200
H         -6.38070       -0.80290       -5.54740
H         -7.88300       -1.09690       -7.48940
H        -12.37290        1.04960       -7.14340
H        -11.90050        1.40830       -8.81640
H        -10.87740        1.98680       -7.47470
H        -11.11670        0.53530       -5.22400
H         -9.63000        0.81140       -3.28990
H         -6.51210        1.76510       -1.05130
H         -7.09040        1.12250        1.22130
H         -8.28090       -0.30560        4.35440
H         -8.51170        0.94160        3.10960
H         -6.91120        0.15230        3.31440
H         -8.88320       -2.47360       -0.24880
H         -8.27460       -1.83120       -2.54970
H         -7.66310        2.18360       -5.13640
H         -9.25320        5.05380       -9.29580
H         -4.31810        5.68770       -9.13620
