200

C         -0.50860       -4.65050        6.78000
C          0.11670       -3.96100        7.77180
C          0.71310       -4.67610        8.91710
O          0.47760       -5.80600        9.27610
C          1.70110       -3.73090        9.49930
C          2.61670       -3.93500       10.51100
C          3.48260       -2.89440       10.83520
Cl         4.65030       -3.11980       12.07350
C          3.41760       -1.67390       10.15450
Cl         4.50120       -0.40270       10.56810
C          2.49590       -1.47580        9.13160
C          1.64480       -2.51470        8.80820
C          0.63440       -2.59300        7.72070
O          0.38190       -1.70910        6.92290
C         -0.97850       -4.15810        5.53630
C         -0.71200       -4.78840        4.31890
N          0.18550       -5.83510        4.22600
C          1.32550       -5.77080        5.06960
C          2.04220       -4.58200        5.15280
C          3.08080       -4.44720        6.05130
C          3.42940       -5.51340        6.86890
S          4.68680       -5.42410        8.10130
C          5.44480       -3.79670        7.83330
C          2.75390       -6.72650        6.74200
C          1.71340       -6.85800        5.84820
C          0.10410       -6.77200        3.20140
C          1.24970       -7.41900        2.73340
C          1.15710       -8.34690        1.72080
C         -0.07390       -8.63810        1.13870
S         -0.10180       -9.82810       -0.16790
C         -1.54460       -9.31440       -1.14390
C         -1.21840       -8.01310        1.61240
C         -1.13080       -7.09640        2.63950
C         -1.27150       -4.06670        3.24830
S         -1.18040       -4.20600        1.53220
C         -1.96240       -2.64450        1.34120
C         -2.40190       -2.11910        2.55160
N         -3.10430       -0.93450        2.72590
C         -2.75560       -0.16440        3.85440
C         -1.41160        0.10330        4.09420
C         -1.01350        0.78010        5.22800
C         -1.96340        1.19910        6.14850
S         -1.54280        2.01790        7.65360
C          0.17130        1.47540        7.92250
C         -3.31370        0.97520        5.89150
C         -3.70980        0.29840        4.75890
C         -4.33340       -0.70270        2.09550
C         -4.77980        0.61160        1.93610
C         -6.02840        0.86450        1.42040
C         -6.86430       -0.18580        1.04430
S         -8.49230        0.24150        0.51230
C         -9.42140       -1.29850        0.74760
C         -6.39510       -1.48850        1.12630
C         -5.14260       -1.74530        1.65300
C         -1.94780       -2.91600        3.63640
S         -1.87040       -2.66610        5.34450
C         -1.82040       -1.98670        0.07820
C         -0.66290       -2.01990       -0.69100
N          0.45270       -2.84600       -0.42510
C          1.33370       -2.48340        0.59090
C          1.00480       -1.46270        1.48540
C          1.82160       -1.15080        2.55470
C          3.00090       -1.84690        2.75980
S          4.07110       -1.57480        4.14320
C          3.09090       -0.51920        5.25250
C          3.39360       -2.79050        1.81450
C          2.58550       -3.09060        0.74020
C          0.53550       -4.05210       -1.14400
C          0.08050       -4.11150       -2.46270
C          0.16440       -5.27950       -3.18870
C          0.70740       -6.42660       -2.62150
S          0.80670       -7.87280       -3.63550
C          2.16630       -8.80590       -2.87230
C          1.11240       -6.39410       -1.29480
C          1.01430       -5.22720       -0.56330
C         -0.72910       -1.09090       -1.74870
S          0.37960       -0.54450       -2.96100
C         -0.83340        0.54410       -3.61160
C         -2.00610        0.52880       -2.88210
N         -3.12610        1.32420       -3.09640
C         -4.38360        0.71420       -2.98940
C         -5.47950        1.41710       -2.48930
C         -6.71220        0.80990       -2.40290
C         -6.87410       -0.51740       -2.79410
S         -8.49070       -1.21400       -2.64800
C         -8.42790       -2.65980       -3.74900
C         -5.78270       -1.23030       -3.26650
C         -4.55260       -0.61360       -3.37420
C         -2.98690        2.62800       -3.58370
C         -1.91560        3.41930       -3.17630
C         -1.67060        4.64170       -3.76920
C         -2.50800        5.10640       -4.77310
S         -2.23880        6.59580       -5.68260
C         -0.61430        7.16920       -5.11560
C         -3.63470        4.36250       -5.11670
C         -3.87310        3.13920       -4.53330
C         -1.93230       -0.40720       -1.82050
S         -3.00370       -0.85480       -0.54140
C         -0.52590        1.41110       -4.73520
C          0.65790        2.13790       -4.74520
C          0.82470        3.10180       -5.72640
N          1.83670        4.01200       -5.89150
C          3.06290        4.05870       -5.13760
C          4.12100        3.13010       -5.72950
C          1.52650        4.81680       -6.96320
C          0.26840        4.42550       -7.49570
C         -0.17480        3.32160       -6.71020
C         -1.31130        2.51940       -6.74050
C         -1.47660        1.57270       -5.75970
C         -0.27940        5.13430       -8.56330
C          0.42300        6.19300       -9.08150
C          1.68490        6.58030       -8.56660
C          2.23760        5.87580       -7.49070
C          2.33440        7.68770       -9.19550
C          3.51860        8.33130       -8.99120
C          4.61760        8.18010       -8.02350
O          4.72930        7.41740       -7.08450
C          5.63300        9.19860       -8.40270
C          6.85850        9.45340       -7.81830
C          7.64360       10.46700       -8.35580
Cl         9.17530       10.81050       -7.65630
C          7.20100       11.20830       -9.45770
Cl         8.19280       12.45540      -10.10070
C          5.96550       10.94770      -10.04070
C          5.19130        9.93880       -9.50260
C          3.85480        9.44550       -9.91450
O          3.17260        9.86200      -10.82280
H         -0.56780       -5.72620        6.92300
H          2.67130       -4.88070       11.02620
H          2.45690       -0.53470        8.60520
H          1.76750       -3.74860        4.52260
H          3.60890       -3.50980        6.09660
H          6.26200       -3.73620        8.54510
H          4.72290       -3.01040        8.03520
H          5.82960       -3.72930        6.82010
H          3.04280       -7.55620        7.36750
H          1.18190       -7.79400        5.76440
H          2.21180       -7.18100        3.16100
H          2.04300       -8.85060        1.36430
H         -2.46090       -9.66670       -0.67870
H         -1.42540       -9.77540       -2.11950
H         -1.53980       -8.23310       -1.24230
H         -2.18640       -8.24730        1.19890
H         -2.03120       -6.64280        3.02500
H         -0.67610       -0.24240        3.38600
H          0.03490        0.96880        5.38890
H          0.24500        0.42170        7.66860
H          0.37220        1.62840        8.97850
H          0.85470        2.07620        7.32790
H         -4.04760        1.31640        6.60520
H         -4.75690        0.10310        4.58390
H         -4.14320        1.42790        2.24210
H         -6.38260        1.87840        1.31880
H        -10.46800       -1.02460        0.66230
H         -9.21700       -1.69610        1.73710
H         -9.16790       -2.01070       -0.03160
H         -7.00520       -2.31610        0.80120
H         -4.80080       -2.76620        1.74270
H          0.10040       -0.89190        1.34310
H          1.52550       -0.35980        3.22460
H          2.14320       -0.99550        5.49340
H          2.94190        0.45710        4.79960
H          3.69210       -0.41160        6.15100
H          4.34500       -3.28710        1.92970
H          2.93380       -3.79610        0.00320
H         -0.33070       -3.23630       -2.93760
H         -0.17810       -5.30820       -4.21170
H          1.82710       -9.29440       -1.96320
H          2.99360       -8.13120       -2.67510
H          2.45930       -9.55300       -3.60310
H          1.49540       -7.27810       -0.81170
H          1.29730       -5.24660        0.47760
H         -5.35640        2.44360       -2.17930
H         -7.56240        1.35330       -2.02210
H         -8.03520       -2.36330       -4.71680
H         -9.45540       -2.99440       -3.85260
H         -7.82840       -3.45130       -3.30800
H         -5.87570       -2.26240       -3.56470
H         -3.71460       -1.16990       -3.76940
H         -1.25220        3.06060       -2.40330
H         -0.81840        5.21640       -3.44380
H          0.12430        6.38740       -5.26410
H         -0.66680        7.47550       -4.07480
H         -0.37180        8.02400       -5.73940
H         -4.30360        4.74460       -5.87230
H         -4.72820        2.55470       -4.83760
H          1.39240        1.97910       -3.96990
H          3.43020        5.08780       -5.13850
H          2.84500        3.77140       -4.10520
H          5.03020        3.17670       -5.13680
H          4.35380        3.43000       -6.74820
H          3.76110        2.10370       -5.74140
H         -2.05480        2.65440       -7.51020
H         -2.35200        0.94150       -5.75980
H         -1.24150        4.85570       -8.96410
H          0.00970        6.75390       -9.90630
H          3.19380        6.16560       -7.09210
H          1.77540        8.11190      -10.02820
H          7.19890        8.88170       -6.96930
H          5.62330       11.51820      -10.88960
