
  xtb     02172218013D
 energy: -343.802397747270 gnorm: 0.000470177715 xtb: 6.4.1 (unknown)
200218  0     0  0            999 V2000
   -0.5086   -4.6505    6.7800 C   0  0  0  0  0  0  0  0  0  0  0  0
    0.1167   -3.9610    7.7718 C   0  0  0  0  0  0  0  0  0  0  0  0
    0.7131   -4.6761    8.9171 C   0  0  0  0  0  0  0  0  0  0  0  0
    0.4776   -5.8060    9.2761 O   0  0  0  0  0  0  0  0  0  0  0  0
    1.7011   -3.7309    9.4993 C   0  0  0  0  0  0  0  0  0  0  0  0
    2.6167   -3.9350   10.5110 C   0  0  0  0  0  0  0  0  0  0  0  0
    3.4826   -2.8944   10.8352 C   0  0  0  0  0  0  0  0  0  0  0  0
    4.6503   -3.1198   12.0735 Cl  0  0  0  0  0  0  0  0  0  0  0  0
    3.4176   -1.6739   10.1545 C   0  0  0  0  0  0  0  0  0  0  0  0
    4.5012   -0.4027   10.5681 Cl  0  0  0  0  0  0  0  0  0  0  0  0
    2.4959   -1.4758    9.1316 C   0  0  0  0  0  0  0  0  0  0  0  0
    1.6448   -2.5147    8.8082 C   0  0  0  0  0  0  0  0  0  0  0  0
    0.6344   -2.5930    7.7207 C   0  0  0  0  0  0  0  0  0  0  0  0
    0.3819   -1.7091    6.9229 O   0  0  0  0  0  0  0  0  0  0  0  0
   -0.9785   -4.1581    5.5363 C   0  0  0  0  0  0  0  0  0  0  0  0
   -0.7120   -4.7884    4.3189 C   0  0  0  0  0  0  0  0  0  0  0  0
    0.1855   -5.8351    4.2260 N   0  0  0  0  0  0  0  0  0  0  0  0
    1.3255   -5.7708    5.0696 C   0  0  0  0  0  0  0  0  0  0  0  0
    2.0422   -4.5820    5.1528 C   0  0  0  0  0  0  0  0  0  0  0  0
    3.0808   -4.4472    6.0513 C   0  0  0  0  0  0  0  0  0  0  0  0
    3.4294   -5.5134    6.8689 C   0  0  0  0  0  0  0  0  0  0  0  0
    4.6868   -5.4241    8.1013 S   0  0  0  0  0  0  0  0  0  0  0  0
    5.4448   -3.7967    7.8333 C   0  0  0  0  0  0  0  0  0  0  0  0
    2.7539   -6.7265    6.7420 C   0  0  0  0  0  0  0  0  0  0  0  0
    1.7134   -6.8580    5.8482 C   0  0  0  0  0  0  0  0  0  0  0  0
    0.1041   -6.7720    3.2014 C   0  0  0  0  0  0  0  0  0  0  0  0
    1.2497   -7.4190    2.7334 C   0  0  0  0  0  0  0  0  0  0  0  0
    1.1571   -8.3469    1.7208 C   0  0  0  0  0  0  0  0  0  0  0  0
   -0.0739   -8.6381    1.1387 C   0  0  0  0  0  0  0  0  0  0  0  0
   -0.1018   -9.8281   -0.1679 S   0  0  0  0  0  0  0  0  0  0  0  0
   -1.5446   -9.3144   -1.1439 C   0  0  0  0  0  0  0  0  0  0  0  0
   -1.2184   -8.0131    1.6124 C   0  0  0  0  0  0  0  0  0  0  0  0
   -1.1308   -7.0964    2.6395 C   0  0  0  0  0  0  0  0  0  0  0  0
   -1.2715   -4.0667    3.2483 C   0  0  0  0  0  0  0  0  0  0  0  0
   -1.1804   -4.2060    1.5322 S   0  0  0  0  0  0  0  0  0  0  0  0
   -1.9624   -2.6445    1.3412 C   0  0  0  0  0  0  0  0  0  0  0  0
   -2.4019   -2.1191    2.5516 C   0  0  0  0  0  0  0  0  0  0  0  0
   -3.1043   -0.9345    2.7259 N   0  0  0  0  0  0  0  0  0  0  0  0
   -2.7556   -0.1644    3.8544 C   0  0  0  0  0  0  0  0  0  0  0  0
   -1.4116    0.1033    4.0942 C   0  0  0  0  0  0  0  0  0  0  0  0
   -1.0135    0.7801    5.2280 C   0  0  0  0  0  0  0  0  0  0  0  0
   -1.9634    1.1991    6.1485 C   0  0  0  0  0  0  0  0  0  0  0  0
   -1.5428    2.0179    7.6536 S   0  0  0  0  0  0  0  0  0  0  0  0
    0.1713    1.4754    7.9225 C   0  0  0  0  0  0  0  0  0  0  0  0
   -3.3137    0.9752    5.8915 C   0  0  0  0  0  0  0  0  0  0  0  0
   -3.7098    0.2984    4.7589 C   0  0  0  0  0  0  0  0  0  0  0  0
   -4.3334   -0.7027    2.0955 C   0  0  0  0  0  0  0  0  0  0  0  0
   -4.7798    0.6116    1.9361 C   0  0  0  0  0  0  0  0  0  0  0  0
   -6.0284    0.8645    1.4204 C   0  0  0  0  0  0  0  0  0  0  0  0
   -6.8643   -0.1858    1.0443 C   0  0  0  0  0  0  0  0  0  0  0  0
   -8.4923    0.2415    0.5123 S   0  0  0  0  0  0  0  0  0  0  0  0
   -9.4214   -1.2985    0.7476 C   0  0  0  0  0  0  0  0  0  0  0  0
   -6.3951   -1.4885    1.1263 C   0  0  0  0  0  0  0  0  0  0  0  0
   -5.1426   -1.7453    1.6530 C   0  0  0  0  0  0  0  0  0  0  0  0
   -1.9478   -2.9160    3.6364 C   0  0  0  0  0  0  0  0  0  0  0  0
   -1.8704   -2.6661    5.3445 S   0  0  0  0  0  0  0  0  0  0  0  0
   -1.8204   -1.9867    0.0782 C   0  0  0  0  0  0  0  0  0  0  0  0
   -0.6629   -2.0199   -0.6910 C   0  0  0  0  0  0  0  0  0  0  0  0
    0.4527   -2.8460   -0.4251 N   0  0  0  0  0  0  0  0  0  0  0  0
    1.3337   -2.4834    0.5909 C   0  0  0  0  0  0  0  0  0  0  0  0
    1.0048   -1.4627    1.4854 C   0  0  0  0  0  0  0  0  0  0  0  0
    1.8216   -1.1508    2.5547 C   0  0  0  0  0  0  0  0  0  0  0  0
    3.0009   -1.8469    2.7598 C   0  0  0  0  0  0  0  0  0  0  0  0
    4.0711   -1.5748    4.1432 S   0  0  0  0  0  0  0  0  0  0  0  0
    3.0909   -0.5192    5.2525 C   0  0  0  0  0  0  0  0  0  0  0  0
    3.3936   -2.7905    1.8145 C   0  0  0  0  0  0  0  0  0  0  0  0
    2.5855   -3.0906    0.7402 C   0  0  0  0  0  0  0  0  0  0  0  0
    0.5355   -4.0521   -1.1440 C   0  0  0  0  0  0  0  0  0  0  0  0
    0.0805   -4.1115   -2.4627 C   0  0  0  0  0  0  0  0  0  0  0  0
    0.1644   -5.2795   -3.1887 C   0  0  0  0  0  0  0  0  0  0  0  0
    0.7074   -6.4266   -2.6215 C   0  0  0  0  0  0  0  0  0  0  0  0
    0.8067   -7.8728   -3.6355 S   0  0  0  0  0  0  0  0  0  0  0  0
    2.1663   -8.8059   -2.8723 C   0  0  0  0  0  0  0  0  0  0  0  0
    1.1124   -6.3941   -1.2948 C   0  0  0  0  0  0  0  0  0  0  0  0
    1.0143   -5.2272   -0.5633 C   0  0  0  0  0  0  0  0  0  0  0  0
   -0.7291   -1.0909   -1.7487 C   0  0  0  0  0  0  0  0  0  0  0  0
    0.3796   -0.5445   -2.9610 S   0  0  0  0  0  0  0  0  0  0  0  0
   -0.8334    0.5441   -3.6116 C   0  0  0  0  0  0  0  0  0  0  0  0
   -2.0061    0.5288   -2.8821 C   0  0  0  0  0  0  0  0  0  0  0  0
   -3.1261    1.3242   -3.0964 N   0  0  0  0  0  0  0  0  0  0  0  0
   -4.3836    0.7142   -2.9894 C   0  0  0  0  0  0  0  0  0  0  0  0
   -5.4795    1.4171   -2.4893 C   0  0  0  0  0  0  0  0  0  0  0  0
   -6.7122    0.8099   -2.4029 C   0  0  0  0  0  0  0  0  0  0  0  0
   -6.8741   -0.5174   -2.7941 C   0  0  0  0  0  0  0  0  0  0  0  0
   -8.4907   -1.2140   -2.6480 S   0  0  0  0  0  0  0  0  0  0  0  0
   -8.4279   -2.6598   -3.7490 C   0  0  0  0  0  0  0  0  0  0  0  0
   -5.7827   -1.2303   -3.2665 C   0  0  0  0  0  0  0  0  0  0  0  0
   -4.5526   -0.6136   -3.3742 C   0  0  0  0  0  0  0  0  0  0  0  0
   -2.9869    2.6280   -3.5837 C   0  0  0  0  0  0  0  0  0  0  0  0
   -1.9156    3.4193   -3.1763 C   0  0  0  0  0  0  0  0  0  0  0  0
   -1.6706    4.6417   -3.7692 C   0  0  0  0  0  0  0  0  0  0  0  0
   -2.5080    5.1064   -4.7731 C   0  0  0  0  0  0  0  0  0  0  0  0
   -2.2388    6.5958   -5.6826 S   0  0  0  0  0  0  0  0  0  0  0  0
   -0.6143    7.1692   -5.1156 C   0  0  0  0  0  0  0  0  0  0  0  0
   -3.6347    4.3625   -5.1167 C   0  0  0  0  0  0  0  0  0  0  0  0
   -3.8731    3.1392   -4.5333 C   0  0  0  0  0  0  0  0  0  0  0  0
   -1.9323   -0.4072   -1.8205 C   0  0  0  0  0  0  0  0  0  0  0  0
   -3.0037   -0.8548   -0.5414 S   0  0  0  0  0  0  0  0  0  0  0  0
   -0.5259    1.4111   -4.7352 C   0  0  0  0  0  0  0  0  0  0  0  0
    0.6579    2.1379   -4.7452 C   0  0  0  0  0  0  0  0  0  0  0  0
    0.8247    3.1018   -5.7264 C   0  0  0  0  0  0  0  0  0  0  0  0
    1.8367    4.0120   -5.8915 N   0  0  0  0  0  0  0  0  0  0  0  0
    3.0629    4.0587   -5.1376 C   0  0  0  0  0  0  0  0  0  0  0  0
    4.1210    3.1301   -5.7295 C   0  0  0  0  0  0  0  0  0  0  0  0
    1.5265    4.8168   -6.9632 C   0  0  0  0  0  0  0  0  0  0  0  0
    0.2684    4.4255   -7.4957 C   0  0  0  0  0  0  0  0  0  0  0  0
   -0.1748    3.3216   -6.7102 C   0  0  0  0  0  0  0  0  0  0  0  0
   -1.3113    2.5194   -6.7405 C   0  0  0  0  0  0  0  0  0  0  0  0
   -1.4766    1.5727   -5.7597 C   0  0  0  0  0  0  0  0  0  0  0  0
   -0.2794    5.1343   -8.5633 C   0  0  0  0  0  0  0  0  0  0  0  0
    0.4230    6.1930   -9.0815 C   0  0  0  0  0  0  0  0  0  0  0  0
    1.6849    6.5803   -8.5666 C   0  0  0  0  0  0  0  0  0  0  0  0
    2.2376    5.8758   -7.4907 C   0  0  0  0  0  0  0  0  0  0  0  0
    2.3344    7.6877   -9.1955 C   0  0  0  0  0  0  0  0  0  0  0  0
    3.5186    8.3313   -8.9912 C   0  0  0  0  0  0  0  0  0  0  0  0
    4.6176    8.1801   -8.0235 C   0  0  0  0  0  0  0  0  0  0  0  0
    4.7293    7.4174   -7.0845 O   0  0  0  0  0  0  0  0  0  0  0  0
    5.6330    9.1986   -8.4027 C   0  0  0  0  0  0  0  0  0  0  0  0
    6.8585    9.4534   -7.8183 C   0  0  0  0  0  0  0  0  0  0  0  0
    7.6436   10.4670   -8.3558 C   0  0  0  0  0  0  0  0  0  0  0  0
    9.1753   10.8105   -7.6563 Cl  0  0  0  0  0  0  0  0  0  0  0  0
    7.2010   11.2083   -9.4577 C   0  0  0  0  0  0  0  0  0  0  0  0
    8.1928   12.4554  -10.1007 Cl  0  0  0  0  0  0  0  0  0  0  0  0
    5.9655   10.9477  -10.0407 C   0  0  0  0  0  0  0  0  0  0  0  0
    5.1913    9.9388   -9.5026 C   0  0  0  0  0  0  0  0  0  0  0  0
    3.8548    9.4455   -9.9145 C   0  0  0  0  0  0  0  0  0  0  0  0
    3.1726    9.8620  -10.8228 O   0  0  0  0  0  0  0  0  0  0  0  0
   -0.5678   -5.7262    6.9230 H   0  0  0  0  0  0  0  0  0  0  0  0
    2.6713   -4.8807   11.0262 H   0  0  0  0  0  0  0  0  0  0  0  0
    2.4569   -0.5347    8.6052 H   0  0  0  0  0  0  0  0  0  0  0  0
    1.7675   -3.7486    4.5226 H   0  0  0  0  0  0  0  0  0  0  0  0
    3.6089   -3.5098    6.0966 H   0  0  0  0  0  0  0  0  0  0  0  0
    6.2620   -3.7362    8.5451 H   0  0  0  0  0  0  0  0  0  0  0  0
    4.7229   -3.0104    8.0352 H   0  0  0  0  0  0  0  0  0  0  0  0
    5.8296   -3.7293    6.8201 H   0  0  0  0  0  0  0  0  0  0  0  0
    3.0428   -7.5562    7.3675 H   0  0  0  0  0  0  0  0  0  0  0  0
    1.1819   -7.7940    5.7644 H   0  0  0  0  0  0  0  0  0  0  0  0
    2.2118   -7.1810    3.1610 H   0  0  0  0  0  0  0  0  0  0  0  0
    2.0430   -8.8506    1.3643 H   0  0  0  0  0  0  0  0  0  0  0  0
   -2.4609   -9.6667   -0.6787 H   0  0  0  0  0  0  0  0  0  0  0  0
   -1.4254   -9.7754   -2.1195 H   0  0  0  0  0  0  0  0  0  0  0  0
   -1.5398   -8.2331   -1.2423 H   0  0  0  0  0  0  0  0  0  0  0  0
   -2.1864   -8.2473    1.1989 H   0  0  0  0  0  0  0  0  0  0  0  0
   -2.0312   -6.6428    3.0250 H   0  0  0  0  0  0  0  0  0  0  0  0
   -0.6761   -0.2424    3.3860 H   0  0  0  0  0  0  0  0  0  0  0  0
    0.0349    0.9688    5.3889 H   0  0  0  0  0  0  0  0  0  0  0  0
    0.2450    0.4217    7.6686 H   0  0  0  0  0  0  0  0  0  0  0  0
    0.3722    1.6284    8.9785 H   0  0  0  0  0  0  0  0  0  0  0  0
    0.8547    2.0762    7.3279 H   0  0  0  0  0  0  0  0  0  0  0  0
   -4.0476    1.3164    6.6052 H   0  0  0  0  0  0  0  0  0  0  0  0
   -4.7569    0.1031    4.5839 H   0  0  0  0  0  0  0  0  0  0  0  0
   -4.1432    1.4279    2.2421 H   0  0  0  0  0  0  0  0  0  0  0  0
   -6.3826    1.8784    1.3188 H   0  0  0  0  0  0  0  0  0  0  0  0
  -10.4680   -1.0246    0.6623 H   0  0  0  0  0  0  0  0  0  0  0  0
   -9.2170   -1.6961    1.7371 H   0  0  0  0  0  0  0  0  0  0  0  0
   -9.1679   -2.0107   -0.0316 H   0  0  0  0  0  0  0  0  0  0  0  0
   -7.0052   -2.3161    0.8012 H   0  0  0  0  0  0  0  0  0  0  0  0
   -4.8008   -2.7662    1.7427 H   0  0  0  0  0  0  0  0  0  0  0  0
    0.1004   -0.8919    1.3431 H   0  0  0  0  0  0  0  0  0  0  0  0
    1.5255   -0.3598    3.2246 H   0  0  0  0  0  0  0  0  0  0  0  0
    2.1432   -0.9955    5.4934 H   0  0  0  0  0  0  0  0  0  0  0  0
    2.9419    0.4571    4.7996 H   0  0  0  0  0  0  0  0  0  0  0  0
    3.6921   -0.4116    6.1510 H   0  0  0  0  0  0  0  0  0  0  0  0
    4.3450   -3.2871    1.9297 H   0  0  0  0  0  0  0  0  0  0  0  0
    2.9338   -3.7961    0.0032 H   0  0  0  0  0  0  0  0  0  0  0  0
   -0.3307   -3.2363   -2.9376 H   0  0  0  0  0  0  0  0  0  0  0  0
   -0.1781   -5.3082   -4.2117 H   0  0  0  0  0  0  0  0  0  0  0  0
    1.8271   -9.2944   -1.9632 H   0  0  0  0  0  0  0  0  0  0  0  0
    2.9936   -8.1312   -2.6751 H   0  0  0  0  0  0  0  0  0  0  0  0
    2.4593   -9.5530   -3.6031 H   0  0  0  0  0  0  0  0  0  0  0  0
    1.4954   -7.2781   -0.8117 H   0  0  0  0  0  0  0  0  0  0  0  0
    1.2973   -5.2466    0.4776 H   0  0  0  0  0  0  0  0  0  0  0  0
   -5.3564    2.4436   -2.1793 H   0  0  0  0  0  0  0  0  0  0  0  0
   -7.5624    1.3533   -2.0221 H   0  0  0  0  0  0  0  0  0  0  0  0
   -8.0352   -2.3633   -4.7168 H   0  0  0  0  0  0  0  0  0  0  0  0
   -9.4554   -2.9944   -3.8526 H   0  0  0  0  0  0  0  0  0  0  0  0
   -7.8284   -3.4513   -3.3080 H   0  0  0  0  0  0  0  0  0  0  0  0
   -5.8757   -2.2624   -3.5647 H   0  0  0  0  0  0  0  0  0  0  0  0
   -3.7146   -1.1699   -3.7694 H   0  0  0  0  0  0  0  0  0  0  0  0
   -1.2522    3.0606   -2.4033 H   0  0  0  0  0  0  0  0  0  0  0  0
   -0.8184    5.2164   -3.4438 H   0  0  0  0  0  0  0  0  0  0  0  0
    0.1243    6.3874   -5.2641 H   0  0  0  0  0  0  0  0  0  0  0  0
   -0.6668    7.4755   -4.0748 H   0  0  0  0  0  0  0  0  0  0  0  0
   -0.3718    8.0240   -5.7394 H   0  0  0  0  0  0  0  0  0  0  0  0
   -4.3036    4.7446   -5.8723 H   0  0  0  0  0  0  0  0  0  0  0  0
   -4.7282    2.5547   -4.8376 H   0  0  0  0  0  0  0  0  0  0  0  0
    1.3924    1.9791   -3.9699 H   0  0  0  0  0  0  0  0  0  0  0  0
    3.4302    5.0878   -5.1385 H   0  0  0  0  0  0  0  0  0  0  0  0
    2.8450    3.7714   -4.1052 H   0  0  0  0  0  0  0  0  0  0  0  0
    5.0302    3.1767   -5.1368 H   0  0  0  0  0  0  0  0  0  0  0  0
    4.3538    3.4300   -6.7482 H   0  0  0  0  0  0  0  0  0  0  0  0
    3.7611    2.1037   -5.7414 H   0  0  0  0  0  0  0  0  0  0  0  0
   -2.0548    2.6544   -7.5102 H   0  0  0  0  0  0  0  0  0  0  0  0
   -2.3520    0.9415   -5.7598 H   0  0  0  0  0  0  0  0  0  0  0  0
   -1.2415    4.8557   -8.9641 H   0  0  0  0  0  0  0  0  0  0  0  0
    0.0097    6.7539   -9.9063 H   0  0  0  0  0  0  0  0  0  0  0  0
    3.1938    6.1656   -7.0921 H   0  0  0  0  0  0  0  0  0  0  0  0
    1.7754    8.1119  -10.0282 H   0  0  0  0  0  0  0  0  0  0  0  0
    7.1989    8.8817   -6.9693 H   0  0  0  0  0  0  0  0  0  0  0  0
    5.6233   11.5182  -10.8896 H   0  0  0  0  0  0  0  0  0  0  0  0
  1  2  2  0  0  0  0
  2  3  1  0  0  0  0
  3  4  2  0  0  0  0
  3  5  1  0  0  0  0
  5  6  2  0  0  0  0
  6  7  1  0  0  0  0
  7  8  1  0  0  0  0
  7  9  2  0  0  0  0
  9 10  1  0  0  0  0
  9 11  1  0  0  0  0
 11 12  2  0  0  0  0
 12 13  1  0  0  0  0
 13 14  2  0  0  0  0
  1 15  1  0  0  0  0
 15 16  2  0  0  0  0
 16 17  1  0  0  0  0
 17 18  1  0  0  0  0
 18 19  2  0  0  0  0
 19 20  1  0  0  0  0
 20 21  2  0  0  0  0
 21 22  1  0  0  0  0
 22 23  1  0  0  0  0
 21 24  1  0  0  0  0
 24 25  2  0  0  0  0
 17 26  1  0  0  0  0
 26 27  2  0  0  0  0
 27 28  1  0  0  0  0
 28 29  2  0  0  0  0
 29 30  1  0  0  0  0
 30 31  1  0  0  0  0
 29 32  1  0  0  0  0
 32 33  2  0  0  0  0
 16 34  1  0  0  0  0
 34 35  1  0  0  0  0
 35 36  1  0  0  0  0
 36 37  2  0  0  0  0
 37 38  1  0  0  0  0
 38 39  1  0  0  0  0
 39 40  2  0  0  0  0
 40 41  1  0  0  0  0
 41 42  2  0  0  0  0
 42 43  1  0  0  0  0
 43 44  1  0  0  0  0
 42 45  1  0  0  0  0
 45 46  2  0  0  0  0
 38 47  1  0  0  0  0
 47 48  2  0  0  0  0
 48 49  1  0  0  0  0
 49 50  2  0  0  0  0
 50 51  1  0  0  0  0
 51 52  1  0  0  0  0
 50 53  1  0  0  0  0
 53 54  2  0  0  0  0
 37 55  1  0  0  0  0
 55 56  1  0  0  0  0
 36 57  1  0  0  0  0
 57 58  2  0  0  0  0
 58 59  1  0  0  0  0
 59 60  1  0  0  0  0
 60 61  2  0  0  0  0
 61 62  1  0  0  0  0
 62 63  2  0  0  0  0
 63 64  1  0  0  0  0
 64 65  1  0  0  0  0
 63 66  1  0  0  0  0
 66 67  2  0  0  0  0
 59 68  1  0  0  0  0
 68 69  2  0  0  0  0
 69 70  1  0  0  0  0
 70 71  2  0  0  0  0
 71 72  1  0  0  0  0
 72 73  1  0  0  0  0
 71 74  1  0  0  0  0
 74 75  2  0  0  0  0
 58 76  1  0  0  0  0
 76 77  1  0  0  0  0
 77 78  1  0  0  0  0
 78 79  2  0  0  0  0
 79 80  1  0  0  0  0
 80 81  1  0  0  0  0
 81 82  2  0  0  0  0
 82 83  1  0  0  0  0
 83 84  2  0  0  0  0
 84 85  1  0  0  0  0
 85 86  1  0  0  0  0
 84 87  1  0  0  0  0
 87 88  2  0  0  0  0
 80 89  1  0  0  0  0
 89 90  2  0  0  0  0
 90 91  1  0  0  0  0
 91 92  2  0  0  0  0
 92 93  1  0  0  0  0
 93 94  1  0  0  0  0
 92 95  1  0  0  0  0
 95 96  2  0  0  0  0
 79 97  1  0  0  0  0
 97 98  1  0  0  0  0
 78 99  1  0  0  0  0
 99100  2  0  0  0  0
100101  1  0  0  0  0
101102  1  0  0  0  0
102103  1  0  0  0  0
103104  1  0  0  0  0
102105  1  0  0  0  0
105106  2  0  0  0  0
106107  1  0  0  0  0
107108  1  0  0  0  0
108109  2  0  0  0  0
106110  1  0  0  0  0
110111  2  0  0  0  0
111112  1  0  0  0  0
112113  2  0  0  0  0
112114  1  0  0  0  0
114115  2  0  0  0  0
115116  1  0  0  0  0
116117  2  0  0  0  0
116118  1  0  0  0  0
118119  2  0  0  0  0
119120  1  0  0  0  0
120121  1  0  0  0  0
120122  2  0  0  0  0
122123  1  0  0  0  0
122124  1  0  0  0  0
124125  2  0  0  0  0
125126  1  0  0  0  0
126127  2  0  0  0  0
 13  2  1  0  0  0  0
 56 15  1  0  0  0  0
 98 57  1  0  0  0  0
109 99  1  0  0  0  0
126115  1  0  0  0  0
 12  5  1  0  0  0  0
 25 18  1  0  0  0  0
 33 26  1  0  0  0  0
 55 34  2  0  0  0  0
 67 60  1  0  0  0  0
 75 68  1  0  0  0  0
 97 76  2  0  0  0  0
107101  2  0  0  0  0
125118  1  0  0  0  0
 46 39  1  0  0  0  0
 54 47  1  0  0  0  0
 88 81  1  0  0  0  0
 96 89  1  0  0  0  0
113105  1  0  0  0  0
  1128  1  0  0  0  0
  6129  1  0  0  0  0
 11130  1  0  0  0  0
 19131  1  0  0  0  0
 20132  1  0  0  0  0
 23133  1  0  0  0  0
 23134  1  0  0  0  0
 23135  1  0  0  0  0
 24136  1  0  0  0  0
 25137  1  0  0  0  0
 27138  1  0  0  0  0
 28139  1  0  0  0  0
 31140  1  0  0  0  0
 31141  1  0  0  0  0
 31142  1  0  0  0  0
 32143  1  0  0  0  0
 33144  1  0  0  0  0
 40145  1  0  0  0  0
 41146  1  0  0  0  0
 44147  1  0  0  0  0
 44148  1  0  0  0  0
 44149  1  0  0  0  0
 45150  1  0  0  0  0
 46151  1  0  0  0  0
 48152  1  0  0  0  0
 49153  1  0  0  0  0
 52154  1  0  0  0  0
 52155  1  0  0  0  0
 52156  1  0  0  0  0
 53157  1  0  0  0  0
 54158  1  0  0  0  0
 61159  1  0  0  0  0
 62160  1  0  0  0  0
 65161  1  0  0  0  0
 65162  1  0  0  0  0
 65163  1  0  0  0  0
 66164  1  0  0  0  0
 67165  1  0  0  0  0
 69166  1  0  0  0  0
 70167  1  0  0  0  0
 73168  1  0  0  0  0
 73169  1  0  0  0  0
 73170  1  0  0  0  0
 74171  1  0  0  0  0
 75172  1  0  0  0  0
 82173  1  0  0  0  0
 83174  1  0  0  0  0
 86175  1  0  0  0  0
 86176  1  0  0  0  0
 86177  1  0  0  0  0
 87178  1  0  0  0  0
 88179  1  0  0  0  0
 90180  1  0  0  0  0
 91181  1  0  0  0  0
 94182  1  0  0  0  0
 94183  1  0  0  0  0
 94184  1  0  0  0  0
 95185  1  0  0  0  0
 96186  1  0  0  0  0
100187  1  0  0  0  0
103188  1  0  0  0  0
103189  1  0  0  0  0
104190  1  0  0  0  0
104191  1  0  0  0  0
104192  1  0  0  0  0
108193  1  0  0  0  0
109194  1  0  0  0  0
110195  1  0  0  0  0
111196  1  0  0  0  0
113197  1  0  0  0  0
114198  1  0  0  0  0
119199  1  0  0  0  0
124200  1  0  0  0  0
M  END
