
  xtb     02082202433D
 energy: -351.375356733030 gnorm: 0.000797178342 xtb: 6.4.1 (unknown)
200217  0     0  0            999 V2000
    2.7181   -6.3139    6.5790 C   0  0  0  0  0  0  0  0  0  0  0  0
    2.7371   -5.8073    7.8296 C   0  0  0  0  0  0  0  0  0  0  0  0
    3.5259   -6.4551    8.9086 C   0  0  0  0  0  0  0  0  0  0  0  0
    4.1378   -7.4934    8.8359 O   0  0  0  0  0  0  0  0  0  0  0  0
    3.3929   -5.5678   10.0894 C   0  0  0  0  0  0  0  0  0  0  0  0
    3.9309   -5.7080   11.3542 C   0  0  0  0  0  0  0  0  0  0  0  0
    3.6555   -4.7267   12.2993 C   0  0  0  0  0  0  0  0  0  0  0  0
    4.3125   -4.8651   13.8808 Cl  0  0  0  0  0  0  0  0  0  0  0  0
    2.8480   -3.6298   11.9762 C   0  0  0  0  0  0  0  0  0  0  0  0
    2.5184   -2.4322   13.1643 Cl  0  0  0  0  0  0  0  0  0  0  0  0
    2.3090   -3.4939   10.7026 C   0  0  0  0  0  0  0  0  0  0  0  0
    2.5921   -4.4678    9.7637 C   0  0  0  0  0  0  0  0  0  0  0  0
    2.1656   -4.5428    8.3415 C   0  0  0  0  0  0  0  0  0  0  0  0
    1.5274   -3.7013    7.7485 O   0  0  0  0  0  0  0  0  0  0  0  0
    2.0358   -5.7712    5.4339 C   0  0  0  0  0  0  0  0  0  0  0  0
    0.7604   -5.2356    5.4469 C   0  0  0  0  0  0  0  0  0  0  0  0
   -0.0224   -5.3687    6.5210 F   0  0  0  0  0  0  0  0  0  0  0  0
    0.2346   -4.5734    4.3303 C   0  0  0  0  0  0  0  0  0  0  0  0
   -0.9801   -4.0136    4.4515 F   0  0  0  0  0  0  0  0  0  0  0  0
    0.9552   -4.4052    3.1603 C   0  0  0  0  0  0  0  0  0  0  0  0
    2.1915   -5.1100    3.0559 C   0  0  0  0  0  0  0  0  0  0  0  0
    2.8315   -5.1784    1.8741 N   0  0  0  0  0  0  0  0  0  0  0  0
    3.9474   -5.8625    1.7875 C   0  0  0  0  0  0  0  0  0  0  0  0
    4.5869   -5.9505    0.4333 C   0  0  0  0  0  0  0  0  0  0  0  0
    5.7917   -5.0168    0.2897 C   0  0  0  0  0  0  0  0  0  0  0  0
    4.4937   -6.5095    2.9326 C   0  0  0  0  0  0  0  0  0  0  0  0
    3.8798   -6.4480    4.0878 N   0  0  0  0  0  0  0  0  0  0  0  0
    2.7184   -5.7831    4.1836 C   0  0  0  0  0  0  0  0  0  0  0  0
    5.7154   -7.3772    2.9042 C   0  0  0  0  0  0  0  0  0  0  0  0
    5.3040   -8.8387    2.7021 C   0  0  0  0  0  0  0  0  0  0  0  0
    0.5288   -3.5002    2.1197 C   0  0  0  0  0  0  0  0  0  0  0  0
    1.3317   -2.5506    1.5103 C   0  0  0  0  0  0  0  0  0  0  0  0
    2.6726   -2.3081    1.7667 N   0  0  0  0  0  0  0  0  0  0  0  0
    3.1798   -2.4029    3.0640 C   0  0  0  0  0  0  0  0  0  0  0  0
    2.3914   -2.0237    4.1509 C   0  0  0  0  0  0  0  0  0  0  0  0
    2.8391   -2.1878    5.4444 C   0  0  0  0  0  0  0  0  0  0  0  0
    4.0953   -2.7310    5.6801 C   0  0  0  0  0  0  0  0  0  0  0  0
    4.7161   -3.0226    7.3140 S   0  0  0  0  0  0  0  0  0  0  0  0
    3.9722   -1.6497    8.2450 C   0  0  0  0  0  0  0  0  0  0  0  0
    4.9031   -3.0794    4.6030 C   0  0  0  0  0  0  0  0  0  0  0  0
    4.4559   -2.9107    3.3099 C   0  0  0  0  0  0  0  0  0  0  0  0
    3.4930   -2.0644    0.6578 C   0  0  0  0  0  0  0  0  0  0  0  0
    3.2699   -2.7592   -0.5284 C   0  0  0  0  0  0  0  0  0  0  0  0
    4.0638   -2.5389   -1.6366 C   0  0  0  0  0  0  0  0  0  0  0  0
    5.0787   -1.5940   -1.5862 C   0  0  0  0  0  0  0  0  0  0  0  0
    6.1519   -1.2376   -2.9387 S   0  0  0  0  0  0  0  0  0  0  0  0
    5.5245   -2.2864   -4.2834 C   0  0  0  0  0  0  0  0  0  0  0  0
    5.2984   -0.8870   -0.4051 C   0  0  0  0  0  0  0  0  0  0  0  0
    4.5218   -1.1233    0.7079 C   0  0  0  0  0  0  0  0  0  0  0  0
    0.5784   -1.7598    0.6110 C   0  0  0  0  0  0  0  0  0  0  0  0
    0.9443   -0.3737   -0.3449 S   0  0  0  0  0  0  0  0  0  0  0  0
   -0.7456   -0.2471   -0.8453 C   0  0  0  0  0  0  0  0  0  0  0  0
   -1.5302   -1.2461   -0.3008 C   0  0  0  0  0  0  0  0  0  0  0  0
   -2.8609   -1.4986   -0.6120 N   0  0  0  0  0  0  0  0  0  0  0  0
   -3.8094   -0.4670   -0.5439 C   0  0  0  0  0  0  0  0  0  0  0  0
   -3.8412    0.3778    0.5659 C   0  0  0  0  0  0  0  0  0  0  0  0
   -4.7620    1.4026    0.6317 C   0  0  0  0  0  0  0  0  0  0  0  0
   -5.6662    1.6014   -0.4073 C   0  0  0  0  0  0  0  0  0  0  0  0
   -6.7986    2.9499   -0.2578 S   0  0  0  0  0  0  0  0  0  0  0  0
   -8.2121    2.4154   -1.2667 C   0  0  0  0  0  0  0  0  0  0  0  0
   -5.6396    0.7608   -1.5136 C   0  0  0  0  0  0  0  0  0  0  0  0
   -4.7221   -0.2679   -1.5771 C   0  0  0  0  0  0  0  0  0  0  0  0
   -3.2223   -2.7959   -0.9831 C   0  0  0  0  0  0  0  0  0  0  0  0
   -2.2719   -3.6742   -1.5004 C   0  0  0  0  0  0  0  0  0  0  0  0
   -2.6138   -4.9638   -1.8544 C   0  0  0  0  0  0  0  0  0  0  0  0
   -3.9259   -5.3958   -1.7306 C   0  0  0  0  0  0  0  0  0  0  0  0
   -4.4806   -6.9996   -2.2262 S   0  0  0  0  0  0  0  0  0  0  0  0
   -2.9373   -7.9221   -2.4839 C   0  0  0  0  0  0  0  0  0  0  0  0
   -4.8829   -4.5227   -1.2181 C   0  0  0  0  0  0  0  0  0  0  0  0
   -4.5359   -3.2460   -0.8360 C   0  0  0  0  0  0  0  0  0  0  0  0
   -0.7612   -2.0937    0.5420 C   0  0  0  0  0  0  0  0  0  0  0  0
   -1.1452   -3.3996    1.6059 S   0  0  0  0  0  0  0  0  0  0  0  0
   -1.0537    0.8728   -1.6887 C   0  0  0  0  0  0  0  0  0  0  0  0
   -0.2935    1.2413   -2.7870 C   0  0  0  0  0  0  0  0  0  0  0  0
    0.6751    0.4083   -3.3455 N   0  0  0  0  0  0  0  0  0  0  0  0
    1.9782    0.8930   -3.4890 C   0  0  0  0  0  0  0  0  0  0  0  0
    2.7978    0.4747   -4.5334 C   0  0  0  0  0  0  0  0  0  0  0  0
    4.0801    0.9718   -4.6666 C   0  0  0  0  0  0  0  0  0  0  0  0
    4.5667    1.9019   -3.7582 C   0  0  0  0  0  0  0  0  0  0  0  0
    6.1779    2.6171   -3.8266 S   0  0  0  0  0  0  0  0  0  0  0  0
    7.0139    1.6943   -5.1460 C   0  0  0  0  0  0  0  0  0  0  0  0
    3.7443    2.3330   -2.7200 C   0  0  0  0  0  0  0  0  0  0  0  0
    2.4682    1.8371   -2.5857 C   0  0  0  0  0  0  0  0  0  0  0  0
    0.3008   -0.8951   -3.6779 C   0  0  0  0  0  0  0  0  0  0  0  0
   -0.9904   -1.1625   -4.1291 C   0  0  0  0  0  0  0  0  0  0  0  0
   -1.3702   -2.4447   -4.4730 C   0  0  0  0  0  0  0  0  0  0  0  0
   -0.4614   -3.4887   -4.3776 C   0  0  0  0  0  0  0  0  0  0  0  0
   -0.8262   -5.1599   -4.8233 S   0  0  0  0  0  0  0  0  0  0  0  0
   -2.5396   -5.0958   -5.4156 C   0  0  0  0  0  0  0  0  0  0  0  0
    0.8229   -3.2328   -3.9009 C   0  0  0  0  0  0  0  0  0  0  0  0
    1.1978   -1.9550   -3.5505 C   0  0  0  0  0  0  0  0  0  0  0  0
   -0.6852    2.4985   -3.2951 C   0  0  0  0  0  0  0  0  0  0  0  0
   -0.2140    3.5176   -4.6079 S   0  0  0  0  0  0  0  0  0  0  0  0
   -1.5241    4.6420   -4.2546 C   0  0  0  0  0  0  0  0  0  0  0  0
   -2.2666    4.2420   -3.1475 C   0  0  0  0  0  0  0  0  0  0  0  0
   -3.2467    4.9795   -2.4781 N   0  0  0  0  0  0  0  0  0  0  0  0
   -4.5781    4.9477   -2.9118 C   0  0  0  0  0  0  0  0  0  0  0  0
   -5.3874    6.0661   -2.7457 C   0  0  0  0  0  0  0  0  0  0  0  0
   -6.6976    6.0570   -3.1803 C   0  0  0  0  0  0  0  0  0  0  0  0
   -7.2118    4.9274   -3.8025 C   0  0  0  0  0  0  0  0  0  0  0  0
   -8.8643    4.8034   -4.4198 S   0  0  0  0  0  0  0  0  0  0  0  0
   -9.6375    6.3691   -3.9324 C   0  0  0  0  0  0  0  0  0  0  0  0
   -6.4013    3.8088   -3.9770 C   0  0  0  0  0  0  0  0  0  0  0  0
   -5.0981    3.8119   -3.5294 C   0  0  0  0  0  0  0  0  0  0  0  0
   -2.9420    5.3242   -1.1532 C   0  0  0  0  0  0  0  0  0  0  0  0
   -1.6446    5.7158   -0.8298 C   0  0  0  0  0  0  0  0  0  0  0  0
   -1.3061    6.0488    0.4674 C   0  0  0  0  0  0  0  0  0  0  0  0
   -2.2657    6.0022    1.4687 C   0  0  0  0  0  0  0  0  0  0  0  0
   -1.9596    6.4043    3.1602 S   0  0  0  0  0  0  0  0  0  0  0  0
   -0.2199    6.9237    3.1818 C   0  0  0  0  0  0  0  0  0  0  0  0
   -3.5650    5.6107    1.1493 C   0  0  0  0  0  0  0  0  0  0  0  0
   -3.9014    5.2720   -0.1411 C   0  0  0  0  0  0  0  0  0  0  0  0
   -1.7513    3.0487   -2.6018 C   0  0  0  0  0  0  0  0  0  0  0  0
   -2.2817    2.0589   -1.2938 S   0  0  0  0  0  0  0  0  0  0  0  0
   -1.5917    5.8781   -4.9526 C   0  0  0  0  0  0  0  0  0  0  0  0
   -2.7309    6.4662   -5.4058 C   0  0  0  0  0  0  0  0  0  0  0  0
   -2.8208    7.8857   -5.7997 C   0  0  0  0  0  0  0  0  0  0  0  0
   -1.9399    8.7142   -5.7732 O   0  0  0  0  0  0  0  0  0  0  0  0
   -4.2398    8.0923   -6.1982 C   0  0  0  0  0  0  0  0  0  0  0  0
   -4.8878    9.2572   -6.5596 C   0  0  0  0  0  0  0  0  0  0  0  0
   -6.2384    9.1844   -6.8836 C   0  0  0  0  0  0  0  0  0  0  0  0
   -7.0806   10.6171   -7.3254 Cl  0  0  0  0  0  0  0  0  0  0  0  0
   -6.9153    7.9604   -6.8570 C   0  0  0  0  0  0  0  0  0  0  0  0
   -8.5863    7.9002   -7.2602 Cl  0  0  0  0  0  0  0  0  0  0  0  0
   -6.2554    6.7877   -6.5080 C   0  0  0  0  0  0  0  0  0  0  0  0
   -4.9204    6.8699   -6.1657 C   0  0  0  0  0  0  0  0  0  0  0  0
   -3.9943    5.7920   -5.7333 C   0  0  0  0  0  0  0  0  0  0  0  0
   -4.2045    4.5985   -5.7710 O   0  0  0  0  0  0  0  0  0  0  0  0
    3.3607   -7.1647    6.3800 H   0  0  0  0  0  0  0  0  0  0  0  0
    4.5507   -6.5554   11.6016 H   0  0  0  0  0  0  0  0  0  0  0  0
    1.6789   -2.6518   10.4627 H   0  0  0  0  0  0  0  0  0  0  0  0
    4.9017   -6.9793    0.2495 H   0  0  0  0  0  0  0  0  0  0  0  0
    3.8374   -5.6764   -0.3095 H   0  0  0  0  0  0  0  0  0  0  0  0
    5.4765   -3.9791    0.3487 H   0  0  0  0  0  0  0  0  0  0  0  0
    6.2636   -5.1725   -0.6776 H   0  0  0  0  0  0  0  0  0  0  0  0
    6.5323   -5.1964    1.0652 H   0  0  0  0  0  0  0  0  0  0  0  0
    6.2160   -7.2841    3.8686 H   0  0  0  0  0  0  0  0  0  0  0  0
    6.4015   -7.0760    2.1153 H   0  0  0  0  0  0  0  0  0  0  0  0
    4.6453   -9.1529    3.5073 H   0  0  0  0  0  0  0  0  0  0  0  0
    4.7801   -8.9689    1.7572 H   0  0  0  0  0  0  0  0  0  0  0  0
    6.1839   -9.4766    2.7017 H   0  0  0  0  0  0  0  0  0  0  0  0
    1.4134   -1.5997    3.9782 H   0  0  0  0  0  0  0  0  0  0  0  0
    2.1937   -1.9120    6.2609 H   0  0  0  0  0  0  0  0  0  0  0  0
    2.9030   -1.8069    8.3448 H   0  0  0  0  0  0  0  0  0  0  0  0
    4.1847   -0.7175    7.7312 H   0  0  0  0  0  0  0  0  0  0  0  0
    4.4441   -1.6593    9.2222 H   0  0  0  0  0  0  0  0  0  0  0  0
    5.8815   -3.4942    4.7900 H   0  0  0  0  0  0  0  0  0  0  0  0
    5.0898   -3.1900    2.4829 H   0  0  0  0  0  0  0  0  0  0  0  0
    2.4842   -3.4982   -0.5683 H   0  0  0  0  0  0  0  0  0  0  0  0
    3.8945   -3.1291   -2.5225 H   0  0  0  0  0  0  0  0  0  0  0  0
    5.6158   -3.3346   -4.0141 H   0  0  0  0  0  0  0  0  0  0  0  0
    6.1574   -2.0774   -5.1407 H   0  0  0  0  0  0  0  0  0  0  0  0
    4.4958   -2.0214   -4.5108 H   0  0  0  0  0  0  0  0  0  0  0  0
    6.0862   -0.1501   -0.3746 H   0  0  0  0  0  0  0  0  0  0  0  0
    4.7007   -0.5771    1.6216 H   0  0  0  0  0  0  0  0  0  0  0  0
   -3.1413    0.2219    1.3732 H   0  0  0  0  0  0  0  0  0  0  0  0
   -4.7894    2.0591    1.4872 H   0  0  0  0  0  0  0  0  0  0  0  0
   -8.0002    2.5560   -2.3219 H   0  0  0  0  0  0  0  0  0  0  0  0
   -9.0414    3.0518   -0.9741 H   0  0  0  0  0  0  0  0  0  0  0  0
   -8.4413    1.3788   -1.0408 H   0  0  0  0  0  0  0  0  0  0  0  0
   -6.3214    0.9123   -2.3352 H   0  0  0  0  0  0  0  0  0  0  0  0
   -4.6967   -0.9172   -2.4400 H   0  0  0  0  0  0  0  0  0  0  0  0
   -1.2525   -3.3490   -1.6419 H   0  0  0  0  0  0  0  0  0  0  0  0
   -1.8452   -5.6124   -2.2408 H   0  0  0  0  0  0  0  0  0  0  0  0
   -2.3923   -7.5253   -3.3356 H   0  0  0  0  0  0  0  0  0  0  0  0
   -2.3357   -7.8835   -1.5807 H   0  0  0  0  0  0  0  0  0  0  0  0
   -3.2396   -8.9451   -2.6852 H   0  0  0  0  0  0  0  0  0  0  0  0
   -5.9013   -4.8633   -1.1116 H   0  0  0  0  0  0  0  0  0  0  0  0
   -5.2831   -2.5912   -0.4146 H   0  0  0  0  0  0  0  0  0  0  0  0
    2.4210   -0.2356   -5.2554 H   0  0  0  0  0  0  0  0  0  0  0  0
    4.6865    0.6328   -5.4911 H   0  0  0  0  0  0  0  0  0  0  0  0
    6.5294    1.8802   -6.1000 H   0  0  0  0  0  0  0  0  0  0  0  0
    8.0297    2.0756   -5.1698 H   0  0  0  0  0  0  0  0  0  0  0  0
    7.0216    0.6373   -4.8969 H   0  0  0  0  0  0  0  0  0  0  0  0
    4.1247    3.0572   -2.0163 H   0  0  0  0  0  0  0  0  0  0  0  0
    1.8440    2.1683   -1.7692 H   0  0  0  0  0  0  0  0  0  0  0  0
   -1.7039   -0.3572   -4.2210 H   0  0  0  0  0  0  0  0  0  0  0  0
   -2.3772   -2.6117   -4.8190 H   0  0  0  0  0  0  0  0  0  0  0  0
   -2.6110   -4.4224   -6.2647 H   0  0  0  0  0  0  0  0  0  0  0  0
   -3.2007   -4.7914   -4.6084 H   0  0  0  0  0  0  0  0  0  0  0  0
   -2.7815   -6.1066   -5.7303 H   0  0  0  0  0  0  0  0  0  0  0  0
    1.5177   -4.0540   -3.8040 H   0  0  0  0  0  0  0  0  0  0  0  0
    2.1828   -1.7583   -3.1578 H   0  0  0  0  0  0  0  0  0  0  0  0
   -4.9822    6.9486   -2.2734 H   0  0  0  0  0  0  0  0  0  0  0  0
   -7.2985    6.9410   -3.0418 H   0  0  0  0  0  0  0  0  0  0  0  0
   -9.1502    7.1989   -4.4358 H   0  0  0  0  0  0  0  0  0  0  0  0
   -9.5978    6.4802   -2.8528 H   0  0  0  0  0  0  0  0  0  0  0  0
  -10.6703    6.2973   -4.2595 H   0  0  0  0  0  0  0  0  0  0  0  0
   -6.8004    2.9427   -4.4837 H   0  0  0  0  0  0  0  0  0  0  0  0
   -4.4791    2.9379   -3.6572 H   0  0  0  0  0  0  0  0  0  0  0  0
   -0.8912    5.7661   -1.6022 H   0  0  0  0  0  0  0  0  0  0  0  0
   -0.2915    6.3463    0.6774 H   0  0  0  0  0  0  0  0  0  0  0  0
   -0.0133    7.2066    4.2093 H   0  0  0  0  0  0  0  0  0  0  0  0
   -0.0806    7.7801    2.5287 H   0  0  0  0  0  0  0  0  0  0  0  0
    0.4206    6.0958    2.8921 H   0  0  0  0  0  0  0  0  0  0  0  0
   -4.3075    5.5648    1.9311 H   0  0  0  0  0  0  0  0  0  0  0  0
   -4.9058    4.9494   -0.3647 H   0  0  0  0  0  0  0  0  0  0  0  0
   -0.6571    6.4119   -5.0958 H   0  0  0  0  0  0  0  0  0  0  0  0
   -4.3629   10.1990   -6.5897 H   0  0  0  0  0  0  0  0  0  0  0  0
   -6.7758    5.8429   -6.4934 H   0  0  0  0  0  0  0  0  0  0  0  0
  1  2  2  0  0  0  0
  2  3  1  0  0  0  0
  3  4  2  0  0  0  0
  3  5  1  0  0  0  0
  5  6  2  0  0  0  0
  6  7  1  0  0  0  0
  7  8  1  0  0  0  0
  7  9  2  0  0  0  0
  9 10  1  0  0  0  0
  9 11  1  0  0  0  0
 11 12  2  0  0  0  0
 12 13  1  0  0  0  0
 13 14  2  0  0  0  0
  1 15  1  0  0  0  0
 15 16  2  0  0  0  0
 16 17  1  0  0  0  0
 16 18  1  0  0  0  0
 18 19  1  0  0  0  0
 18 20  2  0  0  0  0
 20 21  1  0  0  0  0
 21 22  2  0  0  0  0
 22 23  1  0  0  0  0
 23 24  1  0  0  0  0
 24 25  1  0  0  0  0
 23 26  2  0  0  0  0
 26 27  1  0  0  0  0
 27 28  2  0  0  0  0
 26 29  1  0  0  0  0
 29 30  1  0  0  0  0
 20 31  1  0  0  0  0
 31 32  2  0  0  0  0
 32 33  1  0  0  0  0
 33 34  1  0  0  0  0
 34 35  2  0  0  0  0
 35 36  1  0  0  0  0
 36 37  2  0  0  0  0
 37 38  1  0  0  0  0
 38 39  1  0  0  0  0
 37 40  1  0  0  0  0
 40 41  2  0  0  0  0
 33 42  1  0  0  0  0
 42 43  2  0  0  0  0
 43 44  1  0  0  0  0
 44 45  2  0  0  0  0
 45 46  1  0  0  0  0
 46 47  1  0  0  0  0
 45 48  1  0  0  0  0
 48 49  2  0  0  0  0
 32 50  1  0  0  0  0
 50 51  1  0  0  0  0
 51 52  1  0  0  0  0
 52 53  2  0  0  0  0
 53 54  1  0  0  0  0
 54 55  1  0  0  0  0
 55 56  2  0  0  0  0
 56 57  1  0  0  0  0
 57 58  2  0  0  0  0
 58 59  1  0  0  0  0
 59 60  1  0  0  0  0
 58 61  1  0  0  0  0
 61 62  2  0  0  0  0
 54 63  1  0  0  0  0
 63 64  2  0  0  0  0
 64 65  1  0  0  0  0
 65 66  2  0  0  0  0
 66 67  1  0  0  0  0
 67 68  1  0  0  0  0
 66 69  1  0  0  0  0
 69 70  2  0  0  0  0
 53 71  1  0  0  0  0
 71 72  1  0  0  0  0
 52 73  1  0  0  0  0
 73 74  2  0  0  0  0
 74 75  1  0  0  0  0
 75 76  1  0  0  0  0
 76 77  2  0  0  0  0
 77 78  1  0  0  0  0
 78 79  2  0  0  0  0
 79 80  1  0  0  0  0
 80 81  1  0  0  0  0
 79 82  1  0  0  0  0
 82 83  2  0  0  0  0
 75 84  1  0  0  0  0
 84 85  2  0  0  0  0
 85 86  1  0  0  0  0
 86 87  2  0  0  0  0
 87 88  1  0  0  0  0
 88 89  1  0  0  0  0
 87 90  1  0  0  0  0
 90 91  2  0  0  0  0
 74 92  1  0  0  0  0
 92 93  1  0  0  0  0
 93 94  1  0  0  0  0
 94 95  2  0  0  0  0
 95 96  1  0  0  0  0
 96 97  1  0  0  0  0
 97 98  2  0  0  0  0
 98 99  1  0  0  0  0
 99100  2  0  0  0  0
100101  1  0  0  0  0
101102  1  0  0  0  0
100103  1  0  0  0  0
103104  2  0  0  0  0
 96105  1  0  0  0  0
105106  2  0  0  0  0
106107  1  0  0  0  0
107108  2  0  0  0  0
108109  1  0  0  0  0
109110  1  0  0  0  0
108111  1  0  0  0  0
111112  2  0  0  0  0
 95113  1  0  0  0  0
113114  1  0  0  0  0
 94115  1  0  0  0  0
115116  2  0  0  0  0
116117  1  0  0  0  0
117118  2  0  0  0  0
117119  1  0  0  0  0
119120  2  0  0  0  0
120121  1  0  0  0  0
121122  1  0  0  0  0
121123  2  0  0  0  0
123124  1  0  0  0  0
123125  1  0  0  0  0
125126  2  0  0  0  0
126127  1  0  0  0  0
127128  2  0  0  0  0
 13  2  1  0  0  0  0
 28 15  1  0  0  0  0
 72 31  1  0  0  0  0
114 73  1  0  0  0  0
127116  1  0  0  0  0
 12  5  1  0  0  0  0
 28 21  1  0  0  0  0
 41 34  1  0  0  0  0
 49 42  1  0  0  0  0
 71 50  2  0  0  0  0
 83 76  1  0  0  0  0
 91 84  1  0  0  0  0
113 92  2  0  0  0  0
126119  1  0  0  0  0
 62 55  1  0  0  0  0
 70 63  1  0  0  0  0
104 97  1  0  0  0  0
112105  1  0  0  0  0
  1129  1  0  0  0  0
  6130  1  0  0  0  0
 11131  1  0  0  0  0
 24132  1  0  0  0  0
 24133  1  0  0  0  0
 25134  1  0  0  0  0
 25135  1  0  0  0  0
 25136  1  0  0  0  0
 29137  1  0  0  0  0
 29138  1  0  0  0  0
 30139  1  0  0  0  0
 30140  1  0  0  0  0
 30141  1  0  0  0  0
 35142  1  0  0  0  0
 36143  1  0  0  0  0
 39144  1  0  0  0  0
 39145  1  0  0  0  0
 39146  1  0  0  0  0
 40147  1  0  0  0  0
 41148  1  0  0  0  0
 43149  1  0  0  0  0
 44150  1  0  0  0  0
 47151  1  0  0  0  0
 47152  1  0  0  0  0
 47153  1  0  0  0  0
 48154  1  0  0  0  0
 49155  1  0  0  0  0
 56156  1  0  0  0  0
 57157  1  0  0  0  0
 60158  1  0  0  0  0
 60159  1  0  0  0  0
 60160  1  0  0  0  0
 61161  1  0  0  0  0
 62162  1  0  0  0  0
 64163  1  0  0  0  0
 65164  1  0  0  0  0
 68165  1  0  0  0  0
 68166  1  0  0  0  0
 68167  1  0  0  0  0
 69168  1  0  0  0  0
 70169  1  0  0  0  0
 77170  1  0  0  0  0
 78171  1  0  0  0  0
 81172  1  0  0  0  0
 81173  1  0  0  0  0
 81174  1  0  0  0  0
 82175  1  0  0  0  0
 83176  1  0  0  0  0
 85177  1  0  0  0  0
 86178  1  0  0  0  0
 89179  1  0  0  0  0
 89180  1  0  0  0  0
 89181  1  0  0  0  0
 90182  1  0  0  0  0
 91183  1  0  0  0  0
 98184  1  0  0  0  0
 99185  1  0  0  0  0
102186  1  0  0  0  0
102187  1  0  0  0  0
102188  1  0  0  0  0
103189  1  0  0  0  0
104190  1  0  0  0  0
106191  1  0  0  0  0
107192  1  0  0  0  0
110193  1  0  0  0  0
110194  1  0  0  0  0
110195  1  0  0  0  0
111196  1  0  0  0  0
112197  1  0  0  0  0
115198  1  0  0  0  0
120199  1  0  0  0  0
125200  1  0  0  0  0
M  END
