240

C         -5.60200       -1.85650        6.68860
C         -5.80080       -1.05800        7.79080
C         -6.16530       -1.65700        9.07930
O         -6.34270       -2.83270        9.32370
C         -6.28590       -0.51720       10.03150
C         -6.59720       -0.51710       11.37520
C         -6.63620        0.70480       12.04100
Cl        -7.01940        0.74040       13.71730
C         -6.36770        1.89680       11.36420
Cl        -6.42020        3.39270       12.21170
C         -6.05670        1.89140       10.00780
C         -6.01940        0.67740        9.35380
C         -5.71730        0.38590        7.92420
O         -5.46130        1.21790        7.07120
C         -5.24990       -1.52440        5.38420
C         -5.01770       -2.46330        4.34640
N         -5.24990       -3.81070        4.41140
C         -4.48480       -4.68220        3.61100
C         -5.10220       -5.70010        2.88910
C         -4.34490       -6.55190        2.11200
C         -2.96260       -6.41290        2.02670
C         -2.15810       -7.35210        1.18160
C         -2.35540       -5.39660        2.75140
C         -3.10130       -4.54300        3.54170
C         -6.32440       -4.35440        5.14450
C         -7.57130       -3.73570        5.14680
C         -8.60530       -4.27340        5.88590
C         -8.43090       -5.43890        6.62350
C         -9.54140       -5.99190        7.46010
C         -7.19060       -6.06490        6.58830
C         -6.14520       -5.53470        5.85890
C         -4.49140       -1.82630        3.21280
S         -3.95700       -2.38960        1.66330
C         -3.53560       -0.74980        1.19440
C         -3.89410        0.18590        2.16800
N         -3.71010        1.55790        2.06490
C         -3.17810        2.18850        3.21220
C         -3.80700        3.27670        3.80430
C         -3.28300        3.82880        4.95690
C         -2.13610        3.31020        5.54490
C         -1.60160        3.87390        6.82460
C         -1.50730        2.23060        4.93600
C         -2.01750        1.67430        3.78130
C         -4.21480        2.29700        0.99850
C         -3.70790        3.56940        0.72870
C         -4.17680        4.29480       -0.34720
C         -5.14530        3.77760       -1.19780
C         -5.62860        4.54650       -2.39040
C         -5.64490        2.50920       -0.92540
C         -5.19750        1.77780        0.15530
C         -4.39720       -0.44310        3.32520
S         -4.91470        0.13590        4.86580
C         -2.67050       -0.52520        0.10270
C         -2.09390       -1.48250       -0.73810
N         -2.53950       -2.78970       -0.87870
C         -1.57050       -3.80240       -0.87210
C         -0.48960       -3.70870        0.00500
C          0.48430       -4.68090        0.01580
C          0.39480       -5.77640       -0.83940
S          1.68760       -6.97640       -0.73140
C          0.97760       -8.44090       -1.53250
C         -0.67370       -5.87060       -1.72060
C         -1.64330       -4.88800       -1.73970
C         -3.88480       -3.05470       -1.14550
C         -4.45690       -4.27170       -0.76350
C         -5.78880       -4.51780       -0.99790
C         -6.59200       -3.55770       -1.61220
S         -8.28790       -3.98920       -1.84960
C         -9.01000       -2.52050       -2.63520
C         -6.03130       -2.34610       -1.98950
C         -4.69090       -2.10050       -1.76110
C         -0.96040       -0.95850       -1.39410
S          0.29390       -1.58030       -2.40990
C          1.14540       -0.02330       -2.39730
C          0.43940        0.92630       -1.68310
N          0.70020        2.30760       -1.52200
C          0.78240        2.77670       -0.20840
C          0.70840        4.13820        0.09180
C          0.84500        4.59170        1.38840
C          1.05820        3.69830        2.42670
S          1.24870        4.21070        4.11160
C          0.19580        5.68910        4.19260
C          1.17500        2.34550        2.13790
C          1.04210        1.89400        0.84370
C          0.04180        3.05880       -2.53360
C          0.46740        2.93310       -3.85360
C         -0.12580        3.67370       -4.85140
C         -1.17900        4.53770       -4.55870
S         -1.82940        5.47510       -5.90740
C         -3.04100        6.57970       -5.12440
C         -1.66380        4.59940       -3.25980
C         -1.06460        3.85580       -2.26040
C         -0.72970        0.37920       -1.11980
S         -1.90350        1.04790       -0.05240
C          2.45420       -0.04860       -2.97030
C          3.58470        0.71680       -2.72630
N          3.63670        1.93100       -2.01200
C          3.48640        3.10150       -2.75910
C          3.73890        3.09650       -4.13470
C          3.45360        4.19850       -4.91090
C          2.91080        5.34240       -4.33890
S          2.49640        6.68560       -5.41220
C          1.14290        7.49350       -4.50690
C          2.71850        5.38160       -2.96560
C          2.99980        4.27690       -2.18890
C          3.99960        1.87310       -0.66700
C          3.78620        0.69560        0.05500
C          4.06790        0.63380        1.40090
C          4.56750        1.74550        2.07040
S          4.82400        1.58790        3.81180
C          4.93770        3.30960        4.37270
C          4.86210        2.89020        1.34470
C          4.59790        2.94610       -0.00940
C          4.74270        0.12500       -3.27500
S          6.40400        0.57970       -3.25580
C          6.81150       -0.86740       -4.19140
C          5.66170       -1.62290       -4.54090
N          5.63360       -2.74360       -5.32790
C          4.56650       -3.65460       -5.19770
C          4.14960       -4.09740       -3.94220
C          3.09170       -4.97310       -3.83240
C          2.43740       -5.42900       -4.97460
S          1.08620       -6.53320       -4.72890
C          0.38010       -6.75610       -6.38570
C          2.86980       -5.01570       -6.22760
C          3.92550       -4.13330       -6.33540
C          6.57500       -2.98720       -6.34680
C          7.06930       -4.27670       -6.52980
C          8.05980       -4.51120       -7.46010
C          8.57450       -3.46170       -8.21100
S          9.92670       -3.78330       -9.30300
C         10.98650       -2.35080       -8.93750
C          8.02580       -2.19030       -8.08750
C          7.02400       -1.95620       -7.17060
C          4.50810       -1.05110       -3.97820
S          2.81970       -1.44840       -3.97160
C          8.12420       -1.20960       -4.50930
C          9.30040       -0.52260       -4.32520
C         10.54720       -1.03020       -4.90350
O         10.69070       -2.02100       -5.59460
C         11.59710       -0.04570       -4.52850
C         12.94910       -0.04800       -4.80270
C         13.71800        1.00970       -4.32580
Cl        15.40740        1.03440       -4.64430
C         13.13350        2.04650       -3.59370
Cl        14.10710        3.34070       -3.01710
C         11.76790        2.04620       -3.32400
C         11.01180        0.99400       -3.79660
C          9.55050        0.74430       -3.65470
O          8.75590        1.46900       -3.08500
H         -5.72270       -2.91510        6.89580
H         -6.80360       -1.43720       11.89870
H         -5.85070        2.81170        9.48430
H         -6.17500       -5.81300        2.93900
H         -4.83450       -7.33710        1.55400
H         -1.11060       -7.06320        1.17460
H         -2.23850       -8.36830        1.56720
H         -2.52570       -7.35470        0.15560
H         -1.28360       -5.27380        2.70180
H         -2.61460       -3.76750        4.11490
H         -7.71860       -2.82950        4.57790
H         -9.56640       -3.78030        5.88780
H        -10.51130       -5.69200        7.07050
H         -9.45270       -5.61230        8.47840
H         -9.49460       -7.07770        7.50150
H         -7.03650       -6.97350        7.15120
H         -5.18120       -6.02160        5.84790
H         -4.71230        3.67350        3.36900
H         -3.78690        4.66590        5.41800
H         -0.51540        3.81620        6.84770
H         -1.91100        4.90820        6.95800
H         -1.98730        3.29620        7.66510
H         -0.60600        1.82530        5.37130
H         -1.52350        0.83700        3.30970
H         -2.93170        3.97430        1.36100
H         -3.77370        5.28080       -0.53230
H         -5.21190        4.11970       -3.30410
H         -5.33110        5.59100       -2.32670
H         -6.71330        4.49860       -2.46720
H         -6.40460        2.08960       -1.56980
H         -5.60870        0.79820        0.35100
H         -0.42820       -2.87340        0.68670
H          1.32030       -4.61110        0.69520
H          0.91830       -8.28760       -2.60570
H          0.00150       -8.64810       -1.10430
H          1.66150       -9.25480       -1.31260
H         -0.74810       -6.69440       -2.41100
H         -2.46120       -4.95810       -2.44100
H         -3.85320       -5.00560       -0.25370
H         -6.23010       -5.45410       -0.69320
H         -8.91530       -1.66240       -1.97620
H         -8.53340       -2.33880       -3.59420
H        -10.05910       -2.75600       -2.78470
H         -6.62210       -1.58130       -2.46750
H         -4.26860       -1.15360       -2.06480
H          0.55430        4.85870       -0.69620
H          0.78640        5.65280        1.57630
H         -0.77620        5.45510        3.76870
H          0.66420        6.52100        3.67470
H          0.09460        5.92730        5.24610
H          1.37450        1.64880        2.93680
H          1.14760        0.83890        0.64900
H          1.27400        2.25970       -4.09250
H          0.22580        3.59840       -5.86870
H         -2.56030        7.16530       -4.34610
H         -3.87420        6.00570       -4.72960
H         -3.39030        7.23540       -5.91580
H         -2.51630        5.20920       -3.00920
H         -1.47680        3.88610       -1.26280
H          4.14580        2.21750       -4.61000
H          3.63750        4.17680       -5.97400
H          0.48570        6.72940       -4.10280
H          1.53690        8.13000       -3.71930
H          0.61380        8.09700       -5.23760
H          2.33490        6.27020       -2.48850
H          2.80860        4.31730       -1.13000
H          3.38290       -0.17570       -0.43890
H          3.88660       -0.27560        1.95350
H          4.90010        3.26910        5.45660
H          5.87790        3.75050        4.05400
H          4.08510        3.86560        3.99490
H          5.31270        3.74650        1.82050
H          4.88120        3.82780       -0.56190
H          4.66100       -3.75450       -3.05540
H          2.76490       -5.31260       -2.86190
H         -0.50380       -7.37140       -6.24800
H          0.09740       -5.79100       -6.79580
H          1.08750       -7.27060       -7.02950
H          2.39230       -5.36500       -7.12860
H          4.25390       -3.80570       -7.31050
H          6.69990       -5.08140       -5.91160
H          8.46930       -5.50110       -7.58520
H         10.99770       -2.19820       -7.86170
H         10.62990       -1.46720       -9.45870
H         11.97810       -2.61140       -9.29310
H          8.38050       -1.38110       -8.70600
H          6.60680       -0.96580       -7.06420
H          8.26320       -2.16480       -5.00340
H         13.40270       -0.84800       -5.36640
H         11.31550        2.84700       -2.76060
