
  xtb     02052203303D
 energy: -269.911799959142 gnorm: 0.000215541717 xtb: 6.4.1 (unknown)
156171  0     0  0            999 V2000
   -4.3077   -3.8236   10.6522 C   0  0  0  0  0  0  0  0  0  0  0  0
   -5.0481   -2.9351   11.3748 C   0  0  0  0  0  0  0  0  0  0  0  0
   -5.4550   -1.5346   11.1758 C   0  0  0  0  0  0  0  0  0  0  0  0
   -5.2462   -0.7865   10.2420 O   0  0  0  0  0  0  0  0  0  0  0  0
   -6.2275   -1.1616   12.3917 C   0  0  0  0  0  0  0  0  0  0  0  0
   -6.8139    0.0498   12.7023 C   0  0  0  0  0  0  0  0  0  0  0  0
   -7.4907    0.1600   13.9116 C   0  0  0  0  0  0  0  0  0  0  0  0
   -8.2313    1.6530   14.3325 Cl  0  0  0  0  0  0  0  0  0  0  0  0
   -7.5749   -0.9284   14.7873 C   0  0  0  0  0  0  0  0  0  0  0  0
   -8.4185   -0.7629   16.2754 Cl  0  0  0  0  0  0  0  0  0  0  0  0
   -6.9825   -2.1457   14.4686 C   0  0  0  0  0  0  0  0  0  0  0  0
   -6.3109   -2.2480   13.2663 C   0  0  0  0  0  0  0  0  0  0  0  0
   -5.5900   -3.4022   12.6761 C   0  0  0  0  0  0  0  0  0  0  0  0
   -5.4650   -4.5055   13.1575 O   0  0  0  0  0  0  0  0  0  0  0  0
   -3.6164   -3.7552    9.4032 C   0  0  0  0  0  0  0  0  0  0  0  0
   -3.6105   -2.6168    8.5889 C   0  0  0  0  0  0  0  0  0  0  0  0
   -2.8967   -2.6546    7.4082 C   0  0  0  0  0  0  0  0  0  0  0  0
   -2.7319   -1.6674    6.4673 N   0  0  0  0  0  0  0  0  0  0  0  0
   -3.3471   -0.3664    6.5169 C   0  0  0  0  0  0  0  0  0  0  0  0
   -4.7492   -0.3878    5.9138 C   0  0  0  0  0  0  0  0  0  0  0  0
   -1.9473   -2.1594    5.4580 C   0  0  0  0  0  0  0  0  0  0  0  0
   -1.5665   -3.4931    5.7599 C   0  0  0  0  0  0  0  0  0  0  0  0
   -2.1793   -3.8141    7.0065 C   0  0  0  0  0  0  0  0  0  0  0  0
   -2.1946   -4.9474    7.8190 C   0  0  0  0  0  0  0  0  0  0  0  0
   -2.9040   -4.9098    8.9930 C   0  0  0  0  0  0  0  0  0  0  0  0
   -0.7254   -4.1794    4.8868 C   0  0  0  0  0  0  0  0  0  0  0  0
   -0.2785   -3.5408    3.7561 C   0  0  0  0  0  0  0  0  0  0  0  0
   -0.6603   -2.2185    3.4476 C   0  0  0  0  0  0  0  0  0  0  0  0
   -1.5107   -1.5281    4.3046 C   0  0  0  0  0  0  0  0  0  0  0  0
   -0.1160   -1.5987    2.2541 C   0  0  0  0  0  0  0  0  0  0  0  0
   -0.6292   -0.6417    1.4020 C   0  0  0  0  0  0  0  0  0  0  0  0
   -1.9177   -0.0761    1.4112 N   0  0  0  0  0  0  0  0  0  0  0  0
   -2.6109   -0.2157    0.1977 C   0  0  0  0  0  0  0  0  0  0  0  0
   -2.6056   -1.4524   -0.4427 C   0  0  0  0  0  0  0  0  0  0  0  0
   -3.2154   -1.6192   -1.6707 C   0  0  0  0  0  0  0  0  0  0  0  0
   -3.8528   -0.5472   -2.2786 C   0  0  0  0  0  0  0  0  0  0  0  0
   -4.6427   -0.6263   -3.8581 S   0  0  0  0  0  0  0  0  0  0  0  0
   -4.5917   -2.3903   -4.2856 C   0  0  0  0  0  0  0  0  0  0  0  0
   -3.8703    0.6900   -1.6376 C   0  0  0  0  0  0  0  0  0  0  0  0
   -3.2539    0.8584   -0.4184 C   0  0  0  0  0  0  0  0  0  0  0  0
   -2.2743    0.9001    2.3365 C   0  0  0  0  0  0  0  0  0  0  0  0
   -1.3047    1.6033    3.0578 C   0  0  0  0  0  0  0  0  0  0  0  0
   -1.6772    2.5152    4.0204 C   0  0  0  0  0  0  0  0  0  0  0  0
   -3.0236    2.7631    4.2799 C   0  0  0  0  0  0  0  0  0  0  0  0
   -3.3774    3.9284    5.5618 S   0  0  0  0  0  0  0  0  0  0  0  0
   -5.1794    4.1289    5.4856 C   0  0  0  0  0  0  0  0  0  0  0  0
   -3.9915    2.0826    3.5533 C   0  0  0  0  0  0  0  0  0  0  0  0
   -3.6198    1.1573    2.5986 C   0  0  0  0  0  0  0  0  0  0  0  0
    0.2719   -0.3533    0.3456 C   0  0  0  0  0  0  0  0  0  0  0  0
    0.1996    0.7050   -1.0173 S   0  0  0  0  0  0  0  0  0  0  0  0
    1.8154    0.2212   -1.4978 C   0  0  0  0  0  0  0  0  0  0  0  0
    2.3461   -0.7601   -0.6814 C   0  0  0  0  0  0  0  0  0  0  0  0
    3.5378   -1.4377   -0.9013 N   0  0  0  0  0  0  0  0  0  0  0  0
    4.0005   -1.6508   -2.2069 C   0  0  0  0  0  0  0  0  0  0  0  0
    5.3569   -1.5153   -2.5067 C   0  0  0  0  0  0  0  0  0  0  0  0
    5.7893   -1.5805   -3.8114 C   0  0  0  0  0  0  0  0  0  0  0  0
    4.8825   -1.7813   -4.8497 C   0  0  0  0  0  0  0  0  0  0  0  0
    5.5330   -1.7254   -6.4902 S   0  0  0  0  0  0  0  0  0  0  0  0
    4.0545   -1.7089   -7.5411 C   0  0  0  0  0  0  0  0  0  0  0  0
    3.5461   -2.0034   -4.5489 C   0  0  0  0  0  0  0  0  0  0  0  0
    3.1136   -1.9449   -3.2391 C   0  0  0  0  0  0  0  0  0  0  0  0
    4.2922   -1.8677    0.1968 C   0  0  0  0  0  0  0  0  0  0  0  0
    4.9690   -3.0877    0.1521 C   0  0  0  0  0  0  0  0  0  0  0  0
    5.6872   -3.5220    1.2419 C   0  0  0  0  0  0  0  0  0  0  0  0
    5.7433   -2.7564    2.4060 C   0  0  0  0  0  0  0  0  0  0  0  0
    6.6843   -3.4271    3.7414 S   0  0  0  0  0  0  0  0  0  0  0  0
    6.3633   -2.2863    5.1165 C   0  0  0  0  0  0  0  0  0  0  0  0
    5.0847   -1.5366    2.4509 C   0  0  0  0  0  0  0  0  0  0  0  0
    4.3705   -1.0963    1.3528 C   0  0  0  0  0  0  0  0  0  0  0  0
    1.4582   -1.0607    0.3861 C   0  0  0  0  0  0  0  0  0  0  0  0
    1.4893   -2.1210    1.7492 S   0  0  0  0  0  0  0  0  0  0  0  0
    2.4075    0.7857   -2.6964 C   0  0  0  0  0  0  0  0  0  0  0  0
    1.6448    0.9031   -3.8521 C   0  0  0  0  0  0  0  0  0  0  0  0
    2.2830    1.2839   -5.0210 C   0  0  0  0  0  0  0  0  0  0  0  0
    1.7803    1.3979   -6.2917 N   0  0  0  0  0  0  0  0  0  0  0  0
    0.4168    1.1488   -6.6830 C   0  0  0  0  0  0  0  0  0  0  0  0
    0.1772   -0.3286   -6.9902 C   0  0  0  0  0  0  0  0  0  0  0  0
    2.8190    1.6896   -7.1449 C   0  0  0  0  0  0  0  0  0  0  0  0
    4.0211    1.8114   -6.3956 C   0  0  0  0  0  0  0  0  0  0  0  0
    3.6752    1.5601   -5.0361 C   0  0  0  0  0  0  0  0  0  0  0  0
    4.4048    1.5251   -3.8512 C   0  0  0  0  0  0  0  0  0  0  0  0
    3.7682    1.1453   -2.6956 C   0  0  0  0  0  0  0  0  0  0  0  0
    5.2195    2.0830   -7.0530 C   0  0  0  0  0  0  0  0  0  0  0  0
    5.2044    2.2297   -8.4170 C   0  0  0  0  0  0  0  0  0  0  0  0
    4.0105    2.1139   -9.1714 C   0  0  0  0  0  0  0  0  0  0  0  0
    2.8039    1.8364   -8.5172 C   0  0  0  0  0  0  0  0  0  0  0  0
    4.1150    2.2953  -10.5851 C   0  0  0  0  0  0  0  0  0  0  0  0
    3.2200    2.2677  -11.6132 C   0  0  0  0  0  0  0  0  0  0  0  0
    1.7735    2.0145  -11.7096 C   0  0  0  0  0  0  0  0  0  0  0  0
    0.9778    1.7046  -10.8454 O   0  0  0  0  0  0  0  0  0  0  0  0
    1.4261    2.1973  -13.1447 C   0  0  0  0  0  0  0  0  0  0  0  0
    0.1903    2.0940  -13.7530 C   0  0  0  0  0  0  0  0  0  0  0  0
    0.1135    2.3134  -15.1237 C   0  0  0  0  0  0  0  0  0  0  0  0
   -1.4083    2.1966  -15.9141 Cl  0  0  0  0  0  0  0  0  0  0  0  0
    1.2586    2.6280  -15.8644 C   0  0  0  0  0  0  0  0  0  0  0  0
    1.1333    2.8937  -17.5576 Cl  0  0  0  0  0  0  0  0  0  0  0  0
    2.5003    2.7290  -15.2463 C   0  0  0  0  0  0  0  0  0  0  0  0
    2.5693    2.5115  -13.8844 C   0  0  0  0  0  0  0  0  0  0  0  0
    3.7390    2.5584  -12.9739 C   0  0  0  0  0  0  0  0  0  0  0  0
    4.8876    2.7906  -13.2754 O   0  0  0  0  0  0  0  0  0  0  0  0
   -4.2232   -4.7876   11.1516 H   0  0  0  0  0  0  0  0  0  0  0  0
   -6.7481    0.8884   12.0270 H   0  0  0  0  0  0  0  0  0  0  0  0
   -7.0464   -2.9850   15.1429 H   0  0  0  0  0  0  0  0  0  0  0  0
   -4.1539   -1.7380    8.8880 H   0  0  0  0  0  0  0  0  0  0  0  0
   -3.3990   -0.0488    7.5614 H   0  0  0  0  0  0  0  0  0  0  0  0
   -2.7151    0.3408    5.9737 H   0  0  0  0  0  0  0  0  0  0  0  0
   -4.7072   -0.6767    4.8661 H   0  0  0  0  0  0  0  0  0  0  0  0
   -5.1958    0.5991    5.9877 H   0  0  0  0  0  0  0  0  0  0  0  0
   -5.3782   -1.0941    6.4502 H   0  0  0  0  0  0  0  0  0  0  0  0
   -1.6561   -5.8356    7.5252 H   0  0  0  0  0  0  0  0  0  0  0  0
   -2.9237   -5.7801    9.6320 H   0  0  0  0  0  0  0  0  0  0  0  0
   -0.4244   -5.1934    5.1013 H   0  0  0  0  0  0  0  0  0  0  0  0
    0.3794   -4.0602    3.0751 H   0  0  0  0  0  0  0  0  0  0  0  0
   -1.7929   -0.5123    4.0969 H   0  0  0  0  0  0  0  0  0  0  0  0
   -2.1102   -2.2904    0.0256 H   0  0  0  0  0  0  0  0  0  0  0  0
   -3.1826   -2.5896   -2.1394 H   0  0  0  0  0  0  0  0  0  0  0  0
   -5.0839   -2.9718   -3.5117 H   0  0  0  0  0  0  0  0  0  0  0  0
   -5.1389   -2.4802   -5.2188 H   0  0  0  0  0  0  0  0  0  0  0  0
   -3.5645   -2.7129   -4.4297 H   0  0  0  0  0  0  0  0  0  0  0  0
   -4.3592    1.5229   -2.1194 H   0  0  0  0  0  0  0  0  0  0  0  0
   -3.2496    1.8294    0.0529 H   0  0  0  0  0  0  0  0  0  0  0  0
   -0.2582    1.4200    2.8634 H   0  0  0  0  0  0  0  0  0  0  0  0
   -0.9273    3.0513    4.5816 H   0  0  0  0  0  0  0  0  0  0  0  0
   -5.6747    3.2042    5.7681 H   0  0  0  0  0  0  0  0  0  0  0  0
   -5.4164    4.9048    6.2070 H   0  0  0  0  0  0  0  0  0  0  0  0
   -5.4744    4.4476    4.4902 H   0  0  0  0  0  0  0  0  0  0  0  0
   -5.0416    2.2517    3.7278 H   0  0  0  0  0  0  0  0  0  0  0  0
   -4.3793    0.6159    2.0547 H   0  0  0  0  0  0  0  0  0  0  0  0
    6.0625   -1.3235   -1.7123 H   0  0  0  0  0  0  0  0  0  0  0  0
    6.8336   -1.4454   -4.0470 H   0  0  0  0  0  0  0  0  0  0  0  0
    4.4104   -1.5073   -8.5467 H   0  0  0  0  0  0  0  0  0  0  0  0
    3.3914   -0.9119   -7.2209 H   0  0  0  0  0  0  0  0  0  0  0  0
    3.5596   -2.6756   -7.5121 H   0  0  0  0  0  0  0  0  0  0  0  0
    2.8302   -2.2182   -5.3260 H   0  0  0  0  0  0  0  0  0  0  0  0
    2.0697   -2.1077   -3.0148 H   0  0  0  0  0  0  0  0  0  0  0  0
    4.9184   -3.6914   -0.7416 H   0  0  0  0  0  0  0  0  0  0  0  0
    6.2061   -4.4677    1.2116 H   0  0  0  0  0  0  0  0  0  0  0  0
    6.8574   -2.7227    5.9790 H   0  0  0  0  0  0  0  0  0  0  0  0
    6.7917   -1.3112    4.9032 H   0  0  0  0  0  0  0  0  0  0  0  0
    5.2944   -2.2192    5.2971 H   0  0  0  0  0  0  0  0  0  0  0  0
    5.1226   -0.9126    3.3290 H   0  0  0  0  0  0  0  0  0  0  0  0
    3.8737   -0.1376    1.3918 H   0  0  0  0  0  0  0  0  0  0  0  0
    0.5954    0.6492   -3.8313 H   0  0  0  0  0  0  0  0  0  0  0  0
    0.1955    1.7503   -7.5676 H   0  0  0  0  0  0  0  0  0  0  0  0
   -0.2392    1.4748   -5.8715 H   0  0  0  0  0  0  0  0  0  0  0  0
    0.4252   -0.9402   -6.1250 H   0  0  0  0  0  0  0  0  0  0  0  0
   -0.8668   -0.4885   -7.2441 H   0  0  0  0  0  0  0  0  0  0  0  0
    0.7901   -0.6434   -7.8319 H   0  0  0  0  0  0  0  0  0  0  0  0
    5.4539    1.7759   -3.8483 H   0  0  0  0  0  0  0  0  0  0  0  0
    4.3132    1.1097   -1.7650 H   0  0  0  0  0  0  0  0  0  0  0  0
    6.1391    2.1652   -6.4949 H   0  0  0  0  0  0  0  0  0  0  0  0
    6.1258    2.4357   -8.9407 H   0  0  0  0  0  0  0  0  0  0  0  0
    1.8952    1.7327   -9.0838 H   0  0  0  0  0  0  0  0  0  0  0  0
    5.1246    2.5176  -10.9272 H   0  0  0  0  0  0  0  0  0  0  0  0
   -0.6919    1.8516  -13.1817 H   0  0  0  0  0  0  0  0  0  0  0  0
    3.3835    2.9714  -15.8159 H   0  0  0  0  0  0  0  0  0  0  0  0
  1  2  2  0  0  0  0
  2  3  1  0  0  0  0
  3  4  2  0  0  0  0
  3  5  1  0  0  0  0
  5  6  2  0  0  0  0
  6  7  1  0  0  0  0
  7  8  1  0  0  0  0
  7  9  2  0  0  0  0
  9 10  1  0  0  0  0
  9 11  1  0  0  0  0
 11 12  2  0  0  0  0
 12 13  1  0  0  0  0
 13 14  2  0  0  0  0
  1 15  1  0  0  0  0
 15 16  2  0  0  0  0
 16 17  1  0  0  0  0
 17 18  1  0  0  0  0
 18 19  1  0  0  0  0
 19 20  1  0  0  0  0
 18 21  1  0  0  0  0
 21 22  2  0  0  0  0
 22 23  1  0  0  0  0
 23 24  1  0  0  0  0
 24 25  2  0  0  0  0
 22 26  1  0  0  0  0
 26 27  2  0  0  0  0
 27 28  1  0  0  0  0
 28 29  2  0  0  0  0
 28 30  1  0  0  0  0
 30 31  2  0  0  0  0
 31 32  1  0  0  0  0
 32 33  1  0  0  0  0
 33 34  2  0  0  0  0
 34 35  1  0  0  0  0
 35 36  2  0  0  0  0
 36 37  1  0  0  0  0
 37 38  1  0  0  0  0
 36 39  1  0  0  0  0
 39 40  2  0  0  0  0
 32 41  1  0  0  0  0
 41 42  2  0  0  0  0
 42 43  1  0  0  0  0
 43 44  2  0  0  0  0
 44 45  1  0  0  0  0
 45 46  1  0  0  0  0
 44 47  1  0  0  0  0
 47 48  2  0  0  0  0
 31 49  1  0  0  0  0
 49 50  1  0  0  0  0
 50 51  1  0  0  0  0
 51 52  2  0  0  0  0
 52 53  1  0  0  0  0
 53 54  1  0  0  0  0
 54 55  2  0  0  0  0
 55 56  1  0  0  0  0
 56 57  2  0  0  0  0
 57 58  1  0  0  0  0
 58 59  1  0  0  0  0
 57 60  1  0  0  0  0
 60 61  2  0  0  0  0
 53 62  1  0  0  0  0
 62 63  2  0  0  0  0
 63 64  1  0  0  0  0
 64 65  2  0  0  0  0
 65 66  1  0  0  0  0
 66 67  1  0  0  0  0
 65 68  1  0  0  0  0
 68 69  2  0  0  0  0
 52 70  1  0  0  0  0
 70 71  1  0  0  0  0
 51 72  1  0  0  0  0
 72 73  2  0  0  0  0
 73 74  1  0  0  0  0
 74 75  1  0  0  0  0
 75 76  1  0  0  0  0
 76 77  1  0  0  0  0
 75 78  1  0  0  0  0
 78 79  2  0  0  0  0
 79 80  1  0  0  0  0
 80 81  1  0  0  0  0
 81 82  2  0  0  0  0
 79 83  1  0  0  0  0
 83 84  2  0  0  0  0
 84 85  1  0  0  0  0
 85 86  2  0  0  0  0
 85 87  1  0  0  0  0
 87 88  2  0  0  0  0
 88 89  1  0  0  0  0
 89 90  2  0  0  0  0
 89 91  1  0  0  0  0
 91 92  2  0  0  0  0
 92 93  1  0  0  0  0
 93 94  1  0  0  0  0
 93 95  2  0  0  0  0
 95 96  1  0  0  0  0
 95 97  1  0  0  0  0
 97 98  2  0  0  0  0
 98 99  1  0  0  0  0
 99100  2  0  0  0  0
 13  2  1  0  0  0  0
 25 15  1  0  0  0  0
 71 30  1  0  0  0  0
 82 72  1  0  0  0  0
 99 88  1  0  0  0  0
 12  5  1  0  0  0  0
 23 17  2  0  0  0  0
 40 33  1  0  0  0  0
 48 41  1  0  0  0  0
 70 49  2  0  0  0  0
 80 74  2  0  0  0  0
 98 91  1  0  0  0  0
 29 21  1  0  0  0  0
 61 54  1  0  0  0  0
 69 62  1  0  0  0  0
 86 78  1  0  0  0  0
  1101  1  0  0  0  0
  6102  1  0  0  0  0
 11103  1  0  0  0  0
 16104  1  0  0  0  0
 19105  1  0  0  0  0
 19106  1  0  0  0  0
 20107  1  0  0  0  0
 20108  1  0  0  0  0
 20109  1  0  0  0  0
 24110  1  0  0  0  0
 25111  1  0  0  0  0
 26112  1  0  0  0  0
 27113  1  0  0  0  0
 29114  1  0  0  0  0
 34115  1  0  0  0  0
 35116  1  0  0  0  0
 38117  1  0  0  0  0
 38118  1  0  0  0  0
 38119  1  0  0  0  0
 39120  1  0  0  0  0
 40121  1  0  0  0  0
 42122  1  0  0  0  0
 43123  1  0  0  0  0
 46124  1  0  0  0  0
 46125  1  0  0  0  0
 46126  1  0  0  0  0
 47127  1  0  0  0  0
 48128  1  0  0  0  0
 55129  1  0  0  0  0
 56130  1  0  0  0  0
 59131  1  0  0  0  0
 59132  1  0  0  0  0
 59133  1  0  0  0  0
 60134  1  0  0  0  0
 61135  1  0  0  0  0
 63136  1  0  0  0  0
 64137  1  0  0  0  0
 67138  1  0  0  0  0
 67139  1  0  0  0  0
 67140  1  0  0  0  0
 68141  1  0  0  0  0
 69142  1  0  0  0  0
 73143  1  0  0  0  0
 76144  1  0  0  0  0
 76145  1  0  0  0  0
 77146  1  0  0  0  0
 77147  1  0  0  0  0
 77148  1  0  0  0  0
 81149  1  0  0  0  0
 82150  1  0  0  0  0
 83151  1  0  0  0  0
 84152  1  0  0  0  0
 86153  1  0  0  0  0
 87154  1  0  0  0  0
 92155  1  0  0  0  0
 97156  1  0  0  0  0
M  END
