
  xtb     02062203063D
 energy: -340.298250384083 gnorm: 0.000500428614 xtb: 6.4.1 (unknown)
188206  0     0  0            999 V2000
    6.8551   -1.3724   -3.3129 C   0  0  0  0  0  0  0  0  0  0  0  0
    7.8615   -1.9840   -2.6222 C   0  0  0  0  0  0  0  0  0  0  0  0
    9.2528   -1.9424   -3.1563 C   0  0  0  0  0  0  0  0  0  0  0  0
    9.5989   -1.5768   -4.2561 O   0  0  0  0  0  0  0  0  0  0  0  0
   10.0663   -2.4069   -2.0320 C   0  0  0  0  0  0  0  0  0  0  0  0
   11.7365   -2.5924   -1.7050 S   0  0  0  0  0  0  0  0  0  0  0  0
   11.3478   -3.1982   -0.1172 C   0  0  0  0  0  0  0  0  0  0  0  0
   12.5934   -3.6499    0.9523 Cl  0  0  0  0  0  0  0  0  0  0  0  0
   10.0047   -3.2628    0.1386 C   0  0  0  0  0  0  0  0  0  0  0  0
    9.2690   -2.7995   -0.9654 C   0  0  0  0  0  0  0  0  0  0  0  0
    7.8730   -2.6663   -1.3480 C   0  0  0  0  0  0  0  0  0  0  0  0
    6.8398   -3.3233   -0.7252 C   0  0  0  0  0  0  0  0  0  0  0  0
    7.0167   -4.0170    0.4883 C   0  0  0  0  0  0  0  0  0  0  0  0
    7.1234   -4.5799    1.4830 N   0  0  0  0  0  0  0  0  0  0  0  0
    5.5460   -3.4758   -1.2552 C   0  0  0  0  0  0  0  0  0  0  0  0
    4.4957   -3.6984   -1.6670 N   0  0  0  0  0  0  0  0  0  0  0  0
    5.6088   -0.9471   -2.8189 C   0  0  0  0  0  0  0  0  0  0  0  0
    4.4572   -0.6717   -3.5685 C   0  0  0  0  0  0  0  0  0  0  0  0
    4.3375   -0.8803   -4.9158 N   0  0  0  0  0  0  0  0  0  0  0  0
    4.9893   -1.9701   -5.5357 C   0  0  0  0  0  0  0  0  0  0  0  0
    5.6433   -1.7991   -6.7538 C   0  0  0  0  0  0  0  0  0  0  0  0
    6.2585   -2.8710   -7.3604 C   0  0  0  0  0  0  0  0  0  0  0  0
    6.2326   -4.1316   -6.7647 C   0  0  0  0  0  0  0  0  0  0  0  0
    7.0458   -5.4253   -7.6413 S   0  0  0  0  0  0  0  0  0  0  0  0
    6.8150   -6.8849   -6.5874 C   0  0  0  0  0  0  0  0  0  0  0  0
    5.5785   -4.3005   -5.5510 C   0  0  0  0  0  0  0  0  0  0  0  0
    4.9571   -3.2272   -4.9445 C   0  0  0  0  0  0  0  0  0  0  0  0
    3.4750   -0.0801   -5.6745 C   0  0  0  0  0  0  0  0  0  0  0  0
    3.2955    1.2683   -5.3567 C   0  0  0  0  0  0  0  0  0  0  0  0
    2.4555    2.0544   -6.1110 C   0  0  0  0  0  0  0  0  0  0  0  0
    1.7864    1.5242   -7.2134 C   0  0  0  0  0  0  0  0  0  0  0  0
    0.7409    2.6305   -8.1019 S   0  0  0  0  0  0  0  0  0  0  0  0
    0.2057    1.6681   -9.5456 C   0  0  0  0  0  0  0  0  0  0  0  0
    1.9790    0.1890   -7.5455 C   0  0  0  0  0  0  0  0  0  0  0  0
    2.8127   -0.6037   -6.7818 C   0  0  0  0  0  0  0  0  0  0  0  0
    3.4067   -0.2293   -2.7297 C   0  0  0  0  0  0  0  0  0  0  0  0
    1.7179    0.0482   -2.9691 S   0  0  0  0  0  0  0  0  0  0  0  0
    1.4768    0.1989   -1.2407 C   0  0  0  0  0  0  0  0  0  0  0  0
    2.6568    0.1175   -0.5372 C   0  0  0  0  0  0  0  0  0  0  0  0
    2.7479    0.2463    0.8576 N   0  0  0  0  0  0  0  0  0  0  0  0
    3.3789    1.3804    1.3704 C   0  0  0  0  0  0  0  0  0  0  0  0
    4.1342    1.3227    2.5405 C   0  0  0  0  0  0  0  0  0  0  0  0
    4.7485    2.4528    3.0421 C   0  0  0  0  0  0  0  0  0  0  0  0
    4.6379    3.6636    2.3716 C   0  0  0  0  0  0  0  0  0  0  0  0
    5.3736    5.1739    2.9310 S   0  0  0  0  0  0  0  0  0  0  0  0
    6.5782    4.6263    4.1752 C   0  0  0  0  0  0  0  0  0  0  0  0
    3.8962    3.7251    1.1949 C   0  0  0  0  0  0  0  0  0  0  0  0
    3.2761    2.6004    0.6987 C   0  0  0  0  0  0  0  0  0  0  0  0
    2.3786   -0.8371    1.6591 C   0  0  0  0  0  0  0  0  0  0  0  0
    1.8481   -0.6298    2.9339 C   0  0  0  0  0  0  0  0  0  0  0  0
    1.5101   -1.7028    3.7270 C   0  0  0  0  0  0  0  0  0  0  0  0
    1.6666   -3.0078    3.2614 C   0  0  0  0  0  0  0  0  0  0  0  0
    1.2049   -4.3021    4.3665 S   0  0  0  0  0  0  0  0  0  0  0  0
    1.1694   -5.7758    3.3118 C   0  0  0  0  0  0  0  0  0  0  0  0
    2.1720   -3.2171    1.9865 C   0  0  0  0  0  0  0  0  0  0  0  0
    2.5278   -2.1412    1.1962 C   0  0  0  0  0  0  0  0  0  0  0  0
    3.7503   -0.1441   -1.3903 C   0  0  0  0  0  0  0  0  0  0  0  0
    5.3907   -0.5835   -1.1032 S   0  0  0  0  0  0  0  0  0  0  0  0
    0.1934    0.4561   -0.6261 C   0  0  0  0  0  0  0  0  0  0  0  0
   -0.7570   -0.4490   -0.1879 C   0  0  0  0  0  0  0  0  0  0  0  0
   -0.6963   -1.8096   -0.4190 N   0  0  0  0  0  0  0  0  0  0  0  0
   -1.1429   -2.7342    0.5275 C   0  0  0  0  0  0  0  0  0  0  0  0
   -1.6081   -3.9820    0.1191 C   0  0  0  0  0  0  0  0  0  0  0  0
   -2.0570   -4.9076    1.0410 C   0  0  0  0  0  0  0  0  0  0  0  0
   -2.0706   -4.5942    2.3932 C   0  0  0  0  0  0  0  0  0  0  0  0
   -2.6189   -5.6916    3.6645 S   0  0  0  0  0  0  0  0  0  0  0  0
   -3.2821   -7.1166    2.7542 C   0  0  0  0  0  0  0  0  0  0  0  0
   -1.6055   -3.3485    2.8069 C   0  0  0  0  0  0  0  0  0  0  0  0
   -1.1340   -2.4361    1.8903 C   0  0  0  0  0  0  0  0  0  0  0  0
   -0.2078   -2.2597   -1.6632 C   0  0  0  0  0  0  0  0  0  0  0  0
   -0.7660   -1.7809   -2.8431 C   0  0  0  0  0  0  0  0  0  0  0  0
   -0.2827   -2.1976   -4.0694 C   0  0  0  0  0  0  0  0  0  0  0  0
    0.7731   -3.0969   -4.1272 C   0  0  0  0  0  0  0  0  0  0  0  0
    1.4922   -3.6708   -5.6339 S   0  0  0  0  0  0  0  0  0  0  0  0
    0.2909   -3.1604   -6.8970 C   0  0  0  0  0  0  0  0  0  0  0  0
    1.3253   -3.5897   -2.9460 C   0  0  0  0  0  0  0  0  0  0  0  0
    0.8319   -3.1849   -1.7262 C   0  0  0  0  0  0  0  0  0  0  0  0
   -1.7772    0.2103    0.5475 C   0  0  0  0  0  0  0  0  0  0  0  0
   -3.2172   -0.2782    1.3723 S   0  0  0  0  0  0  0  0  0  0  0  0
   -3.4740    1.3555    1.9556 C   0  0  0  0  0  0  0  0  0  0  0  0
   -2.5249    2.2437    1.4654 C   0  0  0  0  0  0  0  0  0  0  0  0
   -2.4773    3.6403    1.6499 N   0  0  0  0  0  0  0  0  0  0  0  0
   -3.2043    4.4114    0.7318 C   0  0  0  0  0  0  0  0  0  0  0  0
   -2.6323    5.5280    0.1143 C   0  0  0  0  0  0  0  0  0  0  0  0
   -3.3622    6.2818   -0.7756 C   0  0  0  0  0  0  0  0  0  0  0  0
   -4.6792    5.9398   -1.0848 C   0  0  0  0  0  0  0  0  0  0  0  0
   -5.5219    6.9887   -2.2237 S   0  0  0  0  0  0  0  0  0  0  0  0
   -7.1836    6.2679   -2.3301 C   0  0  0  0  0  0  0  0  0  0  0  0
   -5.2403    4.8108   -0.5044 C   0  0  0  0  0  0  0  0  0  0  0  0
   -4.5053    4.0530    0.3849 C   0  0  0  0  0  0  0  0  0  0  0  0
   -1.5392    4.1837    2.5142 C   0  0  0  0  0  0  0  0  0  0  0  0
   -1.6474    5.5146    2.9372 C   0  0  0  0  0  0  0  0  0  0  0  0
   -0.7157    6.0581    3.7875 C   0  0  0  0  0  0  0  0  0  0  0  0
    0.3568    5.2960    4.2522 C   0  0  0  0  0  0  0  0  0  0  0  0
    1.4962    6.1103    5.3221 S   0  0  0  0  0  0  0  0  0  0  0  0
    2.8082    4.8842    5.5741 C   0  0  0  0  0  0  0  0  0  0  0  0
    0.4493    3.9646    3.8741 C   0  0  0  0  0  0  0  0  0  0  0  0
   -0.4921    3.4156    3.0264 C   0  0  0  0  0  0  0  0  0  0  0  0
   -1.5856    1.5804    0.6559 C   0  0  0  0  0  0  0  0  0  0  0  0
   -0.1738    2.1140   -0.1800 S   0  0  0  0  0  0  0  0  0  0  0  0
   -4.6316    1.6192    2.7470 C   0  0  0  0  0  0  0  0  0  0  0  0
   -5.7434    0.7529    2.7077 C   0  0  0  0  0  0  0  0  0  0  0  0
   -7.0242    1.0818    3.2957 C   0  0  0  0  0  0  0  0  0  0  0  0
   -7.9126    0.1055    3.0997 N   0  0  0  0  0  0  0  0  0  0  0  0
   -7.2228   -1.0863    2.2669 S   0  0  0  0  0  4  0  0  0  0  0  0
   -5.7652   -0.4342    2.1020 N   0  0  0  0  0  0  0  0  0  0  0  0
   -7.2403    2.2837    4.0051 C   0  0  0  0  0  0  0  0  0  0  0  0
   -6.0761    3.0635    4.1930 C   0  0  0  0  0  0  0  0  0  0  0  0
   -6.0084    4.1863    4.9065 N   0  0  0  0  0  0  0  0  0  0  0  0
   -4.5099    4.7661    4.8375 S   0  0  0  0  0  0  0  0  0  0  0  0
   -3.8695    3.6426    3.8909 N   0  0  0  0  0  0  0  0  0  0  0  0
   -4.8055    2.7487    3.5711 C   0  0  0  0  0  0  0  0  0  0  0  0
   -8.4687    2.6887    4.5822 C   0  0  0  0  0  0  0  0  0  0  0  0
   -9.7404    2.3265    4.2492 C   0  0  0  0  0  0  0  0  0  0  0  0
  -10.8393    2.5230    5.2445 C   0  0  0  0  0  0  0  0  0  0  0  0
  -10.7863    3.1488    6.2769 O   0  0  0  0  0  0  0  0  0  0  0  0
  -11.9504    1.7512    4.6860 C   0  0  0  0  0  0  0  0  0  0  0  0
  -13.5358    1.3301    5.1769 S   0  0  0  0  0  0  0  0  0  0  0  0
  -13.7499    0.4470    3.6892 C   0  0  0  0  0  0  0  0  0  0  0  0
  -15.2184   -0.3571    3.3775 Cl  0  0  0  0  0  0  0  0  0  0  0  0
  -12.6620    0.4850    2.8597 C   0  0  0  0  0  0  0  0  0  0  0  0
  -11.6236    1.2331    3.4408 C   0  0  0  0  0  0  0  0  0  0  0  0
  -10.2860    1.6739    3.0836 C   0  0  0  0  0  0  0  0  0  0  0  0
   -9.7783    1.6457    1.8087 C   0  0  0  0  0  0  0  0  0  0  0  0
   -8.6161    2.3130    1.3849 C   0  0  0  0  0  0  0  0  0  0  0  0
   -7.7018    2.8623    0.9565 N   0  0  0  0  0  0  0  0  0  0  0  0
  -10.4394    0.9825    0.7564 C   0  0  0  0  0  0  0  0  0  0  0  0
  -10.9405    0.4295   -0.1162 N   0  0  0  0  0  0  0  0  0  0  0  0
    7.0851   -1.1197   -4.3426 H   0  0  0  0  0  0  0  0  0  0  0  0
    9.5902   -3.6127    1.0655 H   0  0  0  0  0  0  0  0  0  0  0  0
    5.6693   -0.8233   -7.2157 H   0  0  0  0  0  0  0  0  0  0  0  0
    6.7722   -2.7458   -8.3008 H   0  0  0  0  0  0  0  0  0  0  0  0
    7.2833   -6.7232   -5.6210 H   0  0  0  0  0  0  0  0  0  0  0  0
    5.7566   -7.1050   -6.4834 H   0  0  0  0  0  0  0  0  0  0  0  0
    7.3117   -7.6993   -7.1055 H   0  0  0  0  0  0  0  0  0  0  0  0
    5.5306   -5.2632   -5.0695 H   0  0  0  0  0  0  0  0  0  0  0  0
    4.4429   -3.3663   -4.0059 H   0  0  0  0  0  0  0  0  0  0  0  0
    3.8335    1.7029   -4.5278 H   0  0  0  0  0  0  0  0  0  0  0  0
    2.3179    3.0959   -5.8654 H   0  0  0  0  0  0  0  0  0  0  0  0
   -0.4137    0.8322   -9.2331 H   0  0  0  0  0  0  0  0  0  0  0  0
    1.0715    1.3317  -10.1084 H   0  0  0  0  0  0  0  0  0  0  0  0
   -0.3821    2.3529  -10.1488 H   0  0  0  0  0  0  0  0  0  0  0  0
    1.4862   -0.2473   -8.3998 H   0  0  0  0  0  0  0  0  0  0  0  0
    2.9516   -1.6416   -7.0420 H   0  0  0  0  0  0  0  0  0  0  0  0
    4.2490    0.3826    3.0587 H   0  0  0  0  0  0  0  0  0  0  0  0
    5.3197    2.3709    3.9532 H   0  0  0  0  0  0  0  0  0  0  0  0
    7.2232    3.8645    3.7477 H   0  0  0  0  0  0  0  0  0  0  0  0
    6.0703    4.2598    5.0630 H   0  0  0  0  0  0  0  0  0  0  0  0
    7.1603    5.5078    4.4249 H   0  0  0  0  0  0  0  0  0  0  0  0
    3.8092    4.6676    0.6770 H   0  0  0  0  0  0  0  0  0  0  0  0
    2.7013    2.6651   -0.2128 H   0  0  0  0  0  0  0  0  0  0  0  0
    1.7046    0.3786    3.2934 H   0  0  0  0  0  0  0  0  0  0  0  0
    1.1067   -1.5452    4.7156 H   0  0  0  0  0  0  0  0  0  0  0  0
    0.7194   -6.5553    3.9187 H   0  0  0  0  0  0  0  0  0  0  0  0
    0.5510   -5.5802    2.4402 H   0  0  0  0  0  0  0  0  0  0  0  0
    2.1783   -6.0626    3.0289 H   0  0  0  0  0  0  0  0  0  0  0  0
    2.3185   -4.2141    1.6029 H   0  0  0  0  0  0  0  0  0  0  0  0
    2.9503   -2.3175    0.2179 H   0  0  0  0  0  0  0  0  0  0  0  0
   -1.6208   -4.2322   -0.9313 H   0  0  0  0  0  0  0  0  0  0  0  0
   -2.4021   -5.8654    0.6860 H   0  0  0  0  0  0  0  0  0  0  0  0
   -4.0749   -6.7924    2.0865 H   0  0  0  0  0  0  0  0  0  0  0  0
   -2.4877   -7.6193    2.2098 H   0  0  0  0  0  0  0  0  0  0  0  0
   -3.6859   -7.7827    3.5102 H   0  0  0  0  0  0  0  0  0  0  0  0
   -1.6020   -3.1123    3.8593 H   0  0  0  0  0  0  0  0  0  0  0  0
   -0.7387   -1.4937    2.2330 H   0  0  0  0  0  0  0  0  0  0  0  0
   -1.5782   -1.0703   -2.7983 H   0  0  0  0  0  0  0  0  0  0  0  0
   -0.7310   -1.8031   -4.9664 H   0  0  0  0  0  0  0  0  0  0  0  0
    0.2713   -2.0774   -6.9775 H   0  0  0  0  0  0  0  0  0  0  0  0
    0.6411   -3.5950   -7.8283 H   0  0  0  0  0  0  0  0  0  0  0  0
   -0.6893   -3.5569   -6.6496 H   0  0  0  0  0  0  0  0  0  0  0  0
    2.1482   -4.2852   -2.9935 H   0  0  0  0  0  0  0  0  0  0  0  0
    1.2502   -3.5765   -0.8130 H   0  0  0  0  0  0  0  0  0  0  0  0
   -1.6081    5.7922    0.3300 H   0  0  0  0  0  0  0  0  0  0  0  0
   -2.9186    7.1440   -1.2498 H   0  0  0  0  0  0  0  0  0  0  0  0
   -7.7416    6.9154   -2.9995 H   0  0  0  0  0  0  0  0  0  0  0  0
   -7.6478    6.2612   -1.3484 H   0  0  0  0  0  0  0  0  0  0  0  0
   -7.1286    5.2661   -2.7458 H   0  0  0  0  0  0  0  0  0  0  0  0
   -6.2500    4.5025   -0.7173 H   0  0  0  0  0  0  0  0  0  0  0  0
   -4.9728    3.1858    0.8207 H   0  0  0  0  0  0  0  0  0  0  0  0
   -2.4792    6.1149    2.6035 H   0  0  0  0  0  0  0  0  0  0  0  0
   -0.8059    7.0847    4.1085 H   0  0  0  0  0  0  0  0  0  0  0  0
    2.4268    4.0350    6.1342 H   0  0  0  0  0  0  0  0  0  0  0  0
    3.5743    5.3937    6.1505 H   0  0  0  0  0  0  0  0  0  0  0  0
    3.2061    4.5797    4.6111 H   0  0  0  0  0  0  0  0  0  0  0  0
    1.2527    3.3387    4.2285 H   0  0  0  0  0  0  0  0  0  0  0  0
   -0.4009    2.3735    2.7643 H   0  0  0  0  0  0  0  0  0  0  0  0
   -8.3770    3.3477    5.4396 H   0  0  0  0  0  0  0  0  0  0  0  0
  -12.6234   -0.0042    1.9044 H   0  0  0  0  0  0  0  0  0  0  0  0
  1  2  2  0  0  0  0
  2  3  1  0  0  0  0
  3  4  2  0  0  0  0
  3  5  1  0  0  0  0
  5  6  1  0  0  0  0
  6  7  1  0  0  0  0
  7  8  1  0  0  0  0
  7  9  2  0  0  0  0
  9 10  1  0  0  0  0
 10 11  1  0  0  0  0
 11 12  2  0  0  0  0
 12 13  1  0  0  0  0
 13 14  3  0  0  0  0
 12 15  1  0  0  0  0
 15 16  3  0  0  0  0
  1 17  1  0  0  0  0
 17 18  2  0  0  0  0
 18 19  1  0  0  0  0
 19 20  1  0  0  0  0
 20 21  2  0  0  0  0
 21 22  1  0  0  0  0
 22 23  2  0  0  0  0
 23 24  1  0  0  0  0
 24 25  1  0  0  0  0
 23 26  1  0  0  0  0
 26 27  2  0  0  0  0
 19 28  1  0  0  0  0
 28 29  2  0  0  0  0
 29 30  1  0  0  0  0
 30 31  2  0  0  0  0
 31 32  1  0  0  0  0
 32 33  1  0  0  0  0
 31 34  1  0  0  0  0
 34 35  2  0  0  0  0
 18 36  1  0  0  0  0
 36 37  1  0  0  0  0
 37 38  1  0  0  0  0
 38 39  2  0  0  0  0
 39 40  1  0  0  0  0
 40 41  1  0  0  0  0
 41 42  2  0  0  0  0
 42 43  1  0  0  0  0
 43 44  2  0  0  0  0
 44 45  1  0  0  0  0
 45 46  1  0  0  0  0
 44 47  1  0  0  0  0
 47 48  2  0  0  0  0
 40 49  1  0  0  0  0
 49 50  2  0  0  0  0
 50 51  1  0  0  0  0
 51 52  2  0  0  0  0
 52 53  1  0  0  0  0
 53 54  1  0  0  0  0
 52 55  1  0  0  0  0
 55 56  2  0  0  0  0
 39 57  1  0  0  0  0
 57 58  1  0  0  0  0
 38 59  1  0  0  0  0
 59 60  2  0  0  0  0
 60 61  1  0  0  0  0
 61 62  1  0  0  0  0
 62 63  2  0  0  0  0
 63 64  1  0  0  0  0
 64 65  2  0  0  0  0
 65 66  1  0  0  0  0
 66 67  1  0  0  0  0
 65 68  1  0  0  0  0
 68 69  2  0  0  0  0
 61 70  1  0  0  0  0
 70 71  2  0  0  0  0
 71 72  1  0  0  0  0
 72 73  2  0  0  0  0
 73 74  1  0  0  0  0
 74 75  1  0  0  0  0
 73 76  1  0  0  0  0
 76 77  2  0  0  0  0
 60 78  1  0  0  0  0
 78 79  1  0  0  0  0
 79 80  1  0  0  0  0
 80 81  2  0  0  0  0
 81 82  1  0  0  0  0
 82 83  1  0  0  0  0
 83 84  2  0  0  0  0
 84 85  1  0  0  0  0
 85 86  2  0  0  0  0
 86 87  1  0  0  0  0
 87 88  1  0  0  0  0
 86 89  1  0  0  0  0
 89 90  2  0  0  0  0
 82 91  1  0  0  0  0
 91 92  2  0  0  0  0
 92 93  1  0  0  0  0
 93 94  2  0  0  0  0
 94 95  1  0  0  0  0
 95 96  1  0  0  0  0
 94 97  1  0  0  0  0
 97 98  2  0  0  0  0
 81 99  1  0  0  0  0
 99100  1  0  0  0  0
 80101  1  0  0  0  0
101102  2  0  0  0  0
102103  1  0  0  0  0
103104  1  0  0  0  0
104105  2  0  0  0  0
105106  2  0  0  0  0
103107  2  0  0  0  0
107108  1  0  0  0  0
108109  2  0  0  0  0
109110  1  0  0  0  0
110111  1  0  0  0  0
111112  2  0  0  0  0
107113  1  0  0  0  0
113114  2  0  0  0  0
114115  1  0  0  0  0
115116  2  0  0  0  0
115117  1  0  0  0  0
117118  1  0  0  0  0
118119  1  0  0  0  0
119120  1  0  0  0  0
119121  2  0  0  0  0
121122  1  0  0  0  0
122123  1  0  0  0  0
123124  2  0  0  0  0
124125  1  0  0  0  0
125126  3  0  0  0  0
124127  1  0  0  0  0
127128  3  0  0  0  0
 11  2  1  0  0  0  0
 58 17  1  0  0  0  0
100 59  1  0  0  0  0
112101  1  0  0  0  0
123114  1  0  0  0  0
 10  5  2  0  0  0  0
 27 20  1  0  0  0  0
 35 28  1  0  0  0  0
 57 36  2  0  0  0  0
 69 62  1  0  0  0  0
 77 70  1  0  0  0  0
 99 78  2  0  0  0  0
106102  1  0  0  0  0
112108  1  0  0  0  0
122117  2  0  0  0  0
 48 41  1  0  0  0  0
 56 49  1  0  0  0  0
 90 83  1  0  0  0  0
 98 91  1  0  0  0  0
  1129  1  0  0  0  0
  9130  1  0  0  0  0
 21131  1  0  0  0  0
 22132  1  0  0  0  0
 25133  1  0  0  0  0
 25134  1  0  0  0  0
 25135  1  0  0  0  0
 26136  1  0  0  0  0
 27137  1  0  0  0  0
 29138  1  0  0  0  0
 30139  1  0  0  0  0
 33140  1  0  0  0  0
 33141  1  0  0  0  0
 33142  1  0  0  0  0
 34143  1  0  0  0  0
 35144  1  0  0  0  0
 42145  1  0  0  0  0
 43146  1  0  0  0  0
 46147  1  0  0  0  0
 46148  1  0  0  0  0
 46149  1  0  0  0  0
 47150  1  0  0  0  0
 48151  1  0  0  0  0
 50152  1  0  0  0  0
 51153  1  0  0  0  0
 54154  1  0  0  0  0
 54155  1  0  0  0  0
 54156  1  0  0  0  0
 55157  1  0  0  0  0
 56158  1  0  0  0  0
 63159  1  0  0  0  0
 64160  1  0  0  0  0
 67161  1  0  0  0  0
 67162  1  0  0  0  0
 67163  1  0  0  0  0
 68164  1  0  0  0  0
 69165  1  0  0  0  0
 71166  1  0  0  0  0
 72167  1  0  0  0  0
 75168  1  0  0  0  0
 75169  1  0  0  0  0
 75170  1  0  0  0  0
 76171  1  0  0  0  0
 77172  1  0  0  0  0
 84173  1  0  0  0  0
 85174  1  0  0  0  0
 88175  1  0  0  0  0
 88176  1  0  0  0  0
 88177  1  0  0  0  0
 89178  1  0  0  0  0
 90179  1  0  0  0  0
 92180  1  0  0  0  0
 93181  1  0  0  0  0
 96182  1  0  0  0  0
 96183  1  0  0  0  0
 96184  1  0  0  0  0
 97185  1  0  0  0  0
 98186  1  0  0  0  0
113187  1  0  0  0  0
121188  1  0  0  0  0
M  END
