
  xtb     02162200283D
 energy: -347.826181717064 gnorm: 0.000616309906 xtb: 6.4.1 (unknown)
202220  0     0  0            999 V2000
   -5.8865   -4.3838   10.5748 C   0  0  0  0  0  0  0  0  0  0  0  0
   -6.0448   -5.7362   10.6770 C   0  0  0  0  0  0  0  0  0  0  0  0
   -5.7214   -6.8317    9.7161 C   0  0  0  0  0  0  0  0  0  0  0  0
   -5.1701   -6.7768    8.6351 O   0  0  0  0  0  0  0  0  0  0  0  0
   -6.1949   -8.0429   10.3751 C   0  0  0  0  0  0  0  0  0  0  0  0
   -6.2427   -9.7070    9.9763 S   0  0  0  0  0  0  0  0  0  0  0  0
   -6.9880  -10.0382   11.5167 C   0  0  0  0  0  0  0  0  0  0  0  0
   -7.4040  -11.6351   11.9362 Cl  0  0  0  0  0  0  0  0  0  0  0  0
   -7.1827   -8.9267   12.2907 C   0  0  0  0  0  0  0  0  0  0  0  0
   -6.7227   -7.7741   11.6275 C   0  0  0  0  0  0  0  0  0  0  0  0
   -6.6296   -6.3485   11.8729 C   0  0  0  0  0  0  0  0  0  0  0  0
   -7.0277   -5.7571   13.0422 C   0  0  0  0  0  0  0  0  0  0  0  0
   -7.5752   -6.5145   14.1016 C   0  0  0  0  0  0  0  0  0  0  0  0
   -8.0259   -7.0998   14.9793 N   0  0  0  0  0  0  0  0  0  0  0  0
   -6.9568   -4.3907   13.3847 C   0  0  0  0  0  0  0  0  0  0  0  0
   -6.9419   -3.3062   13.7636 N   0  0  0  0  0  0  0  0  0  0  0  0
   -5.4114   -3.4969    9.5574 C   0  0  0  0  0  0  0  0  0  0  0  0
   -5.0031   -3.9028    8.2819 C   0  0  0  0  0  0  0  0  0  0  0  0
   -4.5787   -2.9430    7.3869 C   0  0  0  0  0  0  0  0  0  0  0  0
   -4.1018   -3.1056    6.1079 N   0  0  0  0  0  0  0  0  0  0  0  0
   -4.0005   -4.3466    5.3838 C   0  0  0  0  0  0  0  0  0  0  0  0
   -5.1790   -4.5450    4.4331 C   0  0  0  0  0  0  0  0  0  0  0  0
   -3.7951   -1.8691    5.6024 C   0  0  0  0  0  0  0  0  0  0  0  0
   -4.0677   -0.8729    6.5759 C   0  0  0  0  0  0  0  0  0  0  0  0
   -4.5605   -1.5614    7.7234 C   0  0  0  0  0  0  0  0  0  0  0  0
   -4.9641   -1.1621    8.9968 C   0  0  0  0  0  0  0  0  0  0  0  0
   -5.3798   -2.1177    9.8893 C   0  0  0  0  0  0  0  0  0  0  0  0
   -3.8344    0.4674    6.2781 C   0  0  0  0  0  0  0  0  0  0  0  0
   -3.2879    0.7919    5.0599 C   0  0  0  0  0  0  0  0  0  0  0  0
   -2.9486   -0.2032    4.1253 C   0  0  0  0  0  0  0  0  0  0  0  0
   -3.2436   -1.5378    4.3779 C   0  0  0  0  0  0  0  0  0  0  0  0
   -2.2430    0.1282    2.9017 C   0  0  0  0  0  0  0  0  0  0  0  0
   -1.1365    0.9388    2.7308 C   0  0  0  0  0  0  0  0  0  0  0  0
   -0.4636    1.6128    3.7404 N   0  0  0  0  0  0  0  0  0  0  0  0
   -0.4328    1.0744    5.0347 C   0  0  0  0  0  0  0  0  0  0  0  0
   -0.6012    1.8943    6.1514 C   0  0  0  0  0  0  0  0  0  0  0  0
   -0.7296    1.3412    7.4050 C   0  0  0  0  0  0  0  0  0  0  0  0
   -0.6962   -0.0409    7.5771 C   0  0  0  0  0  0  0  0  0  0  0  0
   -1.0027   -0.6431    9.2081 S   0  0  0  0  0  0  0  0  0  0  0  0
   -1.2080   -2.4308    8.9787 C   0  0  0  0  0  0  0  0  0  0  0  0
   -0.4389   -0.8544    6.4827 C   0  0  0  0  0  0  0  0  0  0  0  0
   -0.3015   -0.2984    5.2266 C   0  0  0  0  0  0  0  0  0  0  0  0
    0.1121    2.8601    3.4740 C   0  0  0  0  0  0  0  0  0  0  0  0
   -0.4908    3.7537    2.5882 C   0  0  0  0  0  0  0  0  0  0  0  0
    0.0720    4.9904    2.3573 C   0  0  0  0  0  0  0  0  0  0  0  0
    1.2404    5.3631    3.0124 C   0  0  0  0  0  0  0  0  0  0  0  0
    1.8559    6.9919    2.7151 S   0  0  0  0  0  0  0  0  0  0  0  0
    2.8509    7.3150    4.2025 C   0  0  0  0  0  0  0  0  0  0  0  0
    1.8640    4.4666    3.8696 C   0  0  0  0  0  0  0  0  0  0  0  0
    1.3026    3.2274    4.0974 C   0  0  0  0  0  0  0  0  0  0  0  0
   -0.7043    0.9207    1.3782 C   0  0  0  0  0  0  0  0  0  0  0  0
    0.5378    1.7204    0.4867 S   0  0  0  0  0  0  0  0  0  0  0  0
    0.0530    0.8979   -1.0052 C   0  0  0  0  0  0  0  0  0  0  0  0
   -1.0233    0.0469   -0.7998 C   0  0  0  0  0  0  0  0  0  0  0  0
   -1.6869   -0.7519   -1.7266 N   0  0  0  0  0  0  0  0  0  0  0  0
   -2.1356   -0.2479   -2.9498 C   0  0  0  0  0  0  0  0  0  0  0  0
   -2.4540   -1.1159   -3.9930 C   0  0  0  0  0  0  0  0  0  0  0  0
   -2.9493   -0.6424   -5.1908 C   0  0  0  0  0  0  0  0  0  0  0  0
   -3.1225    0.7219   -5.3823 C   0  0  0  0  0  0  0  0  0  0  0  0
   -3.7062    1.4460   -6.8820 S   0  0  0  0  0  0  0  0  0  0  0  0
   -3.8963    0.0347   -8.0064 C   0  0  0  0  0  0  0  0  0  0  0  0
   -2.7940    1.5975   -4.3487 C   0  0  0  0  0  0  0  0  0  0  0  0
   -2.3111    1.1226   -3.1487 C   0  0  0  0  0  0  0  0  0  0  0  0
   -2.1539   -1.9828   -1.2325 C   0  0  0  0  0  0  0  0  0  0  0  0
   -1.3411   -2.7082   -0.3635 C   0  0  0  0  0  0  0  0  0  0  0  0
   -1.7679   -3.8928    0.1991 C   0  0  0  0  0  0  0  0  0  0  0  0
   -3.0315   -4.3817   -0.0974 C   0  0  0  0  0  0  0  0  0  0  0  0
   -3.6850   -5.8807    0.5738 S   0  0  0  0  0  0  0  0  0  0  0  0
   -2.5117   -6.2983    1.8977 C   0  0  0  0  0  0  0  0  0  0  0  0
   -3.8510   -3.6660   -0.9674 C   0  0  0  0  0  0  0  0  0  0  0  0
   -3.4243   -2.4799   -1.5240 C   0  0  0  0  0  0  0  0  0  0  0  0
   -1.4339    0.0799    0.5591 C   0  0  0  0  0  0  0  0  0  0  0  0
   -2.7007   -0.7068    1.4304 S   0  0  0  0  0  0  0  0  0  0  0  0
    0.7680    1.3223   -2.1665 C   0  0  0  0  0  0  0  0  0  0  0  0
    1.1212    0.7021   -3.3580 C   0  0  0  0  0  0  0  0  0  0  0  0
    0.8678   -0.6082   -3.7424 N   0  0  0  0  0  0  0  0  0  0  0  0
    0.7926   -0.8254   -5.1350 C   0  0  0  0  0  0  0  0  0  0  0  0
   -0.0000    0.0186   -5.9103 C   0  0  0  0  0  0  0  0  0  0  0  0
   -0.0162   -0.1016   -7.2828 C   0  0  0  0  0  0  0  0  0  0  0  0
    0.7709   -1.0608   -7.9065 C   0  0  0  0  0  0  0  0  0  0  0  0
    0.7766   -1.1242   -9.6739 S   0  0  0  0  0  0  0  0  0  0  0  0
    2.5281   -1.4886  -10.0001 C   0  0  0  0  0  0  0  0  0  0  0  0
    1.5398   -1.9249   -7.1383 C   0  0  0  0  0  0  0  0  0  0  0  0
    1.5548   -1.8057   -5.7643 C   0  0  0  0  0  0  0  0  0  0  0  0
    1.0465   -1.6941   -2.8848 C   0  0  0  0  0  0  0  0  0  0  0  0
    1.8397   -1.6158   -1.7388 C   0  0  0  0  0  0  0  0  0  0  0  0
    2.0171   -2.7233   -0.9367 C   0  0  0  0  0  0  0  0  0  0  0  0
    1.4098   -3.9364   -1.2524 C   0  0  0  0  0  0  0  0  0  0  0  0
    1.6505   -5.2708   -0.1185 S   0  0  0  0  0  0  0  0  0  0  0  0
    0.7556   -6.6554   -0.8796 C   0  0  0  0  0  0  0  0  0  0  0  0
    0.6276   -4.0241   -2.3952 C   0  0  0  0  0  0  0  0  0  0  0  0
    0.4508   -2.9159   -3.1966 C   0  0  0  0  0  0  0  0  0  0  0  0
    1.8584    1.5848   -4.1906 C   0  0  0  0  0  0  0  0  0  0  0  0
    2.5654    1.4302   -5.7560 S   0  0  0  0  0  0  0  0  0  0  0  0
    3.1589    3.0954   -5.6933 C   0  0  0  0  0  0  0  0  0  0  0  0
    2.8223    3.7102   -4.4608 C   0  0  0  0  0  0  0  0  0  0  0  0
    3.1890    4.9668   -4.0323 N   0  0  0  0  0  0  0  0  0  0  0  0
    3.5618    5.1013   -2.6819 C   0  0  0  0  0  0  0  0  0  0  0  0
    3.1085    6.1680   -1.9092 C   0  0  0  0  0  0  0  0  0  0  0  0
    3.5256    6.3115   -0.6026 C   0  0  0  0  0  0  0  0  0  0  0  0
    4.4028    5.3885   -0.0482 C   0  0  0  0  0  0  0  0  0  0  0  0
    5.0259    5.5685    1.5970 S   0  0  0  0  0  0  0  0  0  0  0  0
    5.3229    7.3653    1.6511 C   0  0  0  0  0  0  0  0  0  0  0  0
    4.8214    4.2954   -0.7978 C   0  0  0  0  0  0  0  0  0  0  0  0
    4.4090    4.1546   -2.1051 C   0  0  0  0  0  0  0  0  0  0  0  0
    2.9781    6.1242   -4.7956 C   0  0  0  0  0  0  0  0  0  0  0  0
    3.8184    7.2259   -4.6324 C   0  0  0  0  0  0  0  0  0  0  0  0
    3.5659    8.3952   -5.3124 C   0  0  0  0  0  0  0  0  0  0  0  0
    2.4795    8.4854   -6.1784 C   0  0  0  0  0  0  0  0  0  0  0  0
    2.2211   10.0205   -7.0004 S   0  0  0  0  0  0  0  0  0  0  0  0
    1.4079    9.4966   -8.5382 C   0  0  0  0  0  0  0  0  0  0  0  0
    1.6462    7.3863   -6.3501 C   0  0  0  0  0  0  0  0  0  0  0  0
    1.8957    6.2146   -5.6674 C   0  0  0  0  0  0  0  0  0  0  0  0
    2.1068    2.8296   -3.6337 C   0  0  0  0  0  0  0  0  0  0  0  0
    1.4069    2.9676   -2.0587 S   0  0  0  0  0  0  0  0  0  0  0  0
    3.8973    3.6883   -6.7194 C   0  0  0  0  0  0  0  0  0  0  0  0
    4.4590    3.1227   -7.8481 C   0  0  0  0  0  0  0  0  0  0  0  0
    4.4495    1.6988   -8.2329 C   0  0  0  0  0  0  0  0  0  0  0  0
    3.7695    0.7887   -7.7901 O   0  0  0  0  0  0  0  0  0  0  0  0
    5.4311    1.5986   -9.3083 C   0  0  0  0  0  0  0  0  0  0  0  0
    6.0664    0.3435  -10.2855 S   0  0  0  0  0  0  0  0  0  0  0  0
    7.0626    1.5119  -11.1104 C   0  0  0  0  0  0  0  0  0  0  0  0
    8.1127    1.0105  -12.3538 Cl  0  0  0  0  0  0  0  0  0  0  0  0
    6.9020    2.7947  -10.6605 C   0  0  0  0  0  0  0  0  0  0  0  0
    5.9594    2.8392   -9.6185 C   0  0  0  0  0  0  0  0  0  0  0  0
    5.3017    3.8343   -8.7857 C   0  0  0  0  0  0  0  0  0  0  0  0
    5.4162    5.1860   -8.9968 C   0  0  0  0  0  0  0  0  0  0  0  0
    6.3392    5.7169   -9.9205 C   0  0  0  0  0  0  0  0  0  0  0  0
    7.0953    6.1770  -10.6514 N   0  0  0  0  0  0  0  0  0  0  0  0
    4.5700    6.1710   -8.4636 C   0  0  0  0  0  0  0  0  0  0  0  0
    3.8609    7.0232   -8.1624 N   0  0  0  0  0  0  0  0  0  0  0  0
   -6.2016   -3.8413   11.4590 H   0  0  0  0  0  0  0  0  0  0  0  0
   -7.6289   -8.9567   13.2667 H   0  0  0  0  0  0  0  0  0  0  0  0
   -5.0212   -4.9434    8.0145 H   0  0  0  0  0  0  0  0  0  0  0  0
   -3.9608   -5.1647    6.1060 H   0  0  0  0  0  0  0  0  0  0  0  0
   -3.0604   -4.3396    4.8222 H   0  0  0  0  0  0  0  0  0  0  0  0
   -5.0742   -5.4842    3.8973 H   0  0  0  0  0  0  0  0  0  0  0  0
   -5.2272   -3.7342    3.7097 H   0  0  0  0  0  0  0  0  0  0  0  0
   -6.1108   -4.5663    4.9927 H   0  0  0  0  0  0  0  0  0  0  0  0
   -4.9432   -0.1193    9.2720 H   0  0  0  0  0  0  0  0  0  0  0  0
   -5.6936   -1.8180   10.8782 H   0  0  0  0  0  0  0  0  0  0  0  0
   -4.0728    1.2350    6.9977 H   0  0  0  0  0  0  0  0  0  0  0  0
   -3.1109    1.8253    4.8054 H   0  0  0  0  0  0  0  0  0  0  0  0
   -3.0029   -2.2879    3.6397 H   0  0  0  0  0  0  0  0  0  0  0  0
   -0.6687    2.9643    6.0232 H   0  0  0  0  0  0  0  0  0  0  0  0
   -0.8916    1.9720    8.2654 H   0  0  0  0  0  0  0  0  0  0  0  0
   -0.2566   -2.8906    8.7267 H   0  0  0  0  0  0  0  0  0  0  0  0
   -1.9552   -2.6178    8.2138 H   0  0  0  0  0  0  0  0  0  0  0  0
   -1.5582   -2.8103    9.9336 H   0  0  0  0  0  0  0  0  0  0  0  0
   -0.3509   -1.9234    6.5925 H   0  0  0  0  0  0  0  0  0  0  0  0
   -0.1138   -0.9393    4.3779 H   0  0  0  0  0  0  0  0  0  0  0  0
   -1.4171    3.4860    2.1017 H   0  0  0  0  0  0  0  0  0  0  0  0
   -0.4004    5.6865    1.6814 H   0  0  0  0  0  0  0  0  0  0  0  0
    2.2737    7.0478    5.0823 H   0  0  0  0  0  0  0  0  0  0  0  0
    3.7826    6.7582    4.1601 H   0  0  0  0  0  0  0  0  0  0  0  0
    3.0561    8.3812    4.2030 H   0  0  0  0  0  0  0  0  0  0  0  0
    2.7932    4.7172    4.3548 H   0  0  0  0  0  0  0  0  0  0  0  0
    1.7882    2.5325    4.7662 H   0  0  0  0  0  0  0  0  0  0  0  0
   -2.3191   -2.1781   -3.8619 H   0  0  0  0  0  0  0  0  0  0  0  0
   -3.1857   -1.3494   -5.9689 H   0  0  0  0  0  0  0  0  0  0  0  0
   -2.9473   -0.4817   -8.1202 H   0  0  0  0  0  0  0  0  0  0  0  0
   -4.2001    0.4607   -8.9577 H   0  0  0  0  0  0  0  0  0  0  0  0
   -4.6706   -0.6326   -7.6388 H   0  0  0  0  0  0  0  0  0  0  0  0
   -2.9289    2.6582   -4.4968 H   0  0  0  0  0  0  0  0  0  0  0  0
   -2.0857    1.8172   -2.3540 H   0  0  0  0  0  0  0  0  0  0  0  0
   -0.3639   -2.3279   -0.1122 H   0  0  0  0  0  0  0  0  0  0  0  0
   -1.1015   -4.4161    0.8654 H   0  0  0  0  0  0  0  0  0  0  0  0
   -2.3984   -5.4493    2.5646 H   0  0  0  0  0  0  0  0  0  0  0  0
   -2.9552   -7.1332    2.4313 H   0  0  0  0  0  0  0  0  0  0  0  0
   -1.5550   -6.5983    1.4803 H   0  0  0  0  0  0  0  0  0  0  0  0
   -4.8388   -4.0422   -1.1859 H   0  0  0  0  0  0  0  0  0  0  0  0
   -4.0892   -1.9218   -2.1652 H   0  0  0  0  0  0  0  0  0  0  0  0
   -0.5644    0.8008   -5.4290 H   0  0  0  0  0  0  0  0  0  0  0  0
   -0.6080    0.5734   -7.8816 H   0  0  0  0  0  0  0  0  0  0  0  0
    2.7181   -2.5547   -9.9149 H   0  0  0  0  0  0  0  0  0  0  0  0
    2.7236   -1.1620  -11.0166 H   0  0  0  0  0  0  0  0  0  0  0  0
    3.1297   -0.9226   -9.2949 H   0  0  0  0  0  0  0  0  0  0  0  0
    2.1504   -2.6790   -7.6088 H   0  0  0  0  0  0  0  0  0  0  0  0
    2.1838   -2.4577   -5.1766 H   0  0  0  0  0  0  0  0  0  0  0  0
    2.3369   -0.6923   -1.4852 H   0  0  0  0  0  0  0  0  0  0  0  0
    2.6337   -2.6579   -0.0526 H   0  0  0  0  0  0  0  0  0  0  0  0
   -0.3007   -6.4156   -0.9685 H   0  0  0  0  0  0  0  0  0  0  0  0
    0.8919   -7.4974   -0.2074 H   0  0  0  0  0  0  0  0  0  0  0  0
    1.1876   -6.8876   -1.8485 H   0  0  0  0  0  0  0  0  0  0  0  0
    0.1426   -4.9454   -2.6732 H   0  0  0  0  0  0  0  0  0  0  0  0
   -0.1534   -2.9983   -4.0866 H   0  0  0  0  0  0  0  0  0  0  0  0
    2.4226    6.8843   -2.3354 H   0  0  0  0  0  0  0  0  0  0  0  0
    3.1510    7.1332   -0.0135 H   0  0  0  0  0  0  0  0  0  0  0  0
    4.3861    7.9020    1.7639 H   0  0  0  0  0  0  0  0  0  0  0  0
    5.8332    7.6639    0.7410 H   0  0  0  0  0  0  0  0  0  0  0  0
    5.9607    7.5434    2.5111 H   0  0  0  0  0  0  0  0  0  0  0  0
    5.4886    3.5724   -0.3543 H   0  0  0  0  0  0  0  0  0  0  0  0
    4.7580    3.3203   -2.6961 H   0  0  0  0  0  0  0  0  0  0  0  0
    4.6692    7.1538   -3.9711 H   0  0  0  0  0  0  0  0  0  0  0  0
    4.2153    9.2481   -5.1920 H   0  0  0  0  0  0  0  0  0  0  0  0
    0.3531    9.3016   -8.3662 H   0  0  0  0  0  0  0  0  0  0  0  0
    1.9213    8.6166   -8.9118 H   0  0  0  0  0  0  0  0  0  0  0  0
    1.5191   10.3222   -9.2340 H   0  0  0  0  0  0  0  0  0  0  0  0
    0.7937    7.4379   -7.0076 H   0  0  0  0  0  0  0  0  0  0  0  0
    1.2397    5.3652   -5.7925 H   0  0  0  0  0  0  0  0  0  0  0  0
    4.1035    4.7442   -6.5700 H   0  0  0  0  0  0  0  0  0  0  0  0
    7.4377    3.6347  -11.0612 H   0  0  0  0  0  0  0  0  0  0  0  0
  1  2  2  0  0  0  0
  2  3  1  0  0  0  0
  3  4  2  0  0  0  0
  3  5  1  0  0  0  0
  5  6  1  0  0  0  0
  6  7  1  0  0  0  0
  7  8  1  0  0  0  0
  7  9  2  0  0  0  0
  9 10  1  0  0  0  0
 10 11  1  0  0  0  0
 11 12  2  0  0  0  0
 12 13  1  0  0  0  0
 13 14  3  0  0  0  0
 12 15  1  0  0  0  0
 15 16  3  0  0  0  0
  1 17  1  0  0  0  0
 17 18  2  0  0  0  0
 18 19  1  0  0  0  0
 19 20  1  0  0  0  0
 20 21  1  0  0  0  0
 21 22  1  0  0  0  0
 20 23  1  0  0  0  0
 23 24  2  0  0  0  0
 24 25  1  0  0  0  0
 25 26  1  0  0  0  0
 26 27  2  0  0  0  0
 24 28  1  0  0  0  0
 28 29  2  0  0  0  0
 29 30  1  0  0  0  0
 30 31  2  0  0  0  0
 30 32  1  0  0  0  0
 32 33  2  0  0  0  0
 33 34  1  0  0  0  0
 34 35  1  0  0  0  0
 35 36  2  0  0  0  0
 36 37  1  0  0  0  0
 37 38  2  0  0  0  0
 38 39  1  0  0  0  0
 39 40  1  0  0  0  0
 38 41  1  0  0  0  0
 41 42  2  0  0  0  0
 34 43  1  0  0  0  0
 43 44  2  0  0  0  0
 44 45  1  0  0  0  0
 45 46  2  0  0  0  0
 46 47  1  0  0  0  0
 47 48  1  0  0  0  0
 46 49  1  0  0  0  0
 49 50  2  0  0  0  0
 33 51  1  0  0  0  0
 51 52  1  0  0  0  0
 52 53  1  0  0  0  0
 53 54  2  0  0  0  0
 54 55  1  0  0  0  0
 55 56  1  0  0  0  0
 56 57  2  0  0  0  0
 57 58  1  0  0  0  0
 58 59  2  0  0  0  0
 59 60  1  0  0  0  0
 60 61  1  0  0  0  0
 59 62  1  0  0  0  0
 62 63  2  0  0  0  0
 55 64  1  0  0  0  0
 64 65  2  0  0  0  0
 65 66  1  0  0  0  0
 66 67  2  0  0  0  0
 67 68  1  0  0  0  0
 68 69  1  0  0  0  0
 67 70  1  0  0  0  0
 70 71  2  0  0  0  0
 54 72  1  0  0  0  0
 72 73  1  0  0  0  0
 53 74  1  0  0  0  0
 74 75  2  0  0  0  0
 75 76  1  0  0  0  0
 76 77  1  0  0  0  0
 77 78  2  0  0  0  0
 78 79  1  0  0  0  0
 79 80  2  0  0  0  0
 80 81  1  0  0  0  0
 81 82  1  0  0  0  0
 80 83  1  0  0  0  0
 83 84  2  0  0  0  0
 76 85  1  0  0  0  0
 85 86  2  0  0  0  0
 86 87  1  0  0  0  0
 87 88  2  0  0  0  0
 88 89  1  0  0  0  0
 89 90  1  0  0  0  0
 88 91  1  0  0  0  0
 91 92  2  0  0  0  0
 75 93  1  0  0  0  0
 93 94  1  0  0  0  0
 94 95  1  0  0  0  0
 95 96  2  0  0  0  0
 96 97  1  0  0  0  0
 97 98  1  0  0  0  0
 98 99  2  0  0  0  0
 99100  1  0  0  0  0
100101  2  0  0  0  0
101102  1  0  0  0  0
102103  1  0  0  0  0
101104  1  0  0  0  0
104105  2  0  0  0  0
 97106  1  0  0  0  0
106107  2  0  0  0  0
107108  1  0  0  0  0
108109  2  0  0  0  0
109110  1  0  0  0  0
110111  1  0  0  0  0
109112  1  0  0  0  0
112113  2  0  0  0  0
 96114  1  0  0  0  0
114115  1  0  0  0  0
 95116  1  0  0  0  0
116117  2  0  0  0  0
117118  1  0  0  0  0
118119  2  0  0  0  0
118120  1  0  0  0  0
120121  1  0  0  0  0
121122  1  0  0  0  0
122123  1  0  0  0  0
122124  2  0  0  0  0
124125  1  0  0  0  0
125126  1  0  0  0  0
126127  2  0  0  0  0
127128  1  0  0  0  0
128129  3  0  0  0  0
127130  1  0  0  0  0
130131  3  0  0  0  0
 11  2  1  0  0  0  0
 27 17  1  0  0  0  0
 73 32  1  0  0  0  0
115 74  1  0  0  0  0
126117  1  0  0  0  0
 10  5  2  0  0  0  0
 25 19  2  0  0  0  0
 42 35  1  0  0  0  0
 50 43  1  0  0  0  0
 72 51  2  0  0  0  0
 84 77  1  0  0  0  0
 92 85  1  0  0  0  0
114 93  2  0  0  0  0
125120  2  0  0  0  0
 31 23  1  0  0  0  0
 63 56  1  0  0  0  0
 71 64  1  0  0  0  0
105 98  1  0  0  0  0
113106  1  0  0  0  0
  1132  1  0  0  0  0
  9133  1  0  0  0  0
 18134  1  0  0  0  0
 21135  1  0  0  0  0
 21136  1  0  0  0  0
 22137  1  0  0  0  0
 22138  1  0  0  0  0
 22139  1  0  0  0  0
 26140  1  0  0  0  0
 27141  1  0  0  0  0
 28142  1  0  0  0  0
 29143  1  0  0  0  0
 31144  1  0  0  0  0
 36145  1  0  0  0  0
 37146  1  0  0  0  0
 40147  1  0  0  0  0
 40148  1  0  0  0  0
 40149  1  0  0  0  0
 41150  1  0  0  0  0
 42151  1  0  0  0  0
 44152  1  0  0  0  0
 45153  1  0  0  0  0
 48154  1  0  0  0  0
 48155  1  0  0  0  0
 48156  1  0  0  0  0
 49157  1  0  0  0  0
 50158  1  0  0  0  0
 57159  1  0  0  0  0
 58160  1  0  0  0  0
 61161  1  0  0  0  0
 61162  1  0  0  0  0
 61163  1  0  0  0  0
 62164  1  0  0  0  0
 63165  1  0  0  0  0
 65166  1  0  0  0  0
 66167  1  0  0  0  0
 69168  1  0  0  0  0
 69169  1  0  0  0  0
 69170  1  0  0  0  0
 70171  1  0  0  0  0
 71172  1  0  0  0  0
 78173  1  0  0  0  0
 79174  1  0  0  0  0
 82175  1  0  0  0  0
 82176  1  0  0  0  0
 82177  1  0  0  0  0
 83178  1  0  0  0  0
 84179  1  0  0  0  0
 86180  1  0  0  0  0
 87181  1  0  0  0  0
 90182  1  0  0  0  0
 90183  1  0  0  0  0
 90184  1  0  0  0  0
 91185  1  0  0  0  0
 92186  1  0  0  0  0
 99187  1  0  0  0  0
100188  1  0  0  0  0
103189  1  0  0  0  0
103190  1  0  0  0  0
103191  1  0  0  0  0
104192  1  0  0  0  0
105193  1  0  0  0  0
107194  1  0  0  0  0
108195  1  0  0  0  0
111196  1  0  0  0  0
111197  1  0  0  0  0
111198  1  0  0  0  0
112199  1  0  0  0  0
113200  1  0  0  0  0
116201  1  0  0  0  0
124202  1  0  0  0  0
M  END
