
  xtb     02032222103D
 energy: -246.293253702013 gnorm: 0.000809825869 xtb: 6.4.1 (unknown)
143158  0     0  0            999 V2000
    9.3441    1.2010   -5.3559 C   0  0  0  0  0  0  0  0  0  0  0  0
   10.5008    1.8031   -4.9443 C   0  0  0  0  0  0  0  0  0  0  0  0
   10.7699    2.5809   -3.7079 C   0  0  0  0  0  0  0  0  0  0  0  0
    9.9855    3.0208   -2.8916 O   0  0  0  0  0  0  0  0  0  0  0  0
   12.2323    2.7428   -3.6520 C   0  0  0  0  0  0  0  0  0  0  0  0
   12.9981    3.3286   -2.6621 C   0  0  0  0  0  0  0  0  0  0  0  0
   14.3739    3.3481   -2.8207 C   0  0  0  0  0  0  0  0  0  0  0  0
   14.9801    2.7923   -3.9460 C   0  0  0  0  0  0  0  0  0  0  0  0
   16.4701    2.7946   -4.0764 C   0  0  0  0  0  0  0  0  0  0  0  0
   14.1984    2.2109   -4.9432 C   0  0  0  0  0  0  0  0  0  0  0  0
   12.8216    2.1889   -4.7997 C   0  0  0  0  0  0  0  0  0  0  0  0
   11.7626    1.6672   -5.6603 C   0  0  0  0  0  0  0  0  0  0  0  0
   11.9507    1.1962   -6.9326 C   0  0  0  0  0  0  0  0  0  0  0  0
   10.9463    0.7647   -7.8263 C   0  0  0  0  0  0  0  0  0  0  0  0
   10.2085    0.4110   -8.6327 N   0  0  0  0  0  0  0  0  0  0  0  0
   13.2101    1.1140   -7.5649 C   0  0  0  0  0  0  0  0  0  0  0  0
   14.1980    1.0147   -8.1415 N   0  0  0  0  0  0  0  0  0  0  0  0
    8.0547    1.1544   -4.7822 C   0  0  0  0  0  0  0  0  0  0  0  0
    7.5162    1.7615   -3.6739 C   0  0  0  0  0  0  0  0  0  0  0  0
    6.1814    1.4011   -3.4148 C   0  0  0  0  0  0  0  0  0  0  0  0
    5.3548    1.8569   -2.3604 C   0  0  0  0  0  0  0  0  0  0  0  0
    5.8404    2.7470   -1.3303 C   0  0  0  0  0  0  0  0  0  0  0  0
    5.1780    3.7834   -0.7276 C   0  0  0  0  0  0  0  0  0  0  0  0
    5.9529    4.4493    0.2392 C   0  0  0  0  0  0  0  0  0  0  0  0
    7.1956    3.9129    0.4014 C   0  0  0  0  0  0  0  0  0  0  0  0
    8.3132    4.3763    1.2697 C   0  0  0  0  0  0  0  0  0  0  0  0
    9.4215    5.0119    0.4261 C   0  0  0  0  0  0  0  0  0  0  0  0
    7.4347    2.5676   -0.6549 S   0  0  0  0  0  0  0  0  0  0  0  0
    4.0493    1.3813   -2.3508 C   0  0  0  0  0  0  0  0  0  0  0  0
    3.5440    0.4818   -3.3226 C   0  0  0  0  0  0  0  0  0  0  0  0
    4.3545    0.0548   -4.3969 C   0  0  0  0  0  0  0  0  0  0  0  0
    3.8219   -0.7909   -5.4441 C   0  0  0  0  0  0  0  0  0  0  0  0
    2.5998   -0.7001   -6.0522 C   0  0  0  0  0  0  0  0  0  0  0  0
    2.4036   -1.6685   -7.0552 C   0  0  0  0  0  0  0  0  0  0  0  0
    3.4645   -2.5073   -7.2121 C   0  0  0  0  0  0  0  0  0  0  0  0
    3.6350   -3.6145   -8.1935 C   0  0  0  0  0  0  0  0  0  0  0  0
    4.5511   -3.1908   -9.3439 C   0  0  0  0  0  0  0  0  0  0  0  0
    4.7470   -2.1006   -6.1214 S   0  0  0  0  0  0  0  0  0  0  0  0
    5.6674    0.5088   -4.3959 C   0  0  0  0  0  0  0  0  0  0  0  0
    6.8725    0.1212   -5.5855 S   0  0  0  0  0  0  0  0  0  0  0  0
    2.2327    0.0601   -3.0099 C   0  0  0  0  0  0  0  0  0  0  0  0
    1.7286    0.6188   -1.8666 C   0  0  0  0  0  0  0  0  0  0  0  0
    2.8591    1.7216   -1.1214 S   0  0  0  0  0  0  0  0  0  0  0  0
    0.4525    0.3757   -1.2548 C   0  0  0  0  0  0  0  0  0  0  0  0
   -0.4581   -0.5614   -1.7237 C   0  0  0  0  0  0  0  0  0  0  0  0
   -1.6727   -0.8207   -1.0922 C   0  0  0  0  0  0  0  0  0  0  0  0
   -2.0795   -0.1622    0.0598 C   0  0  0  0  0  0  0  0  0  0  0  0
   -1.1921    0.8267    0.5527 C   0  0  0  0  0  0  0  0  0  0  0  0
   -1.3701    1.5997    1.6213 N   0  0  0  0  0  0  0  0  0  0  0  0
   -0.0923    2.5585    1.7948 S   0  0  0  0  0  0  0  0  0  0  0  0
    0.7517    2.0426    0.5279 N   0  0  0  0  0  0  0  0  0  0  0  0
    0.0626    1.0887   -0.0938 C   0  0  0  0  0  0  0  0  0  0  0  0
   -3.3041   -0.4506    0.7514 C   0  0  0  0  0  0  0  0  0  0  0  0
   -4.2026   -1.4494    0.4891 C   0  0  0  0  0  0  0  0  0  0  0  0
   -5.2944   -1.4851    1.3840 C   0  0  0  0  0  0  0  0  0  0  0  0
   -6.3524   -2.4199    1.4244 C   0  0  0  0  0  0  0  0  0  0  0  0
   -6.5200   -3.4554    0.4259 C   0  0  0  0  0  0  0  0  0  0  0  0
   -6.9442   -4.7425    0.6058 C   0  0  0  0  0  0  0  0  0  0  0  0
   -7.0503   -5.4708   -0.5951 C   0  0  0  0  0  0  0  0  0  0  0  0
   -6.7289   -4.7463   -1.7010 C   0  0  0  0  0  0  0  0  0  0  0  0
   -6.6966   -5.1841   -3.1244 C   0  0  0  0  0  0  0  0  0  0  0  0
   -5.2593   -5.3445   -3.6247 C   0  0  0  0  0  0  0  0  0  0  0  0
   -6.2642   -3.1341   -1.2688 S   0  0  0  0  0  0  0  0  0  0  0  0
   -7.2504   -2.2847    2.4767 C   0  0  0  0  0  0  0  0  0  0  0  0
   -7.1610   -1.2575    3.4545 C   0  0  0  0  0  0  0  0  0  0  0  0
   -6.1054   -0.3178    3.4063 C   0  0  0  0  0  0  0  0  0  0  0  0
   -5.9672    0.7157    4.4068 C   0  0  0  0  0  0  0  0  0  0  0  0
   -6.1884    0.6408    5.7563 C   0  0  0  0  0  0  0  0  0  0  0  0
   -5.9212    1.8480    6.4285 C   0  0  0  0  0  0  0  0  0  0  0  0
   -5.5097    2.8515    5.6043 C   0  0  0  0  0  0  0  0  0  0  0  0
   -5.1107    4.2432    5.9550 C   0  0  0  0  0  0  0  0  0  0  0  0
   -3.6037    4.4441    5.7815 C   0  0  0  0  0  0  0  0  0  0  0  0
   -5.4257    2.3120    3.9618 S   0  0  0  0  0  0  0  0  0  0  0  0
   -5.2001   -0.4621    2.3614 C   0  0  0  0  0  0  0  0  0  0  0  0
   -3.7718    0.5103    2.1287 S   0  0  0  0  0  0  0  0  0  0  0  0
   -8.2273   -1.3018    4.3730 C   0  0  0  0  0  0  0  0  0  0  0  0
   -9.0995   -2.3415    4.1654 C   0  0  0  0  0  0  0  0  0  0  0  0
   -8.6474   -3.2849    2.7484 S   0  0  0  0  0  0  0  0  0  0  0  0
  -10.2669   -2.7314    4.8599 C   0  0  0  0  0  0  0  0  0  0  0  0
  -10.6450   -2.4443    6.1409 C   0  0  0  0  0  0  0  0  0  0  0  0
   -9.8006   -1.8765    7.2231 C   0  0  0  0  0  0  0  0  0  0  0  0
   -8.7024   -1.3661    7.1397 O   0  0  0  0  0  0  0  0  0  0  0  0
  -10.5508   -2.1122    8.4689 C   0  0  0  0  0  0  0  0  0  0  0  0
  -10.1777   -1.8296    9.7694 C   0  0  0  0  0  0  0  0  0  0  0  0
  -11.0576   -2.1493   10.7900 C   0  0  0  0  0  0  0  0  0  0  0  0
  -12.2886   -2.7480   10.5247 C   0  0  0  0  0  0  0  0  0  0  0  0
  -13.2041   -3.1043   11.6526 C   0  0  0  0  0  0  0  0  0  0  0  0
  -12.6565   -3.0300    9.2105 C   0  0  0  0  0  0  0  0  0  0  0  0
  -11.7893   -2.7087    8.1799 C   0  0  0  0  0  0  0  0  0  0  0  0
  -11.9022   -2.8689    6.7333 C   0  0  0  0  0  0  0  0  0  0  0  0
  -13.0282   -3.2642    6.0612 C   0  0  0  0  0  0  0  0  0  0  0  0
  -13.1687   -3.3021    4.6571 C   0  0  0  0  0  0  0  0  0  0  0  0
  -13.3749   -3.3423    3.5281 N   0  0  0  0  0  0  0  0  0  0  0  0
  -14.2311   -3.6442    6.6925 C   0  0  0  0  0  0  0  0  0  0  0  0
  -15.2320   -3.9750    7.1476 N   0  0  0  0  0  0  0  0  0  0  0  0
    9.4159    0.6111   -6.2627 H   0  0  0  0  0  0  0  0  0  0  0  0
   12.5236    3.7554   -1.7918 H   0  0  0  0  0  0  0  0  0  0  0  0
   14.9937    3.7992   -2.0596 H   0  0  0  0  0  0  0  0  0  0  0  0
   16.7690    2.7586   -5.1208 H   0  0  0  0  0  0  0  0  0  0  0  0
   16.9008    3.6777   -3.6106 H   0  0  0  0  0  0  0  0  0  0  0  0
   16.8832    1.9170   -3.5777 H   0  0  0  0  0  0  0  0  0  0  0  0
   14.6805    1.7826   -5.8070 H   0  0  0  0  0  0  0  0  0  0  0  0
    8.0809    2.4554   -3.0812 H   0  0  0  0  0  0  0  0  0  0  0  0
    4.1836    4.0865   -1.0012 H   0  0  0  0  0  0  0  0  0  0  0  0
    5.6014    5.3002    0.7956 H   0  0  0  0  0  0  0  0  0  0  0  0
    8.7262    3.5284    1.8221 H   0  0  0  0  0  0  0  0  0  0  0  0
    7.9300    5.1020    1.9902 H   0  0  0  0  0  0  0  0  0  0  0  0
   10.2566    5.3055    1.0577 H   0  0  0  0  0  0  0  0  0  0  0  0
    9.7742    4.3058   -0.3226 H   0  0  0  0  0  0  0  0  0  0  0  0
    9.0456    5.8942   -0.0872 H   0  0  0  0  0  0  0  0  0  0  0  0
    1.8835    0.0682   -5.8198 H   0  0  0  0  0  0  0  0  0  0  0  0
    1.5044   -1.7396   -7.6417 H   0  0  0  0  0  0  0  0  0  0  0  0
    4.0658   -4.4861   -7.6950 H   0  0  0  0  0  0  0  0  0  0  0  0
    2.6546   -3.8926   -8.5864 H   0  0  0  0  0  0  0  0  0  0  0  0
    4.1324   -2.3323   -9.8641 H   0  0  0  0  0  0  0  0  0  0  0  0
    5.5324   -2.9178   -8.9628 H   0  0  0  0  0  0  0  0  0  0  0  0
    4.6668   -4.0060  -10.0535 H   0  0  0  0  0  0  0  0  0  0  0  0
    1.6998   -0.6612   -3.6007 H   0  0  0  0  0  0  0  0  0  0  0  0
   -0.2165   -1.1289   -2.6085 H   0  0  0  0  0  0  0  0  0  0  0  0
   -2.3178   -1.5711   -1.5212 H   0  0  0  0  0  0  0  0  0  0  0  0
   -4.0725   -2.1608   -0.3044 H   0  0  0  0  0  0  0  0  0  0  0  0
   -7.1402   -5.1693    1.5726 H   0  0  0  0  0  0  0  0  0  0  0  0
   -7.3624   -6.4993   -0.6360 H   0  0  0  0  0  0  0  0  0  0  0  0
   -7.2246   -6.1360   -3.2097 H   0  0  0  0  0  0  0  0  0  0  0  0
   -7.2120   -4.4492   -3.7479 H   0  0  0  0  0  0  0  0  0  0  0  0
   -4.7316   -4.3952   -3.5632 H   0  0  0  0  0  0  0  0  0  0  0  0
   -4.7276   -6.0763   -3.0205 H   0  0  0  0  0  0  0  0  0  0  0  0
   -5.2551   -5.6781   -4.6592 H   0  0  0  0  0  0  0  0  0  0  0  0
   -6.4960   -0.2566    6.2616 H   0  0  0  0  0  0  0  0  0  0  0  0
   -6.0339    1.9673    7.4916 H   0  0  0  0  0  0  0  0  0  0  0  0
   -5.6410    4.9506    5.3123 H   0  0  0  0  0  0  0  0  0  0  0  0
   -5.3947    4.4419    6.9905 H   0  0  0  0  0  0  0  0  0  0  0  0
   -3.3263    5.4631    6.0395 H   0  0  0  0  0  0  0  0  0  0  0  0
   -3.0549    3.7597    6.4245 H   0  0  0  0  0  0  0  0  0  0  0  0
   -3.3162    4.2531    4.7500 H   0  0  0  0  0  0  0  0  0  0  0  0
   -8.3749   -0.5684    5.1405 H   0  0  0  0  0  0  0  0  0  0  0  0
  -10.9117   -3.3940    4.2935 H   0  0  0  0  0  0  0  0  0  0  0  0
   -9.2231   -1.3683    9.9704 H   0  0  0  0  0  0  0  0  0  0  0  0
  -10.7900   -1.9338   11.8143 H   0  0  0  0  0  0  0  0  0  0  0  0
  -14.2140   -3.2834   11.2935 H   0  0  0  0  0  0  0  0  0  0  0  0
  -12.8504   -4.0115   12.1431 H   0  0  0  0  0  0  0  0  0  0  0  0
  -13.2258   -2.3114   12.3972 H   0  0  0  0  0  0  0  0  0  0  0  0
  -13.6075   -3.4992    9.0163 H   0  0  0  0  0  0  0  0  0  0  0  0
  1  2  2  0  0  0  0
  2  3  1  0  0  0  0
  3  4  2  0  0  0  0
  3  5  1  0  0  0  0
  5  6  2  0  0  0  0
  6  7  1  0  0  0  0
  7  8  2  0  0  0  0
  8  9  1  0  0  0  0
  8 10  1  0  0  0  0
 10 11  2  0  0  0  0
 11 12  1  0  0  0  0
 12 13  2  0  0  0  0
 13 14  1  0  0  0  0
 14 15  3  0  0  0  0
 13 16  1  0  0  0  0
 16 17  3  0  0  0  0
  1 18  1  0  0  0  0
 18 19  2  0  0  0  0
 19 20  1  0  0  0  0
 20 21  2  0  0  0  0
 21 22  1  0  0  0  0
 22 23  2  0  0  0  0
 23 24  1  0  0  0  0
 24 25  2  0  0  0  0
 25 26  1  0  0  0  0
 26 27  1  0  0  0  0
 25 28  1  0  0  0  0
 21 29  1  0  0  0  0
 29 30  2  0  0  0  0
 30 31  1  0  0  0  0
 31 32  1  0  0  0  0
 32 33  2  0  0  0  0
 33 34  1  0  0  0  0
 34 35  2  0  0  0  0
 35 36  1  0  0  0  0
 36 37  1  0  0  0  0
 35 38  1  0  0  0  0
 31 39  2  0  0  0  0
 39 40  1  0  0  0  0
 30 41  1  0  0  0  0
 41 42  2  0  0  0  0
 42 43  1  0  0  0  0
 42 44  1  0  0  0  0
 44 45  2  0  0  0  0
 45 46  1  0  0  0  0
 46 47  2  0  0  0  0
 47 48  1  0  0  0  0
 48 49  2  0  0  0  0
 49 50  1  0  0  0  0
 50 51  1  0  0  0  0
 51 52  2  0  0  0  0
 47 53  1  0  0  0  0
 53 54  2  0  0  0  0
 54 55  1  0  0  0  0
 55 56  2  0  0  0  0
 56 57  1  0  0  0  0
 57 58  2  0  0  0  0
 58 59  1  0  0  0  0
 59 60  2  0  0  0  0
 60 61  1  0  0  0  0
 61 62  1  0  0  0  0
 60 63  1  0  0  0  0
 56 64  1  0  0  0  0
 64 65  2  0  0  0  0
 65 66  1  0  0  0  0
 66 67  1  0  0  0  0
 67 68  2  0  0  0  0
 68 69  1  0  0  0  0
 69 70  2  0  0  0  0
 70 71  1  0  0  0  0
 71 72  1  0  0  0  0
 70 73  1  0  0  0  0
 66 74  2  0  0  0  0
 74 75  1  0  0  0  0
 65 76  1  0  0  0  0
 76 77  2  0  0  0  0
 77 78  1  0  0  0  0
 77 79  1  0  0  0  0
 79 80  2  0  0  0  0
 80 81  1  0  0  0  0
 81 82  2  0  0  0  0
 81 83  1  0  0  0  0
 83 84  2  0  0  0  0
 84 85  1  0  0  0  0
 85 86  2  0  0  0  0
 86 87  1  0  0  0  0
 86 88  1  0  0  0  0
 88 89  2  0  0  0  0
 89 90  1  0  0  0  0
 90 91  2  0  0  0  0
 91 92  1  0  0  0  0
 92 93  3  0  0  0  0
 91 94  1  0  0  0  0
 94 95  3  0  0  0  0
 12  2  1  0  0  0  0
 40 18  1  0  0  0  0
 52 44  1  0  0  0  0
 75 53  1  0  0  0  0
 90 80  1  0  0  0  0
 11  5  1  0  0  0  0
 39 20  1  0  0  0  0
 52 48  1  0  0  0  0
 74 55  1  0  0  0  0
 89 83  1  0  0  0  0
 28 22  1  0  0  0  0
 43 29  1  0  0  0  0
 63 57  1  0  0  0  0
 78 64  1  0  0  0  0
 38 32  1  0  0  0  0
 73 67  1  0  0  0  0
  1 96  1  0  0  0  0
  6 97  1  0  0  0  0
  7 98  1  0  0  0  0
  9 99  1  0  0  0  0
  9100  1  0  0  0  0
  9101  1  0  0  0  0
 10102  1  0  0  0  0
 19103  1  0  0  0  0
 23104  1  0  0  0  0
 24105  1  0  0  0  0
 26106  1  0  0  0  0
 26107  1  0  0  0  0
 27108  1  0  0  0  0
 27109  1  0  0  0  0
 27110  1  0  0  0  0
 33111  1  0  0  0  0
 34112  1  0  0  0  0
 36113  1  0  0  0  0
 36114  1  0  0  0  0
 37115  1  0  0  0  0
 37116  1  0  0  0  0
 37117  1  0  0  0  0
 41118  1  0  0  0  0
 45119  1  0  0  0  0
 46120  1  0  0  0  0
 54121  1  0  0  0  0
 58122  1  0  0  0  0
 59123  1  0  0  0  0
 61124  1  0  0  0  0
 61125  1  0  0  0  0
 62126  1  0  0  0  0
 62127  1  0  0  0  0
 62128  1  0  0  0  0
 68129  1  0  0  0  0
 69130  1  0  0  0  0
 71131  1  0  0  0  0
 71132  1  0  0  0  0
 72133  1  0  0  0  0
 72134  1  0  0  0  0
 72135  1  0  0  0  0
 76136  1  0  0  0  0
 79137  1  0  0  0  0
 84138  1  0  0  0  0
 85139  1  0  0  0  0
 87140  1  0  0  0  0
 87141  1  0  0  0  0
 87142  1  0  0  0  0
 88143  1  0  0  0  0
M  END
