
  xtb     02032223373D
 energy: -315.613759051635 gnorm: 0.000518934713 xtb: 6.4.1 (unknown)
169186  0     0  0            999 V2000
   -4.0196    3.3384    8.2665 C   0  0  0  0  0  0  0  0  0  0  0  0
   -4.2135    2.6847    9.4490 C   0  0  0  0  0  0  0  0  0  0  0  0
   -4.3884    3.4837   10.6939 C   0  0  0  0  0  0  0  0  0  0  0  0
   -4.5736    4.6785   10.7684 O   0  0  0  0  0  0  0  0  0  0  0  0
   -4.2333    2.5166   11.7973 C   0  0  0  0  0  0  0  0  0  0  0  0
   -4.2185    2.7313   13.1616 C   0  0  0  0  0  0  0  0  0  0  0  0
   -4.0410    1.6407   13.9993 C   0  0  0  0  0  0  0  0  0  0  0  0
   -3.8753    0.3542   13.4912 C   0  0  0  0  0  0  0  0  0  0  0  0
   -3.6530   -0.8000   14.4168 C   0  0  0  0  0  0  0  0  0  0  0  0
   -3.8976    0.1437   12.1128 C   0  0  0  0  0  0  0  0  0  0  0  0
   -4.0791    1.2223   11.2670 C   0  0  0  0  0  0  0  0  0  0  0  0
   -4.1947    1.2932    9.8122 C   0  0  0  0  0  0  0  0  0  0  0  0
   -4.4450    0.2246    8.9865 C   0  0  0  0  0  0  0  0  0  0  0  0
   -4.3405   -1.1257    9.3635 C   0  0  0  0  0  0  0  0  0  0  0  0
   -4.2177   -2.2525    9.5569 N   0  0  0  0  0  0  0  0  0  0  0  0
   -4.8697    0.3360    7.6489 C   0  0  0  0  0  0  0  0  0  0  0  0
   -5.2464    0.3460    6.5633 N   0  0  0  0  0  0  0  0  0  0  0  0
   -3.4854    2.8749    7.0406 C   0  0  0  0  0  0  0  0  0  0  0  0
   -3.7536    3.5836    5.8457 C   0  0  0  0  0  0  0  0  0  0  0  0
   -3.2536    3.1758    4.5511 C   0  0  0  0  0  0  0  0  0  0  0  0
   -3.7217    3.9501    3.5694 N   0  0  0  0  0  0  0  0  0  0  0  0
   -4.6774    5.0730    4.2015 S   0  0  0  0  0  4  0  0  0  0  0  0
   -4.5424    4.6546    5.7490 N   0  0  0  0  0  0  0  0  0  0  0  0
   -2.4098    2.0607    4.3949 C   0  0  0  0  0  0  0  0  0  0  0  0
   -2.1647    1.3361    5.5784 C   0  0  0  0  0  0  0  0  0  0  0  0
   -1.3851    0.2544    5.6606 N   0  0  0  0  0  0  0  0  0  0  0  0
   -1.2525   -0.1890    7.1921 S   0  0  0  0  0  0  0  0  0  0  0  0
   -2.1726    0.9601    7.8411 N   0  0  0  0  0  0  0  0  0  0  0  0
   -2.6501    1.7491    6.8744 C   0  0  0  0  0  0  0  0  0  0  0  0
   -1.8077    1.6463    3.1731 C   0  0  0  0  0  0  0  0  0  0  0  0
   -1.2363    2.3968    2.1418 C   0  0  0  0  0  0  0  0  0  0  0  0
   -1.0324    3.7592    2.1617 N   0  0  0  0  0  0  0  0  0  0  0  0
   -1.0170    4.4632    0.9534 C   0  0  0  0  0  0  0  0  0  0  0  0
   -0.1163    5.5097    0.7505 C   0  0  0  0  0  0  0  0  0  0  0  0
   -0.0809    6.1637   -0.4596 C   0  0  0  0  0  0  0  0  0  0  0  0
   -0.9398    5.7908   -1.4941 C   0  0  0  0  0  0  0  0  0  0  0  0
   -0.7776    6.6763   -3.0095 S   0  0  0  0  0  0  0  0  0  0  0  0
   -2.0934    5.9939   -4.0571 C   0  0  0  0  0  0  0  0  0  0  0  0
   -1.8544    4.7669   -1.2860 C   0  0  0  0  0  0  0  0  0  0  0  0
   -1.8933    4.1134   -0.0709 C   0  0  0  0  0  0  0  0  0  0  0  0
   -0.8737    4.4202    3.3872 C   0  0  0  0  0  0  0  0  0  0  0  0
   -1.4857    5.6488    3.6194 C   0  0  0  0  0  0  0  0  0  0  0  0
   -1.5058    6.1912    4.8904 C   0  0  0  0  0  0  0  0  0  0  0  0
   -0.9080    5.5153    5.9472 C   0  0  0  0  0  0  0  0  0  0  0  0
   -1.0237    6.0383    7.6258 S   0  0  0  0  0  0  0  0  0  0  0  0
   -2.5806    6.9766    7.6470 C   0  0  0  0  0  0  0  0  0  0  0  0
   -0.1797    4.3542    5.6886 C   0  0  0  0  0  0  0  0  0  0  0  0
   -0.1571    3.8163    4.4230 C   0  0  0  0  0  0  0  0  0  0  0  0
   -0.7221    1.5412    1.1367 C   0  0  0  0  0  0  0  0  0  0  0  0
    0.0935    1.7874   -0.3689 S   0  0  0  0  0  0  0  0  0  0  0  0
    0.3090    0.0497   -0.5676 C   0  0  0  0  0  0  0  0  0  0  0  0
   -0.2795   -0.6835    0.4621 C   0  0  0  0  0  0  0  0  0  0  0  0
   -0.3509   -2.0555    0.6039 N   0  0  0  0  0  0  0  0  0  0  0  0
   -0.4505   -2.5240    1.9366 C   0  0  0  0  0  0  0  0  0  0  0  0
    0.5321   -2.1727    2.8619 C   0  0  0  0  0  0  0  0  0  0  0  0
    0.3549   -2.4497    4.1995 C   0  0  0  0  0  0  0  0  0  0  0  0
   -0.8091   -3.0781    4.6344 C   0  0  0  0  0  0  0  0  0  0  0  0
   -1.0263   -3.2539    6.3792 S   0  0  0  0  0  0  0  0  0  0  0  0
   -2.8281   -3.3922    6.5556 C   0  0  0  0  0  0  0  0  0  0  0  0
   -1.7401   -3.5203    3.7025 C   0  0  0  0  0  0  0  0  0  0  0  0
   -1.5605   -3.2468    2.3604 C   0  0  0  0  0  0  0  0  0  0  0  0
   -0.5124   -2.9421   -0.4609 C   0  0  0  0  0  0  0  0  0  0  0  0
   -0.0527   -4.2555   -0.3383 C   0  0  0  0  0  0  0  0  0  0  0  0
   -0.0998   -5.1102   -1.4160 C   0  0  0  0  0  0  0  0  0  0  0  0
   -0.5950   -4.6759   -2.6433 C   0  0  0  0  0  0  0  0  0  0  0  0
   -0.5373   -5.8038   -4.0001 S   0  0  0  0  0  0  0  0  0  0  0  0
   -0.4473   -4.6923   -5.4324 C   0  0  0  0  0  0  0  0  0  0  0  0
   -1.1170   -3.3941   -2.7503 C   0  0  0  0  0  0  0  0  0  0  0  0
   -1.0803   -2.5387   -1.6682 C   0  0  0  0  0  0  0  0  0  0  0  0
   -0.8480    0.1909    1.4229 C   0  0  0  0  0  0  0  0  0  0  0  0
   -1.6281   -0.0751    2.9377 S   0  0  0  0  0  0  0  0  0  0  0  0
    1.0052   -0.4098   -1.7181 C   0  0  0  0  0  0  0  0  0  0  0  0
    1.6431   -1.6065   -1.9056 C   0  0  0  0  0  0  0  0  0  0  0  0
    2.1357   -1.7969   -3.2144 C   0  0  0  0  0  0  0  0  0  0  0  0
    2.7307   -2.9586   -3.7587 C   0  0  0  0  0  0  0  0  0  0  0  0
    3.0080   -4.1201   -2.9413 C   0  0  0  0  0  0  0  0  0  0  0  0
    3.4005   -4.1690   -1.6310 C   0  0  0  0  0  0  0  0  0  0  0  0
    3.5465   -5.4874   -1.1563 C   0  0  0  0  0  0  0  0  0  0  0  0
    4.0098   -5.8330    0.4668 Cl  0  0  0  0  0  0  0  0  0  0  0  0
    3.2906   -6.4551   -2.0855 C   0  0  0  0  0  0  0  0  0  0  0  0
    3.3251   -7.9356   -1.9342 C   0  0  0  0  0  0  0  0  0  0  0  0
    1.9239   -8.5091   -1.7096 C   0  0  0  0  0  0  0  0  0  0  0  0
    2.8463   -5.7289   -3.5860 S   0  0  0  0  0  0  0  0  0  0  0  0
    3.0077   -2.9267   -5.1229 C   0  0  0  0  0  0  0  0  0  0  0  0
    2.7587   -1.7900   -5.9361 C   0  0  0  0  0  0  0  0  0  0  0  0
    2.1569   -0.6325   -5.3925 C   0  0  0  0  0  0  0  0  0  0  0  0
    1.8183    0.4922   -6.2368 C   0  0  0  0  0  0  0  0  0  0  0  0
    1.2420    0.4666   -7.4777 C   0  0  0  0  0  0  0  0  0  0  0  0
    1.0471    1.7475   -8.0277 C   0  0  0  0  0  0  0  0  0  0  0  0
    1.4787    2.7541   -7.2178 C   0  0  0  0  0  0  0  0  0  0  0  0
    1.4191    4.2241   -7.4480 C   0  0  0  0  0  0  0  0  0  0  0  0
    0.3970    4.8879   -6.5234 C   0  0  0  0  0  0  0  0  0  0  0  0
    2.1204    2.1302   -5.7337 S   0  0  0  0  0  0  0  0  0  0  0  0
    1.8709   -0.6712   -4.0381 C   0  0  0  0  0  0  0  0  0  0  0  0
    1.0492    0.5870   -3.1573 S   0  0  0  0  0  0  0  0  0  0  0  0
    3.1828   -1.9799   -7.2611 C   0  0  0  0  0  0  0  0  0  0  0  0
    3.7012   -3.2296   -7.5063 C   0  0  0  0  0  0  0  0  0  0  0  0
    3.7309   -4.2081   -6.0518 S   0  0  0  0  0  0  0  0  0  0  0  0
    4.2135   -3.7419   -8.7197 C   0  0  0  0  0  0  0  0  0  0  0  0
    4.0193   -3.2311   -9.9672 C   0  0  0  0  0  0  0  0  0  0  0  0
    4.9201   -3.6049  -11.0859 C   0  0  0  0  0  0  0  0  0  0  0  0
    5.6884   -4.5336  -11.1207 O   0  0  0  0  0  0  0  0  0  0  0  0
    4.7169   -2.5449  -12.1075 C   0  0  0  0  0  0  0  0  0  0  0  0
    5.4301   -2.3032  -13.2689 C   0  0  0  0  0  0  0  0  0  0  0  0
    6.6397   -3.3780  -13.8081 Cl  0  0  0  0  0  0  0  0  0  0  0  0
    5.1400   -1.1377  -13.9955 C   0  0  0  0  0  0  0  0  0  0  0  0
    5.9780   -0.8130  -15.4496 Cl  0  0  0  0  0  0  0  0  0  0  0  0
    4.2017   -0.2237  -13.5167 C   0  0  0  0  0  0  0  0  0  0  0  0
    3.9380    1.2355  -14.3684 Cl  0  0  0  0  0  0  0  0  0  0  0  0
    3.4796   -0.4763  -12.3399 C   0  0  0  0  0  0  0  0  0  0  0  0
    2.4608    0.7497  -11.7087 Cl  0  0  0  0  0  0  0  0  0  0  0  0
    3.6982   -1.6720  -11.6729 C   0  0  0  0  0  0  0  0  0  0  0  0
    3.0864   -2.2455  -10.4765 C   0  0  0  0  0  0  0  0  0  0  0  0
    1.7674   -2.1502  -10.1213 C   0  0  0  0  0  0  0  0  0  0  0  0
    1.1983   -2.8993   -9.0675 C   0  0  0  0  0  0  0  0  0  0  0  0
    0.6631   -3.4840   -8.2374 N   0  0  0  0  0  0  0  0  0  0  0  0
    0.7697   -1.4392  -10.8211 C   0  0  0  0  0  0  0  0  0  0  0  0
   -0.1207   -0.9378  -11.3430 N   0  0  0  0  0  0  0  0  0  0  0  0
   -4.2846    4.3910    8.2800 H   0  0  0  0  0  0  0  0  0  0  0  0
   -4.3470    3.7277   13.5557 H   0  0  0  0  0  0  0  0  0  0  0  0
   -4.0299    1.7870   15.0697 H   0  0  0  0  0  0  0  0  0  0  0  0
   -2.5876   -0.9036   14.6257 H   0  0  0  0  0  0  0  0  0  0  0  0
   -4.1664   -0.6458   15.3629 H   0  0  0  0  0  0  0  0  0  0  0  0
   -3.9987   -1.7285   13.9694 H   0  0  0  0  0  0  0  0  0  0  0  0
   -3.7650   -0.8540   11.7241 H   0  0  0  0  0  0  0  0  0  0  0  0
    0.5599    5.7928    1.5431 H   0  0  0  0  0  0  0  0  0  0  0  0
    0.6219    6.9655   -0.6257 H   0  0  0  0  0  0  0  0  0  0  0  0
   -3.0609    6.1656   -3.5946 H   0  0  0  0  0  0  0  0  0  0  0  0
   -2.0314    6.5378   -4.9943 H   0  0  0  0  0  0  0  0  0  0  0  0
   -1.9181    4.9369   -4.2332 H   0  0  0  0  0  0  0  0  0  0  0  0
   -2.5443    4.4682   -2.0578 H   0  0  0  0  0  0  0  0  0  0  0  0
   -2.6182    3.3308    0.0951 H   0  0  0  0  0  0  0  0  0  0  0  0
   -1.9915    6.1522    2.8090 H   0  0  0  0  0  0  0  0  0  0  0  0
   -2.0145    7.1278    5.0557 H   0  0  0  0  0  0  0  0  0  0  0  0
   -2.4227    7.9831    7.2703 H   0  0  0  0  0  0  0  0  0  0  0  0
   -3.3268    6.4468    7.0621 H   0  0  0  0  0  0  0  0  0  0  0  0
   -2.8858    7.0157    8.6883 H   0  0  0  0  0  0  0  0  0  0  0  0
    0.3422    3.8701    6.4998 H   0  0  0  0  0  0  0  0  0  0  0  0
    0.3840    2.9005    4.2363 H   0  0  0  0  0  0  0  0  0  0  0  0
    1.4106   -1.6415    2.5263 H   0  0  0  0  0  0  0  0  0  0  0  0
    1.0955   -2.1514    4.9245 H   0  0  0  0  0  0  0  0  0  0  0  0
   -3.1629   -4.3799    6.2535 H   0  0  0  0  0  0  0  0  0  0  0  0
   -3.3074   -2.6165    5.9652 H   0  0  0  0  0  0  0  0  0  0  0  0
   -3.0433   -3.2432    7.6106 H   0  0  0  0  0  0  0  0  0  0  0  0
   -2.6232   -4.0538    4.0148 H   0  0  0  0  0  0  0  0  0  0  0  0
   -2.3011   -3.5579    1.6388 H   0  0  0  0  0  0  0  0  0  0  0  0
    0.3677   -4.5877    0.5993 H   0  0  0  0  0  0  0  0  0  0  0  0
    0.2719   -6.1179   -1.3272 H   0  0  0  0  0  0  0  0  0  0  0  0
    0.2431   -3.8829   -5.2165 H   0  0  0  0  0  0  0  0  0  0  0  0
   -1.4322   -4.3089   -5.6814 H   0  0  0  0  0  0  0  0  0  0  0  0
   -0.0691   -5.2858   -6.2577 H   0  0  0  0  0  0  0  0  0  0  0  0
   -1.5535   -3.0520   -3.6752 H   0  0  0  0  0  0  0  0  0  0  0  0
   -1.4985   -1.5478   -1.7598 H   0  0  0  0  0  0  0  0  0  0  0  0
    1.7415   -2.3363   -1.1283 H   0  0  0  0  0  0  0  0  0  0  0  0
    3.6362   -3.3081   -1.0342 H   0  0  0  0  0  0  0  0  0  0  0  0
    3.9656   -8.1882   -1.0866 H   0  0  0  0  0  0  0  0  0  0  0  0
    3.7520   -8.3779   -2.8366 H   0  0  0  0  0  0  0  0  0  0  0  0
    1.2647   -8.2274   -2.5281 H   0  0  0  0  0  0  0  0  0  0  0  0
    1.5080   -8.1360   -0.7763 H   0  0  0  0  0  0  0  0  0  0  0  0
    1.9695   -9.5936   -1.6557 H   0  0  0  0  0  0  0  0  0  0  0  0
    0.9126   -0.4411   -7.9517 H   0  0  0  0  0  0  0  0  0  0  0  0
    0.6018    1.9121   -8.9930 H   0  0  0  0  0  0  0  0  0  0  0  0
    1.1488    4.4051   -8.4903 H   0  0  0  0  0  0  0  0  0  0  0  0
    2.4024    4.6651   -7.2667 H   0  0  0  0  0  0  0  0  0  0  0  0
   -0.5929    4.4721   -6.6991 H   0  0  0  0  0  0  0  0  0  0  0  0
    0.6677    4.7216   -5.4831 H   0  0  0  0  0  0  0  0  0  0  0  0
    0.3646    5.9589   -6.7056 H   0  0  0  0  0  0  0  0  0  0  0  0
    3.1679   -1.1961   -7.9963 H   0  0  0  0  0  0  0  0  0  0  0  0
    4.8880   -4.5877   -8.6516 H   0  0  0  0  0  0  0  0  0  0  0  0
  1  2  2  0  0  0  0
  2  3  1  0  0  0  0
  3  4  2  0  0  0  0
  3  5  1  0  0  0  0
  5  6  2  0  0  0  0
  6  7  1  0  0  0  0
  7  8  2  0  0  0  0
  8  9  1  0  0  0  0
  8 10  1  0  0  0  0
 10 11  2  0  0  0  0
 11 12  1  0  0  0  0
 12 13  2  0  0  0  0
 13 14  1  0  0  0  0
 14 15  3  0  0  0  0
 13 16  1  0  0  0  0
 16 17  3  0  0  0  0
  1 18  1  0  0  0  0
 18 19  2  0  0  0  0
 19 20  1  0  0  0  0
 20 21  1  0  0  0  0
 21 22  2  0  0  0  0
 22 23  2  0  0  0  0
 20 24  2  0  0  0  0
 24 25  1  0  0  0  0
 25 26  2  0  0  0  0
 26 27  1  0  0  0  0
 27 28  1  0  0  0  0
 28 29  2  0  0  0  0
 24 30  1  0  0  0  0
 30 31  2  0  0  0  0
 31 32  1  0  0  0  0
 32 33  1  0  0  0  0
 33 34  2  0  0  0  0
 34 35  1  0  0  0  0
 35 36  2  0  0  0  0
 36 37  1  0  0  0  0
 37 38  1  0  0  0  0
 36 39  1  0  0  0  0
 39 40  2  0  0  0  0
 32 41  1  0  0  0  0
 41 42  2  0  0  0  0
 42 43  1  0  0  0  0
 43 44  2  0  0  0  0
 44 45  1  0  0  0  0
 45 46  1  0  0  0  0
 44 47  1  0  0  0  0
 47 48  2  0  0  0  0
 31 49  1  0  0  0  0
 49 50  1  0  0  0  0
 50 51  1  0  0  0  0
 51 52  2  0  0  0  0
 52 53  1  0  0  0  0
 53 54  1  0  0  0  0
 54 55  2  0  0  0  0
 55 56  1  0  0  0  0
 56 57  2  0  0  0  0
 57 58  1  0  0  0  0
 58 59  1  0  0  0  0
 57 60  1  0  0  0  0
 60 61  2  0  0  0  0
 53 62  1  0  0  0  0
 62 63  2  0  0  0  0
 63 64  1  0  0  0  0
 64 65  2  0  0  0  0
 65 66  1  0  0  0  0
 66 67  1  0  0  0  0
 65 68  1  0  0  0  0
 68 69  2  0  0  0  0
 52 70  1  0  0  0  0
 70 71  1  0  0  0  0
 51 72  1  0  0  0  0
 72 73  2  0  0  0  0
 73 74  1  0  0  0  0
 74 75  2  0  0  0  0
 75 76  1  0  0  0  0
 76 77  2  0  0  0  0
 77 78  1  0  0  0  0
 78 79  1  0  0  0  0
 78 80  2  0  0  0  0
 80 81  1  0  0  0  0
 81 82  1  0  0  0  0
 80 83  1  0  0  0  0
 75 84  1  0  0  0  0
 84 85  2  0  0  0  0
 85 86  1  0  0  0  0
 86 87  1  0  0  0  0
 87 88  2  0  0  0  0
 88 89  1  0  0  0  0
 89 90  2  0  0  0  0
 90 91  1  0  0  0  0
 91 92  1  0  0  0  0
 90 93  1  0  0  0  0
 86 94  2  0  0  0  0
 94 95  1  0  0  0  0
 85 96  1  0  0  0  0
 96 97  2  0  0  0  0
 97 98  1  0  0  0  0
 97 99  1  0  0  0  0
 99100  2  0  0  0  0
100101  1  0  0  0  0
101102  2  0  0  0  0
101103  1  0  0  0  0
103104  2  0  0  0  0
104105  1  0  0  0  0
104106  1  0  0  0  0
106107  1  0  0  0  0
106108  2  0  0  0  0
108109  1  0  0  0  0
108110  1  0  0  0  0
110111  1  0  0  0  0
110112  2  0  0  0  0
112113  1  0  0  0  0
113114  2  0  0  0  0
114115  1  0  0  0  0
115116  3  0  0  0  0
114117  1  0  0  0  0
117118  3  0  0  0  0
 12  2  1  0  0  0  0
 29 18  1  0  0  0  0
 71 30  1  0  0  0  0
 95 72  1  0  0  0  0
113100  1  0  0  0  0
 11  5  1  0  0  0  0
 23 19  1  0  0  0  0
 29 25  1  0  0  0  0
 40 33  1  0  0  0  0
 48 41  1  0  0  0  0
 70 49  2  0  0  0  0
 94 74  1  0  0  0  0
112103  1  0  0  0  0
 61 54  1  0  0  0  0
 69 62  1  0  0  0  0
 83 76  1  0  0  0  0
 98 84  1  0  0  0  0
 93 87  1  0  0  0  0
  1119  1  0  0  0  0
  6120  1  0  0  0  0
  7121  1  0  0  0  0
  9122  1  0  0  0  0
  9123  1  0  0  0  0
  9124  1  0  0  0  0
 10125  1  0  0  0  0
 34126  1  0  0  0  0
 35127  1  0  0  0  0
 38128  1  0  0  0  0
 38129  1  0  0  0  0
 38130  1  0  0  0  0
 39131  1  0  0  0  0
 40132  1  0  0  0  0
 42133  1  0  0  0  0
 43134  1  0  0  0  0
 46135  1  0  0  0  0
 46136  1  0  0  0  0
 46137  1  0  0  0  0
 47138  1  0  0  0  0
 48139  1  0  0  0  0
 55140  1  0  0  0  0
 56141  1  0  0  0  0
 59142  1  0  0  0  0
 59143  1  0  0  0  0
 59144  1  0  0  0  0
 60145  1  0  0  0  0
 61146  1  0  0  0  0
 63147  1  0  0  0  0
 64148  1  0  0  0  0
 67149  1  0  0  0  0
 67150  1  0  0  0  0
 67151  1  0  0  0  0
 68152  1  0  0  0  0
 69153  1  0  0  0  0
 73154  1  0  0  0  0
 77155  1  0  0  0  0
 81156  1  0  0  0  0
 81157  1  0  0  0  0
 82158  1  0  0  0  0
 82159  1  0  0  0  0
 82160  1  0  0  0  0
 88161  1  0  0  0  0
 89162  1  0  0  0  0
 91163  1  0  0  0  0
 91164  1  0  0  0  0
 92165  1  0  0  0  0
 92166  1  0  0  0  0
 92167  1  0  0  0  0
 96168  1  0  0  0  0
 99169  1  0  0  0  0
M  END
