
  xtb     02032221083D
 energy: -184.806789211923 gnorm: 0.000742933684 xtb: 6.4.1 (unknown)
 80 91  0     0  0            999 V2000
    4.1614   -4.0337   -1.7088 C   0  0  0  0  0  0  0  0  0  0  0  0
    4.5289   -5.1152   -0.9694 C   0  0  0  0  0  0  0  0  0  0  0  0
    4.3513   -5.2445    0.5051 C   0  0  0  0  0  0  0  0  0  0  0  0
    3.8579   -4.4423    1.2671 O   0  0  0  0  0  0  0  0  0  0  0  0
    5.0415   -6.4938    0.8708 C   0  0  0  0  0  0  0  0  0  0  0  0
    5.1742   -7.0791    2.1155 C   0  0  0  0  0  0  0  0  0  0  0  0
    5.8956   -8.2577    2.2170 C   0  0  0  0  0  0  0  0  0  0  0  0
    6.4900   -8.8419    1.0999 C   0  0  0  0  0  0  0  0  0  0  0  0
    7.2508  -10.1227    1.2311 C   0  0  0  0  0  0  0  0  0  0  0  0
    6.3578   -8.2416   -0.1514 C   0  0  0  0  0  0  0  0  0  0  0  0
    5.6308   -7.0694   -0.2689 C   0  0  0  0  0  0  0  0  0  0  0  0
    5.3184   -6.2417   -1.4304 C   0  0  0  0  0  0  0  0  0  0  0  0
    5.6335   -6.5329   -2.7311 C   0  0  0  0  0  0  0  0  0  0  0  0
    5.2356   -5.7741   -3.8528 C   0  0  0  0  0  0  0  0  0  0  0  0
    4.9384   -5.2295   -4.8190 N   0  0  0  0  0  0  0  0  0  0  0  0
    6.3803   -7.6607   -3.1323 C   0  0  0  0  0  0  0  0  0  0  0  0
    6.9906   -8.5519   -3.5210 N   0  0  0  0  0  0  0  0  0  0  0  0
    3.2159   -3.0403   -1.3242 C   0  0  0  0  0  0  0  0  0  0  0  0
    2.0631   -3.2905   -0.5557 C   0  0  0  0  0  0  0  0  0  0  0  0
    1.1377   -2.2376   -0.1779 C   0  0  0  0  0  0  0  0  0  0  0  0
    0.0908   -2.7293    0.4949 N   0  0  0  0  0  0  0  0  0  0  0  0
    0.2587   -4.3085    0.6395 S   0  0  0  0  0  4  0  0  0  0  0  0
    1.6352   -4.4889   -0.1528 N   0  0  0  0  0  0  0  0  0  0  0  0
    1.3099   -0.8971   -0.5666 C   0  0  0  0  0  0  0  0  0  0  0  0
    2.4017   -0.6673   -1.4231 C   0  0  0  0  0  0  0  0  0  0  0  0
    2.7573    0.5065   -1.9623 N   0  0  0  0  0  0  0  0  0  0  0  0
    4.0865    0.3077   -2.8285 S   0  0  0  0  0  0  0  0  0  0  0  0
    4.3105   -1.2565   -2.5758 N   0  0  0  0  0  0  0  0  0  0  0  0
    3.3313   -1.7168   -1.7924 C   0  0  0  0  0  0  0  0  0  0  0  0
    0.4181    0.1600   -0.1428 C   0  0  0  0  0  0  0  0  0  0  0  0
    0.0583    1.1975   -0.9886 C   0  0  0  0  0  0  0  0  0  0  0  0
   -0.8363    2.1968   -0.6124 C   0  0  0  0  0  0  0  0  0  0  0  0
   -1.4006    2.2564    0.6521 C   0  0  0  0  0  0  0  0  0  0  0  0
   -1.0439    1.2273    1.5600 C   0  0  0  0  0  0  0  0  0  0  0  0
   -1.4821    1.0569    2.8057 N   0  0  0  0  0  0  0  0  0  0  0  0
   -0.7800   -0.2458    3.4269 S   0  0  0  0  0  0  0  0  0  0  0  0
    0.0916   -0.6778    2.1537 N   0  0  0  0  0  0  0  0  0  0  0  0
   -0.1389    0.1792    1.1617 C   0  0  0  0  0  0  0  0  0  0  0  0
   -2.3080    3.3168    1.0281 C   0  0  0  0  0  0  0  0  0  0  0  0
   -3.2668    3.8295    0.1358 C   0  0  0  0  0  0  0  0  0  0  0  0
   -4.1783    4.9014    0.4868 C   0  0  0  0  0  0  0  0  0  0  0  0
   -5.0270    5.1655   -0.5106 N   0  0  0  0  0  0  0  0  0  0  0  0
   -4.7078    4.1950   -1.7479 S   0  0  0  0  0  4  0  0  0  0  0  0
   -3.4951    3.3813   -1.1048 N   0  0  0  0  0  0  0  0  0  0  0  0
   -4.1524    5.5322    1.7484 C   0  0  0  0  0  0  0  0  0  0  0  0
   -3.2165    4.9876    2.6529 C   0  0  0  0  0  0  0  0  0  0  0  0
   -3.0036    5.4239    3.8963 N   0  0  0  0  0  0  0  0  0  0  0  0
   -1.7813    4.6044    4.5312 S   0  0  0  0  0  0  0  0  0  0  0  0
   -1.4481    3.6589    3.2934 N   0  0  0  0  0  0  0  0  0  0  0  0
   -2.3008    3.9211    2.2962 C   0  0  0  0  0  0  0  0  0  0  0  0
   -4.9858    6.6096    2.1500 C   0  0  0  0  0  0  0  0  0  0  0  0
   -5.6726    7.4922    1.3760 C   0  0  0  0  0  0  0  0  0  0  0  0
   -6.7687    8.3055    1.9641 C   0  0  0  0  0  0  0  0  0  0  0  0
   -7.0022    8.4734    3.1349 O   0  0  0  0  0  0  0  0  0  0  0  0
   -7.5435    8.7996    0.7967 C   0  0  0  0  0  0  0  0  0  0  0  0
   -8.7629    9.4543    0.7734 C   0  0  0  0  0  0  0  0  0  0  0  0
   -9.5269    9.9606    2.2120 Cl  0  0  0  0  0  0  0  0  0  0  0  0
   -9.3677    9.6868   -0.4712 C   0  0  0  0  0  0  0  0  0  0  0  0
  -10.8605   10.5160   -0.5496 Cl  0  0  0  0  0  0  0  0  0  0  0  0
   -8.7763    9.2094   -1.6404 C   0  0  0  0  0  0  0  0  0  0  0  0
   -9.5804    9.4197   -3.1346 Cl  0  0  0  0  0  0  0  0  0  0  0  0
   -7.5381    8.5485   -1.6106 C   0  0  0  0  0  0  0  0  0  0  0  0
   -6.9374    7.8465   -3.0538 Cl  0  0  0  0  0  0  0  0  0  0  0  0
   -6.8948    8.4019   -0.3906 C   0  0  0  0  0  0  0  0  0  0  0  0
   -5.6051    7.8155   -0.0335 C   0  0  0  0  0  0  0  0  0  0  0  0
   -4.4546    7.8741   -0.7715 C   0  0  0  0  0  0  0  0  0  0  0  0
   -4.3052    8.4932   -2.0307 C   0  0  0  0  0  0  0  0  0  0  0  0
   -4.0666    9.0224   -3.0203 N   0  0  0  0  0  0  0  0  0  0  0  0
   -3.2045    7.4393   -0.2817 C   0  0  0  0  0  0  0  0  0  0  0  0
   -2.1631    7.0983    0.0600 N   0  0  0  0  0  0  0  0  0  0  0  0
    4.6284   -3.8591   -2.6705 H   0  0  0  0  0  0  0  0  0  0  0  0
    4.7182   -6.6208    2.9796 H   0  0  0  0  0  0  0  0  0  0  0  0
    6.0049   -8.7357    3.1796 H   0  0  0  0  0  0  0  0  0  0  0  0
    6.5758  -10.9665    1.0837 H   0  0  0  0  0  0  0  0  0  0  0  0
    8.0339  -10.1876    0.4800 H   0  0  0  0  0  0  0  0  0  0  0  0
    7.6936  -10.2154    2.2197 H   0  0  0  0  0  0  0  0  0  0  0  0
    6.8290   -8.6974   -1.0075 H   0  0  0  0  0  0  0  0  0  0  0  0
    0.4739    1.2200   -1.9832 H   0  0  0  0  0  0  0  0  0  0  0  0
   -1.0831    2.9686   -1.3238 H   0  0  0  0  0  0  0  0  0  0  0  0
   -5.1209    6.7124    3.2215 H   0  0  0  0  0  0  0  0  0  0  0  0
  1  2  2  0  0  0  0
  2  3  1  0  0  0  0
  3  4  2  0  0  0  0
  3  5  1  0  0  0  0
  5  6  2  0  0  0  0
  6  7  1  0  0  0  0
  7  8  2  0  0  0  0
  8  9  1  0  0  0  0
  8 10  1  0  0  0  0
 10 11  2  0  0  0  0
 11 12  1  0  0  0  0
 12 13  2  0  0  0  0
 13 14  1  0  0  0  0
 14 15  3  0  0  0  0
 13 16  1  0  0  0  0
 16 17  3  0  0  0  0
  1 18  1  0  0  0  0
 18 19  2  0  0  0  0
 19 20  1  0  0  0  0
 20 21  1  0  0  0  0
 21 22  2  0  0  0  0
 22 23  2  0  0  0  0
 20 24  2  0  0  0  0
 24 25  1  0  0  0  0
 25 26  2  0  0  0  0
 26 27  1  0  0  0  0
 27 28  1  0  0  0  0
 28 29  2  0  0  0  0
 24 30  1  0  0  0  0
 30 31  2  0  0  0  0
 31 32  1  0  0  0  0
 32 33  2  0  0  0  0
 33 34  1  0  0  0  0
 34 35  2  0  0  0  0
 35 36  1  0  0  0  0
 36 37  1  0  0  0  0
 37 38  2  0  0  0  0
 33 39  1  0  0  0  0
 39 40  2  0  0  0  0
 40 41  1  0  0  0  0
 41 42  1  0  0  0  0
 42 43  2  0  0  0  0
 43 44  2  0  0  0  0
 41 45  2  0  0  0  0
 45 46  1  0  0  0  0
 46 47  2  0  0  0  0
 47 48  1  0  0  0  0
 48 49  1  0  0  0  0
 49 50  2  0  0  0  0
 45 51  1  0  0  0  0
 51 52  2  0  0  0  0
 52 53  1  0  0  0  0
 53 54  2  0  0  0  0
 53 55  1  0  0  0  0
 55 56  2  0  0  0  0
 56 57  1  0  0  0  0
 56 58  1  0  0  0  0
 58 59  1  0  0  0  0
 58 60  2  0  0  0  0
 60 61  1  0  0  0  0
 60 62  1  0  0  0  0
 62 63  1  0  0  0  0
 62 64  2  0  0  0  0
 64 65  1  0  0  0  0
 65 66  2  0  0  0  0
 66 67  1  0  0  0  0
 67 68  3  0  0  0  0
 66 69  1  0  0  0  0
 69 70  3  0  0  0  0
 12  2  1  0  0  0  0
 29 18  1  0  0  0  0
 38 30  1  0  0  0  0
 50 39  1  0  0  0  0
 65 52  1  0  0  0  0
 11  5  1  0  0  0  0
 23 19  1  0  0  0  0
 29 25  1  0  0  0  0
 38 34  1  0  0  0  0
 44 40  1  0  0  0  0
 50 46  1  0  0  0  0
 64 55  1  0  0  0  0
  1 71  1  0  0  0  0
  6 72  1  0  0  0  0
  7 73  1  0  0  0  0
  9 74  1  0  0  0  0
  9 75  1  0  0  0  0
  9 76  1  0  0  0  0
 10 77  1  0  0  0  0
 31 78  1  0  0  0  0
 32 79  1  0  0  0  0
 51 80  1  0  0  0  0
M  END
