
  xtb     02032220403D
 energy: -348.788849877477 gnorm: 0.000912026338 xtb: 6.4.1 (unknown)
199218  0     0  0            999 V2000
   -8.7381    7.9935    0.1703 C   0  0  0  0  0  0  0  0  0  0  0  0
   -9.1933    8.9541   -0.6909 C   0  0  0  0  0  0  0  0  0  0  0  0
   -8.7159    9.2892   -2.0556 C   0  0  0  0  0  0  0  0  0  0  0  0
   -7.8110    8.7905   -2.6946 O   0  0  0  0  0  0  0  0  0  0  0  0
   -9.5838   10.3818   -2.5250 C   0  0  0  0  0  0  0  0  0  0  0  0
   -9.5536   11.0465   -3.7365 C   0  0  0  0  0  0  0  0  0  0  0  0
  -10.4790   12.0520   -3.9582 C   0  0  0  0  0  0  0  0  0  0  0  0
  -11.4224   12.3919   -2.9894 C   0  0  0  0  0  0  0  0  0  0  0  0
  -12.3969   13.4959   -3.2522 C   0  0  0  0  0  0  0  0  0  0  0  0
  -11.4456   11.7150   -1.7719 C   0  0  0  0  0  0  0  0  0  0  0  0
  -10.5249   10.7069   -1.5360 C   0  0  0  0  0  0  0  0  0  0  0  0
  -10.3070    9.8401   -0.3795 C   0  0  0  0  0  0  0  0  0  0  0  0
  -11.0362    9.8953    0.7797 C   0  0  0  0  0  0  0  0  0  0  0  0
  -10.8638    9.1034    1.9358 C   0  0  0  0  0  0  0  0  0  0  0  0
  -10.8164    8.5257    2.9280 N   0  0  0  0  0  0  0  0  0  0  0  0
  -12.1045   10.7914    1.0010 C   0  0  0  0  0  0  0  0  0  0  0  0
  -12.9823   11.4856    1.2581 N   0  0  0  0  0  0  0  0  0  0  0  0
   -7.6763    7.0681    0.0807 C   0  0  0  0  0  0  0  0  0  0  0  0
   -6.7227    6.8345   -0.8817 C   0  0  0  0  0  0  0  0  0  0  0  0
   -5.8159    5.8116   -0.5519 C   0  0  0  0  0  0  0  0  0  0  0  0
   -4.7152    5.3521   -1.3166 C   0  0  0  0  0  0  0  0  0  0  0  0
   -4.3299    5.9652   -2.5683 C   0  0  0  0  0  0  0  0  0  0  0  0
   -3.8407    5.3487   -3.6878 C   0  0  0  0  0  0  0  0  0  0  0  0
   -3.5301    6.2437   -4.7291 C   0  0  0  0  0  0  0  0  0  0  0  0
   -3.7628    7.5480   -4.4113 C   0  0  0  0  0  0  0  0  0  0  0  0
   -3.5689    8.7821   -5.2275 C   0  0  0  0  0  0  0  0  0  0  0  0
   -3.1313    8.4962   -6.6590 C   0  0  0  0  0  0  0  0  0  0  0  0
   -4.3869    7.6910   -2.8034 S   0  0  0  0  0  0  0  0  0  0  0  0
   -4.0152    4.2731   -0.7936 C   0  0  0  0  0  0  0  0  0  0  0  0
   -4.3375    3.6617    0.4437 C   0  0  0  0  0  0  0  0  0  0  0  0
   -5.3869    4.1624    1.2400 C   0  0  0  0  0  0  0  0  0  0  0  0
   -5.6377    3.6143    2.5569 C   0  0  0  0  0  0  0  0  0  0  0  0
   -4.7129    3.2685    3.5033 C   0  0  0  0  0  0  0  0  0  0  0  0
   -5.2903    2.7693    4.6856 C   0  0  0  0  0  0  0  0  0  0  0  0
   -6.6501    2.7222    4.6485 C   0  0  0  0  0  0  0  0  0  0  0  0
   -7.5891    2.2155    5.6875 C   0  0  0  0  0  0  0  0  0  0  0  0
   -8.2327    0.8960    5.2566 C   0  0  0  0  0  0  0  0  0  0  0  0
   -7.2508    3.3152    3.1364 S   0  0  0  0  0  0  0  0  0  0  0  0
   -6.1190    5.2129    0.7027 C   0  0  0  0  0  0  0  0  0  0  0  0
   -7.4777    5.9830    1.4575 S   0  0  0  0  0  0  0  0  0  0  0  0
   -3.5132    2.5502    0.7131 C   0  0  0  0  0  0  0  0  0  0  0  0
   -2.5616    2.3151   -0.2421 C   0  0  0  0  0  0  0  0  0  0  0  0
   -2.6329    3.4996   -1.5295 S   0  0  0  0  0  0  0  0  0  0  0  0
   -1.5938    1.2748   -0.1763 C   0  0  0  0  0  0  0  0  0  0  0  0
   -0.7512    0.7253   -1.1333 C   0  0  0  0  0  0  0  0  0  0  0  0
   -0.6897    1.0415   -2.4806 N   0  0  0  0  0  0  0  0  0  0  0  0
   -1.8401    1.2144   -3.2559 C   0  0  0  0  0  0  0  0  0  0  0  0
   -1.7882    2.0143   -4.3954 C   0  0  0  0  0  0  0  0  0  0  0  0
   -2.9179    2.2275   -5.1599 C   0  0  0  0  0  0  0  0  0  0  0  0
   -4.1284    1.6548   -4.7897 C   0  0  0  0  0  0  0  0  0  0  0  0
   -5.6435    1.8869   -5.6657 S   0  0  0  0  0  0  0  0  0  0  0  0
   -5.2924    3.2807   -6.7754 C   0  0  0  0  0  0  0  0  0  0  0  0
   -4.1783    0.8336   -3.6649 C   0  0  0  0  0  0  0  0  0  0  0  0
   -3.0488    0.6073   -2.9118 C   0  0  0  0  0  0  0  0  0  0  0  0
    0.5619    0.8709   -3.1009 C   0  0  0  0  0  0  0  0  0  0  0  0
    0.6982    0.1234   -4.2702 C   0  0  0  0  0  0  0  0  0  0  0  0
    1.9519   -0.1606   -4.7646 C   0  0  0  0  0  0  0  0  0  0  0  0
    3.0920    0.2927   -4.1049 C   0  0  0  0  0  0  0  0  0  0  0  0
    4.6583   -0.2161   -4.7427 S   0  0  0  0  0  0  0  0  0  0  0  0
    5.7406   -0.0835   -3.2902 C   0  0  0  0  0  0  0  0  0  0  0  0
    2.9579    1.1067   -2.9885 C   0  0  0  0  0  0  0  0  0  0  0  0
    1.7014    1.3930   -2.4933 C   0  0  0  0  0  0  0  0  0  0  0  0
    0.0734   -0.2745   -0.5558 C   0  0  0  0  0  0  0  0  0  0  0  0
    1.3271   -1.2814   -1.1735 S   0  0  0  0  0  0  0  0  0  0  0  0
    1.5457   -2.0361    0.4029 C   0  0  0  0  0  0  0  0  0  0  0  0
    0.6769   -1.5213    1.3613 C   0  0  0  0  0  0  0  0  0  0  0  0
    0.5716   -1.8709    2.6958 N   0  0  0  0  0  0  0  0  0  0  0  0
    1.6650   -2.2016    3.4983 C   0  0  0  0  0  0  0  0  0  0  0  0
    1.4861   -3.0642    4.5839 C   0  0  0  0  0  0  0  0  0  0  0  0
    2.5522   -3.4161    5.3787 C   0  0  0  0  0  0  0  0  0  0  0  0
    3.8282   -2.9299    5.1041 C   0  0  0  0  0  0  0  0  0  0  0  0
    5.1308   -3.4274    6.1875 S   0  0  0  0  0  0  0  0  0  0  0  0
    6.6124   -3.2296    5.1587 C   0  0  0  0  0  0  0  0  0  0  0  0
    4.0117   -2.0667    4.0334 C   0  0  0  0  0  0  0  0  0  0  0  0
    2.9402   -1.7037    3.2407 C   0  0  0  0  0  0  0  0  0  0  0  0
   -0.7001   -1.7336    3.2900 C   0  0  0  0  0  0  0  0  0  0  0  0
   -0.8531   -1.0716    4.5038 C   0  0  0  0  0  0  0  0  0  0  0  0
   -2.1077   -0.8869    5.0505 C   0  0  0  0  0  0  0  0  0  0  0  0
   -3.2329   -1.3611    4.3884 C   0  0  0  0  0  0  0  0  0  0  0  0
   -4.8846   -1.1289    4.9597 S   0  0  0  0  0  0  0  0  0  0  0  0
   -4.6774   -0.5893    6.6813 C   0  0  0  0  0  0  0  0  0  0  0  0
   -3.0814   -2.0452    3.1838 C   0  0  0  0  0  0  0  0  0  0  0  0
   -1.8298   -2.2345    2.6425 C   0  0  0  0  0  0  0  0  0  0  0  0
   -0.1512   -0.5200    0.7863 C   0  0  0  0  0  0  0  0  0  0  0  0
   -1.3942    0.5114    1.4023 S   0  0  0  0  0  0  0  0  0  0  0  0
    2.6008   -2.9891    0.4655 C   0  0  0  0  0  0  0  0  0  0  0  0
    2.8864   -3.9740    1.3684 C   0  0  0  0  0  0  0  0  0  0  0  0
    4.0719   -4.6897    1.0763 C   0  0  0  0  0  0  0  0  0  0  0  0
    4.6832   -5.6986    1.8481 C   0  0  0  0  0  0  0  0  0  0  0  0
    4.0892   -6.1617    3.0846 C   0  0  0  0  0  0  0  0  0  0  0  0
    2.7789   -6.4227    3.3681 C   0  0  0  0  0  0  0  0  0  0  0  0
    2.5607   -6.8019    4.7078 C   0  0  0  0  0  0  0  0  0  0  0  0
    3.6964   -6.8262    5.4568 C   0  0  0  0  0  0  0  0  0  0  0  0
    3.8881   -7.1200    6.9059 C   0  0  0  0  0  0  0  0  0  0  0  0
    2.5946   -7.4920    7.6199 C   0  0  0  0  0  0  0  0  0  0  0  0
    5.0764   -6.4054    4.4989 S   0  0  0  0  0  0  0  0  0  0  0  0
    5.8983   -6.1839    1.3790 C   0  0  0  0  0  0  0  0  0  0  0  0
    6.5183   -5.7293    0.1835 C   0  0  0  0  0  0  0  0  0  0  0  0
    5.8967   -4.7288   -0.6000 C   0  0  0  0  0  0  0  0  0  0  0  0
    6.4399   -4.2372   -1.8471 C   0  0  0  0  0  0  0  0  0  0  0  0
    5.7439   -3.9005   -2.9763 C   0  0  0  0  0  0  0  0  0  0  0  0
    6.5582   -3.4103   -4.0137 C   0  0  0  0  0  0  0  0  0  0  0  0
    7.8778   -3.3482   -3.6859 C   0  0  0  0  0  0  0  0  0  0  0  0
    9.0193   -2.8844   -4.5220 C   0  0  0  0  0  0  0  0  0  0  0  0
   10.0286   -4.0065   -4.7627 C   0  0  0  0  0  0  0  0  0  0  0  0
    8.1421   -3.9306   -2.0738 S   0  0  0  0  0  0  0  0  0  0  0  0
    4.6917   -4.2388   -0.1157 C   0  0  0  0  0  0  0  0  0  0  0  0
    3.7851   -2.9360   -0.8310 S   0  0  0  0  0  0  0  0  0  0  0  0
    7.6998   -6.4359   -0.0969 C   0  0  0  0  0  0  0  0  0  0  0  0
    7.9985   -7.4140    0.8239 C   0  0  0  0  0  0  0  0  0  0  0  0
    6.8222   -7.4510    2.1249 S   0  0  0  0  0  0  0  0  0  0  0  0
    9.0853   -8.3109    0.8807 C   0  0  0  0  0  0  0  0  0  0  0  0
   10.0225   -8.6173   -0.0607 C   0  0  0  0  0  0  0  0  0  0  0  0
   11.2547   -9.3235    0.3674 C   0  0  0  0  0  0  0  0  0  0  0  0
   11.4434   -9.8762    1.4236 O   0  0  0  0  0  0  0  0  0  0  0  0
   12.2114   -9.1435   -0.7519 C   0  0  0  0  0  0  0  0  0  0  0  0
   13.5539   -9.4755   -0.8059 C   0  0  0  0  0  0  0  0  0  0  0  0
   14.3078  -10.3347    0.4604 Cl  0  0  0  0  0  0  0  0  0  0  0  0
   14.2907   -9.0799   -1.9319 C   0  0  0  0  0  0  0  0  0  0  0  0
   15.9456   -9.4907   -2.0549 Cl  0  0  0  0  0  0  0  0  0  0  0  0
   13.6861   -8.3209   -2.9323 C   0  0  0  0  0  0  0  0  0  0  0  0
   14.6260   -7.7721   -4.2520 Cl  0  0  0  0  0  0  0  0  0  0  0  0
   12.3232   -7.9885   -2.8717 C   0  0  0  0  0  0  0  0  0  0  0  0
   11.6857   -6.9274   -4.0573 Cl  0  0  0  0  0  0  0  0  0  0  0  0
   11.5713   -8.4545   -1.8029 C   0  0  0  0  0  0  0  0  0  0  0  0
   10.1468   -8.3480   -1.4791 C   0  0  0  0  0  0  0  0  0  0  0  0
    9.1101   -8.3543   -2.3738 C   0  0  0  0  0  0  0  0  0  0  0  0
    9.2069   -8.3852   -3.7812 C   0  0  0  0  0  0  0  0  0  0  0  0
    9.1652   -8.4618   -4.9257 N   0  0  0  0  0  0  0  0  0  0  0  0
    7.7619   -8.5166   -1.9833 C   0  0  0  0  0  0  0  0  0  0  0  0
    6.6534   -8.6722   -1.7321 N   0  0  0  0  0  0  0  0  0  0  0  0
   -9.2745    7.9116    1.1085 H   0  0  0  0  0  0  0  0  0  0  0  0
   -8.8214   10.7770   -4.4821 H   0  0  0  0  0  0  0  0  0  0  0  0
  -10.4758   12.5869   -4.8969 H   0  0  0  0  0  0  0  0  0  0  0  0
  -13.2131   13.4751   -2.5352 H   0  0  0  0  0  0  0  0  0  0  0  0
  -11.8941   14.4599   -3.1697 H   0  0  0  0  0  0  0  0  0  0  0  0
  -12.8043   13.4195   -4.2583 H   0  0  0  0  0  0  0  0  0  0  0  0
  -12.1819   11.9873   -1.0337 H   0  0  0  0  0  0  0  0  0  0  0  0
   -6.7039    7.3866   -1.8022 H   0  0  0  0  0  0  0  0  0  0  0  0
   -3.7401    4.2818   -3.7760 H   0  0  0  0  0  0  0  0  0  0  0  0
   -3.1404    5.9240   -5.6789 H   0  0  0  0  0  0  0  0  0  0  0  0
   -2.8232    9.4172   -4.7382 H   0  0  0  0  0  0  0  0  0  0  0  0
   -4.5077    9.3440   -5.2365 H   0  0  0  0  0  0  0  0  0  0  0  0
   -2.1742    7.9803   -6.6731 H   0  0  0  0  0  0  0  0  0  0  0  0
   -3.8687    7.8811   -7.1693 H   0  0  0  0  0  0  0  0  0  0  0  0
   -3.0249    9.4297   -7.2059 H   0  0  0  0  0  0  0  0  0  0  0  0
   -3.6545    3.4077    3.3715 H   0  0  0  0  0  0  0  0  0  0  0  0
   -4.7126    2.4687    5.5415 H   0  0  0  0  0  0  0  0  0  0  0  0
   -7.0365    2.0725    6.6189 H   0  0  0  0  0  0  0  0  0  0  0  0
   -8.3736    2.9549    5.8660 H   0  0  0  0  0  0  0  0  0  0  0  0
   -8.8187    1.0438    4.3527 H   0  0  0  0  0  0  0  0  0  0  0  0
   -8.8889    0.5226    6.0389 H   0  0  0  0  0  0  0  0  0  0  0  0
   -7.4685    0.1493    5.0515 H   0  0  0  0  0  0  0  0  0  0  0  0
   -3.6435    1.9084    1.5660 H   0  0  0  0  0  0  0  0  0  0  0  0
   -0.8556    2.4815   -4.6737 H   0  0  0  0  0  0  0  0  0  0  0  0
   -2.8435    2.8519   -6.0355 H   0  0  0  0  0  0  0  0  0  0  0  0
   -6.2429    3.5300   -7.2369 H   0  0  0  0  0  0  0  0  0  0  0  0
   -4.9308    4.1249   -6.1960 H   0  0  0  0  0  0  0  0  0  0  0  0
   -4.5806    2.9859   -7.5412 H   0  0  0  0  0  0  0  0  0  0  0  0
   -5.1162    0.3755   -3.3911 H   0  0  0  0  0  0  0  0  0  0  0  0
   -3.1019   -0.0345   -2.0453 H   0  0  0  0  0  0  0  0  0  0  0  0
   -0.1810   -0.2659   -4.7613 H   0  0  0  0  0  0  0  0  0  0  0  0
    2.0639   -0.7684   -5.6490 H   0  0  0  0  0  0  0  0  0  0  0  0
    5.2579   -0.5622   -2.4431 H   0  0  0  0  0  0  0  0  0  0  0  0
    5.9724    0.9570   -3.0817 H   0  0  0  0  0  0  0  0  0  0  0  0
    6.6498   -0.6175   -3.5482 H   0  0  0  0  0  0  0  0  0  0  0  0
    3.8235    1.5119   -2.4897 H   0  0  0  0  0  0  0  0  0  0  0  0
    1.5967    2.0063   -1.6100 H   0  0  0  0  0  0  0  0  0  0  0  0
    0.5044   -3.4642    4.7894 H   0  0  0  0  0  0  0  0  0  0  0  0
    2.4127   -4.0833    6.2146 H   0  0  0  0  0  0  0  0  0  0  0  0
    6.8856   -2.1810    5.0829 H   0  0  0  0  0  0  0  0  0  0  0  0
    7.4001   -3.7792    5.6642 H   0  0  0  0  0  0  0  0  0  0  0  0
    6.4283   -3.6637    4.1805 H   0  0  0  0  0  0  0  0  0  0  0  0
    4.9855   -1.6597    3.8118 H   0  0  0  0  0  0  0  0  0  0  0  0
    3.0921   -1.0147    2.4237 H   0  0  0  0  0  0  0  0  0  0  0  0
    0.0169   -0.6850    5.0137 H   0  0  0  0  0  0  0  0  0  0  0  0
   -2.1941   -0.3541    5.9836 H   0  0  0  0  0  0  0  0  0  0  0  0
   -4.2496    0.4080    6.7165 H   0  0  0  0  0  0  0  0  0  0  0  0
   -5.6762   -0.5745    7.1061 H   0  0  0  0  0  0  0  0  0  0  0  0
   -4.0572   -1.3025    7.2158 H   0  0  0  0  0  0  0  0  0  0  0  0
   -3.9578   -2.4223    2.6799 H   0  0  0  0  0  0  0  0  0  0  0  0
   -1.7167   -2.7654    1.7086 H   0  0  0  0  0  0  0  0  0  0  0  0
    2.2722   -4.1910    2.2193 H   0  0  0  0  0  0  0  0  0  0  0  0
    1.9976   -6.3887    2.6298 H   0  0  0  0  0  0  0  0  0  0  0  0
    1.5864   -7.0435    5.0914 H   0  0  0  0  0  0  0  0  0  0  0  0
    4.6115   -7.9342    7.0106 H   0  0  0  0  0  0  0  0  0  0  0  0
    4.3298   -6.2374    7.3808 H   0  0  0  0  0  0  0  0  0  0  0  0
    1.8746   -6.6792    7.5612 H   0  0  0  0  0  0  0  0  0  0  0  0
    2.1533   -8.3818    7.1771 H   0  0  0  0  0  0  0  0  0  0  0  0
    2.7973   -7.6944    8.6685 H   0  0  0  0  0  0  0  0  0  0  0  0
    4.6830   -4.0373   -3.0793 H   0  0  0  0  0  0  0  0  0  0  0  0
    6.1730   -3.1027   -4.9695 H   0  0  0  0  0  0  0  0  0  0  0  0
    9.5264   -2.0507   -4.0264 H   0  0  0  0  0  0  0  0  0  0  0  0
    8.6254   -2.5253   -5.4751 H   0  0  0  0  0  0  0  0  0  0  0  0
   10.4582   -4.3304   -3.8171 H   0  0  0  0  0  0  0  0  0  0  0  0
    9.5443   -4.8588   -5.2347 H   0  0  0  0  0  0  0  0  0  0  0  0
   10.8320   -3.6615   -5.4085 H   0  0  0  0  0  0  0  0  0  0  0  0
    8.3352   -6.2126   -0.9336 H   0  0  0  0  0  0  0  0  0  0  0  0
    9.2448   -8.7912    1.8415 H   0  0  0  0  0  0  0  0  0  0  0  0
  1  2  2  0  0  0  0
  2  3  1  0  0  0  0
  3  4  2  0  0  0  0
  3  5  1  0  0  0  0
  5  6  2  0  0  0  0
  6  7  1  0  0  0  0
  7  8  2  0  0  0  0
  8  9  1  0  0  0  0
  8 10  1  0  0  0  0
 10 11  2  0  0  0  0
 11 12  1  0  0  0  0
 12 13  2  0  0  0  0
 13 14  1  0  0  0  0
 14 15  3  0  0  0  0
 13 16  1  0  0  0  0
 16 17  3  0  0  0  0
  1 18  1  0  0  0  0
 18 19  2  0  0  0  0
 19 20  1  0  0  0  0
 20 21  2  0  0  0  0
 21 22  1  0  0  0  0
 22 23  2  0  0  0  0
 23 24  1  0  0  0  0
 24 25  2  0  0  0  0
 25 26  1  0  0  0  0
 26 27  1  0  0  0  0
 25 28  1  0  0  0  0
 21 29  1  0  0  0  0
 29 30  2  0  0  0  0
 30 31  1  0  0  0  0
 31 32  1  0  0  0  0
 32 33  2  0  0  0  0
 33 34  1  0  0  0  0
 34 35  2  0  0  0  0
 35 36  1  0  0  0  0
 36 37  1  0  0  0  0
 35 38  1  0  0  0  0
 31 39  2  0  0  0  0
 39 40  1  0  0  0  0
 30 41  1  0  0  0  0
 41 42  2  0  0  0  0
 42 43  1  0  0  0  0
 42 44  1  0  0  0  0
 44 45  2  0  0  0  0
 45 46  1  0  0  0  0
 46 47  1  0  0  0  0
 47 48  2  0  0  0  0
 48 49  1  0  0  0  0
 49 50  2  0  0  0  0
 50 51  1  0  0  0  0
 51 52  1  0  0  0  0
 50 53  1  0  0  0  0
 53 54  2  0  0  0  0
 46 55  1  0  0  0  0
 55 56  2  0  0  0  0
 56 57  1  0  0  0  0
 57 58  2  0  0  0  0
 58 59  1  0  0  0  0
 59 60  1  0  0  0  0
 58 61  1  0  0  0  0
 61 62  2  0  0  0  0
 45 63  1  0  0  0  0
 63 64  1  0  0  0  0
 64 65  1  0  0  0  0
 65 66  2  0  0  0  0
 66 67  1  0  0  0  0
 67 68  1  0  0  0  0
 68 69  2  0  0  0  0
 69 70  1  0  0  0  0
 70 71  2  0  0  0  0
 71 72  1  0  0  0  0
 72 73  1  0  0  0  0
 71 74  1  0  0  0  0
 74 75  2  0  0  0  0
 67 76  1  0  0  0  0
 76 77  2  0  0  0  0
 77 78  1  0  0  0  0
 78 79  2  0  0  0  0
 79 80  1  0  0  0  0
 80 81  1  0  0  0  0
 79 82  1  0  0  0  0
 82 83  2  0  0  0  0
 66 84  1  0  0  0  0
 84 85  1  0  0  0  0
 65 86  1  0  0  0  0
 86 87  2  0  0  0  0
 87 88  1  0  0  0  0
 88 89  2  0  0  0  0
 89 90  1  0  0  0  0
 90 91  2  0  0  0  0
 91 92  1  0  0  0  0
 92 93  2  0  0  0  0
 93 94  1  0  0  0  0
 94 95  1  0  0  0  0
 93 96  1  0  0  0  0
 89 97  1  0  0  0  0
 97 98  2  0  0  0  0
 98 99  1  0  0  0  0
 99100  1  0  0  0  0
100101  2  0  0  0  0
101102  1  0  0  0  0
102103  2  0  0  0  0
103104  1  0  0  0  0
104105  1  0  0  0  0
103106  1  0  0  0  0
 99107  2  0  0  0  0
107108  1  0  0  0  0
 98109  1  0  0  0  0
109110  2  0  0  0  0
110111  1  0  0  0  0
110112  1  0  0  0  0
112113  2  0  0  0  0
113114  1  0  0  0  0
114115  2  0  0  0  0
114116  1  0  0  0  0
116117  2  0  0  0  0
117118  1  0  0  0  0
117119  1  0  0  0  0
119120  1  0  0  0  0
119121  2  0  0  0  0
121122  1  0  0  0  0
121123  1  0  0  0  0
123124  1  0  0  0  0
123125  2  0  0  0  0
125126  1  0  0  0  0
126127  2  0  0  0  0
127128  1  0  0  0  0
128129  3  0  0  0  0
127130  1  0  0  0  0
130131  3  0  0  0  0
 12  2  1  0  0  0  0
 40 18  1  0  0  0  0
 85 44  1  0  0  0  0
108 86  1  0  0  0  0
126113  1  0  0  0  0
 11  5  1  0  0  0  0
 39 20  1  0  0  0  0
 54 47  1  0  0  0  0
 62 55  1  0  0  0  0
 84 63  2  0  0  0  0
107 88  1  0  0  0  0
125116  1  0  0  0  0
 28 22  1  0  0  0  0
 43 29  1  0  0  0  0
 75 68  1  0  0  0  0
 83 76  1  0  0  0  0
 96 90  1  0  0  0  0
111 97  1  0  0  0  0
 38 32  1  0  0  0  0
106100  1  0  0  0  0
  1132  1  0  0  0  0
  6133  1  0  0  0  0
  7134  1  0  0  0  0
  9135  1  0  0  0  0
  9136  1  0  0  0  0
  9137  1  0  0  0  0
 10138  1  0  0  0  0
 19139  1  0  0  0  0
 23140  1  0  0  0  0
 24141  1  0  0  0  0
 26142  1  0  0  0  0
 26143  1  0  0  0  0
 27144  1  0  0  0  0
 27145  1  0  0  0  0
 27146  1  0  0  0  0
 33147  1  0  0  0  0
 34148  1  0  0  0  0
 36149  1  0  0  0  0
 36150  1  0  0  0  0
 37151  1  0  0  0  0
 37152  1  0  0  0  0
 37153  1  0  0  0  0
 41154  1  0  0  0  0
 48155  1  0  0  0  0
 49156  1  0  0  0  0
 52157  1  0  0  0  0
 52158  1  0  0  0  0
 52159  1  0  0  0  0
 53160  1  0  0  0  0
 54161  1  0  0  0  0
 56162  1  0  0  0  0
 57163  1  0  0  0  0
 60164  1  0  0  0  0
 60165  1  0  0  0  0
 60166  1  0  0  0  0
 61167  1  0  0  0  0
 62168  1  0  0  0  0
 69169  1  0  0  0  0
 70170  1  0  0  0  0
 73171  1  0  0  0  0
 73172  1  0  0  0  0
 73173  1  0  0  0  0
 74174  1  0  0  0  0
 75175  1  0  0  0  0
 77176  1  0  0  0  0
 78177  1  0  0  0  0
 81178  1  0  0  0  0
 81179  1  0  0  0  0
 81180  1  0  0  0  0
 82181  1  0  0  0  0
 83182  1  0  0  0  0
 87183  1  0  0  0  0
 91184  1  0  0  0  0
 92185  1  0  0  0  0
 94186  1  0  0  0  0
 94187  1  0  0  0  0
 95188  1  0  0  0  0
 95189  1  0  0  0  0
 95190  1  0  0  0  0
101191  1  0  0  0  0
102192  1  0  0  0  0
104193  1  0  0  0  0
104194  1  0  0  0  0
105195  1  0  0  0  0
105196  1  0  0  0  0
105197  1  0  0  0  0
109198  1  0  0  0  0
112199  1  0  0  0  0
M  END
