
  xtb     02032222423D
 energy: -335.784845408831 gnorm: 0.000913907808 xtb: 6.4.1 (unknown)
202221  0     0  0            999 V2000
   -9.8894   -4.8367    2.3282 C   0  0  0  0  0  0  0  0  0  0  0  0
  -10.1668   -5.8547    3.1971 C   0  0  0  0  0  0  0  0  0  0  0  0
   -9.5517   -6.1076    4.5240 C   0  0  0  0  0  0  0  0  0  0  0  0
   -8.5592   -5.6039    5.0079 O   0  0  0  0  0  0  0  0  0  0  0  0
  -10.4456   -7.0738    5.1887 C   0  0  0  0  0  0  0  0  0  0  0  0
  -10.3601   -7.5960    6.4655 C   0  0  0  0  0  0  0  0  0  0  0  0
  -11.3322   -8.4931    6.8752 C   0  0  0  0  0  0  0  0  0  0  0  0
  -12.3804   -8.8629    6.0327 C   0  0  0  0  0  0  0  0  0  0  0  0
  -13.4175   -9.8254    6.5179 C   0  0  0  0  0  0  0  0  0  0  0  0
  -12.4589   -8.3329    4.7468 C   0  0  0  0  0  0  0  0  0  0  0  0
  -11.4889   -7.4405    4.3222 C   0  0  0  0  0  0  0  0  0  0  0  0
  -11.2969   -6.7528    3.0497 C   0  0  0  0  0  0  0  0  0  0  0  0
  -11.9854   -7.0009    1.8905 C   0  0  0  0  0  0  0  0  0  0  0  0
  -13.0767   -7.8886    1.7959 C   0  0  0  0  0  0  0  0  0  0  0  0
  -13.9771   -8.5882    1.6606 N   0  0  0  0  0  0  0  0  0  0  0  0
  -11.6588   -6.4556    0.6305 C   0  0  0  0  0  0  0  0  0  0  0  0
  -11.4239   -6.0869   -0.4318 N   0  0  0  0  0  0  0  0  0  0  0  0
   -8.7790   -3.9684    2.2867 C   0  0  0  0  0  0  0  0  0  0  0  0
   -7.5265   -4.0766    2.8388 C   0  0  0  0  0  0  0  0  0  0  0  0
   -6.6509   -3.0377    2.4739 C   0  0  0  0  0  0  0  0  0  0  0  0
   -5.2986   -2.8814    2.8580 C   0  0  0  0  0  0  0  0  0  0  0  0
   -4.6974   -3.7683    3.8247 C   0  0  0  0  0  0  0  0  0  0  0  0
   -5.2607   -4.3032    4.9531 C   0  0  0  0  0  0  0  0  0  0  0  0
   -4.3820   -5.1349    5.6706 C   0  0  0  0  0  0  0  0  0  0  0  0
   -3.1529   -5.2540    5.0951 C   0  0  0  0  0  0  0  0  0  0  0  0
   -1.9702   -6.0183    5.5798 C   0  0  0  0  0  0  0  0  0  0  0  0
   -0.8907   -5.0788    6.1214 C   0  0  0  0  0  0  0  0  0  0  0  0
   -3.0500   -4.3097    3.6477 S   0  0  0  0  0  0  0  0  0  0  0  0
   -4.6003   -1.8585    2.2293 C   0  0  0  0  0  0  0  0  0  0  0  0
   -5.1920   -0.9684    1.3006 C   0  0  0  0  0  0  0  0  0  0  0  0
   -6.5625   -1.0660    0.9879 C   0  0  0  0  0  0  0  0  0  0  0  0
   -7.1835   -0.1252    0.0791 C   0  0  0  0  0  0  0  0  0  0  0  0
   -6.9996    1.2272    0.0136 C   0  0  0  0  0  0  0  0  0  0  0  0
   -7.7546    1.8463   -1.0026 C   0  0  0  0  0  0  0  0  0  0  0  0
   -8.5097    0.9749   -1.7248 C   0  0  0  0  0  0  0  0  0  0  0  0
   -9.4505    1.2609   -2.8432 C   0  0  0  0  0  0  0  0  0  0  0  0
  -10.9056    1.1360   -2.3869 C   0  0  0  0  0  0  0  0  0  0  0  0
   -8.3111   -0.6444   -1.1422 S   0  0  0  0  0  0  0  0  0  0  0  0
   -7.2493   -2.1249    1.5655 C   0  0  0  0  0  0  0  0  0  0  0  0
   -8.9091   -2.5418    1.2617 S   0  0  0  0  0  0  0  0  0  0  0  0
   -4.2340   -0.1164    0.7031 C   0  0  0  0  0  0  0  0  0  0  0  0
   -2.9633   -0.3261    1.1482 C   0  0  0  0  0  0  0  0  0  0  0  0
   -2.8988   -1.5303    2.4176 S   0  0  0  0  0  0  0  0  0  0  0  0
   -1.7579    0.1811    0.5671 C   0  0  0  0  0  0  0  0  0  0  0  0
   -1.4605    0.2147   -0.7876 C   0  0  0  0  0  0  0  0  0  0  0  0
   -2.2651   -0.2743   -1.8021 N   0  0  0  0  0  0  0  0  0  0  0  0
   -3.1089   -1.3765   -1.5863 C   0  0  0  0  0  0  0  0  0  0  0  0
   -4.3932   -1.3913   -2.1231 C   0  0  0  0  0  0  0  0  0  0  0  0
   -5.2669   -2.4236   -1.8422 C   0  0  0  0  0  0  0  0  0  0  0  0
   -4.8765   -3.4541   -0.9985 C   0  0  0  0  0  0  0  0  0  0  0  0
   -5.9392   -4.7616   -0.4739 S   0  0  0  0  0  0  0  0  0  0  0  0
   -7.4562   -4.5162   -1.4396 C   0  0  0  0  0  0  0  0  0  0  0  0
   -3.5749   -3.4698   -0.4988 C   0  0  0  0  0  0  0  0  0  0  0  0
   -2.6971   -2.4531   -0.7994 C   0  0  0  0  0  0  0  0  0  0  0  0
   -2.2214    0.3340   -3.0633 C   0  0  0  0  0  0  0  0  0  0  0  0
   -2.0838    1.7143   -3.1814 C   0  0  0  0  0  0  0  0  0  0  0  0
   -2.0058    2.3135   -4.4240 C   0  0  0  0  0  0  0  0  0  0  0  0
   -2.0730    1.5387   -5.5727 C   0  0  0  0  0  0  0  0  0  0  0  0
   -1.9828    2.1920   -7.2109 S   0  0  0  0  0  0  0  0  0  0  0  0
   -1.3893    3.8901   -6.9625 C   0  0  0  0  0  0  0  0  0  0  0  0
   -2.2387    0.1591   -5.4599 C   0  0  0  0  0  0  0  0  0  0  0  0
   -2.3088   -0.4381   -4.2227 C   0  0  0  0  0  0  0  0  0  0  0  0
   -0.1650    0.7533   -0.9972 C   0  0  0  0  0  0  0  0  0  0  0  0
    0.8086    1.0401   -2.3956 S   0  0  0  0  0  0  0  0  0  0  0  0
    2.1235    1.6325   -1.3878 C   0  0  0  0  0  0  0  0  0  0  0  0
    1.8334    1.5530   -0.0300 C   0  0  0  0  0  0  0  0  0  0  0  0
    2.6699    1.8490    1.0340 N   0  0  0  0  0  0  0  0  0  0  0  0
    2.0854    2.4438    2.1658 C   0  0  0  0  0  0  0  0  0  0  0  0
    1.1473    3.4600    2.0108 C   0  0  0  0  0  0  0  0  0  0  0  0
    0.5516    4.0462    3.1105 C   0  0  0  0  0  0  0  0  0  0  0  0
    0.8920    3.6260    4.3884 C   0  0  0  0  0  0  0  0  0  0  0  0
    0.2077    4.3043    5.8670 S   0  0  0  0  0  0  0  0  0  0  0  0
   -1.1691    5.3299    5.2751 C   0  0  0  0  0  0  0  0  0  0  0  0
    1.8405    2.6166    4.5483 C   0  0  0  0  0  0  0  0  0  0  0  0
    2.4287    2.0283    3.4523 C   0  0  0  0  0  0  0  0  0  0  0  0
    4.0430    1.5836    1.0186 C   0  0  0  0  0  0  0  0  0  0  0  0
    4.5762    0.5478    0.2561 C   0  0  0  0  0  0  0  0  0  0  0  0
    5.9431    0.3655    0.1630 C   0  0  0  0  0  0  0  0  0  0  0  0
    6.8075    1.2018    0.8551 C   0  0  0  0  0  0  0  0  0  0  0  0
    8.5671    1.1159    0.7660 S   0  0  0  0  0  0  0  0  0  0  0  0
    8.8876   -0.4643   -0.0618 C   0  0  0  0  0  0  0  0  0  0  0  0
    6.2768    2.2044    1.6654 C   0  0  0  0  0  0  0  0  0  0  0  0
    4.9185    2.4021    1.7379 C   0  0  0  0  0  0  0  0  0  0  0  0
    0.5130    1.0728    0.1668 C   0  0  0  0  0  0  0  0  0  0  0  0
   -0.4260    0.7188    1.5750 S   0  0  0  0  0  0  0  0  0  0  0  0
    3.3228    2.0739   -2.0147 C   0  0  0  0  0  0  0  0  0  0  0  0
    4.2758    2.9069   -1.5036 C   0  0  0  0  0  0  0  0  0  0  0  0
    5.4394    3.0055   -2.2983 C   0  0  0  0  0  0  0  0  0  0  0  0
    6.6432    3.6697   -1.9835 C   0  0  0  0  0  0  0  0  0  0  0  0
    6.8208    4.4314   -0.7650 C   0  0  0  0  0  0  0  0  0  0  0  0
    7.9379    4.5226    0.0181 C   0  0  0  0  0  0  0  0  0  0  0  0
    7.7753    5.3676    1.1332 C   0  0  0  0  0  0  0  0  0  0  0  0
    6.5454    5.9443    1.2055 C   0  0  0  0  0  0  0  0  0  0  0  0
    6.0011    6.8571    2.2498 C   0  0  0  0  0  0  0  0  0  0  0  0
    4.9578    6.1530    3.1206 C   0  0  0  0  0  0  0  0  0  0  0  0
    5.5509    5.4357   -0.1183 S   0  0  0  0  0  0  0  0  0  0  0  0
    7.6755    3.5200   -2.9026 C   0  0  0  0  0  0  0  0  0  0  0  0
    7.5387    2.8324   -4.1350 C   0  0  0  0  0  0  0  0  0  0  0  0
    6.3251    2.1885   -4.4569 C   0  0  0  0  0  0  0  0  0  0  0  0
    6.1139    1.5001   -5.7127 C   0  0  0  0  0  0  0  0  0  0  0  0
    5.4462    0.3279   -5.9352 C   0  0  0  0  0  0  0  0  0  0  0  0
    5.3686   -0.0217   -7.2969 C   0  0  0  0  0  0  0  0  0  0  0  0
    5.9615    0.8810   -8.1252 C   0  0  0  0  0  0  0  0  0  0  0  0
    6.0236    0.8750   -9.6133 C   0  0  0  0  0  0  0  0  0  0  0  0
    4.9817    1.8243  -10.2100 C   0  0  0  0  0  0  0  0  0  0  0  0
    6.6459    2.1913   -7.2227 S   0  0  0  0  0  0  0  0  0  0  0  0
    5.3255    2.2537   -3.4936 C   0  0  0  0  0  0  0  0  0  0  0  0
    3.7815    1.4494   -3.5867 S   0  0  0  0  0  0  0  0  0  0  0  0
    8.7362    2.8477   -4.8847 C   0  0  0  0  0  0  0  0  0  0  0  0
    9.7764    3.4720   -4.2544 C   0  0  0  0  0  0  0  0  0  0  0  0
    9.2832    4.1554   -2.7139 S   0  0  0  0  0  0  0  0  0  0  0  0
   11.1125    3.6046   -4.7260 C   0  0  0  0  0  0  0  0  0  0  0  0
   12.2365    3.7037   -3.9735 C   0  0  0  0  0  0  0  0  0  0  0  0
   13.4968    4.2627   -4.5418 C   0  0  0  0  0  0  0  0  0  0  0  0
   13.7471    4.4405   -5.7117 O   0  0  0  0  0  0  0  0  0  0  0  0
   14.3249    4.5961   -3.3677 C   0  0  0  0  0  0  0  0  0  0  0  0
   15.5403    5.2512   -3.3075 C   0  0  0  0  0  0  0  0  0  0  0  0
   16.1145    5.4633   -2.0641 C   0  0  0  0  0  0  0  0  0  0  0  0
   15.4910    5.0381   -0.8921 C   0  0  0  0  0  0  0  0  0  0  0  0
   16.1159    5.3113    0.4389 C   0  0  0  0  0  0  0  0  0  0  0  0
   14.2682    4.3720   -0.9590 C   0  0  0  0  0  0  0  0  0  0  0  0
   13.6890    4.1468   -2.1943 C   0  0  0  0  0  0  0  0  0  0  0  0
   12.4643    3.4456   -2.5653 C   0  0  0  0  0  0  0  0  0  0  0  0
   11.8235    2.5024   -1.8073 C   0  0  0  0  0  0  0  0  0  0  0  0
   10.8415    1.6306   -2.3216 C   0  0  0  0  0  0  0  0  0  0  0  0
   10.1006    0.8510   -2.7245 N   0  0  0  0  0  0  0  0  0  0  0  0
   12.1486    2.2121   -0.4670 C   0  0  0  0  0  0  0  0  0  0  0  0
   12.3684    1.9389    0.6261 N   0  0  0  0  0  0  0  0  0  0  0  0
  -10.6288   -4.6345    1.5609 H   0  0  0  0  0  0  0  0  0  0  0  0
   -9.5492   -7.3061    7.1159 H   0  0  0  0  0  0  0  0  0  0  0  0
  -11.2844   -8.9182    7.8673 H   0  0  0  0  0  0  0  0  0  0  0  0
  -12.9492  -10.7489    6.8548 H   0  0  0  0  0  0  0  0  0  0  0  0
  -13.9573   -9.4011    7.3639 H   0  0  0  0  0  0  0  0  0  0  0  0
  -14.1309  -10.0602    5.7327 H   0  0  0  0  0  0  0  0  0  0  0  0
  -13.2753   -8.6187    4.1029 H   0  0  0  0  0  0  0  0  0  0  0  0
   -7.2335   -4.9114    3.4444 H   0  0  0  0  0  0  0  0  0  0  0  0
   -6.2604   -4.0836    5.2810 H   0  0  0  0  0  0  0  0  0  0  0  0
   -4.6566   -5.6340    6.5829 H   0  0  0  0  0  0  0  0  0  0  0  0
   -1.5521   -6.6081    4.7603 H   0  0  0  0  0  0  0  0  0  0  0  0
   -2.2920   -6.7039    6.3664 H   0  0  0  0  0  0  0  0  0  0  0  0
   -1.2812   -4.4915    6.9493 H   0  0  0  0  0  0  0  0  0  0  0  0
   -0.5601   -4.3972    5.3410 H   0  0  0  0  0  0  0  0  0  0  0  0
   -0.0348   -5.6496    6.4724 H   0  0  0  0  0  0  0  0  0  0  0  0
   -6.3741    1.7675    0.7019 H   0  0  0  0  0  0  0  0  0  0  0  0
   -7.7369    2.9055   -1.1912 H   0  0  0  0  0  0  0  0  0  0  0  0
   -9.2721    0.5609   -3.6633 H   0  0  0  0  0  0  0  0  0  0  0  0
   -9.2639    2.2727   -3.2096 H   0  0  0  0  0  0  0  0  0  0  0  0
  -11.1105    1.8356   -1.5795 H   0  0  0  0  0  0  0  0  0  0  0  0
  -11.1024    0.1280   -2.0290 H   0  0  0  0  0  0  0  0  0  0  0  0
  -11.5790    1.3503   -3.2128 H   0  0  0  0  0  0  0  0  0  0  0  0
   -4.4706    0.5959   -0.0654 H   0  0  0  0  0  0  0  0  0  0  0  0
   -4.7185   -0.5745   -2.7511 H   0  0  0  0  0  0  0  0  0  0  0  0
   -6.2573   -2.3961   -2.2657 H   0  0  0  0  0  0  0  0  0  0  0  0
   -7.2319   -4.5915   -2.4993 H   0  0  0  0  0  0  0  0  0  0  0  0
   -7.9071   -3.5580   -1.1986 H   0  0  0  0  0  0  0  0  0  0  0  0
   -8.1262   -5.3186   -1.1455 H   0  0  0  0  0  0  0  0  0  0  0  0
   -3.2647   -4.2867    0.1349 H   0  0  0  0  0  0  0  0  0  0  0  0
   -1.6913   -2.4771   -0.4074 H   0  0  0  0  0  0  0  0  0  0  0  0
   -2.0435    2.3259   -2.2916 H   0  0  0  0  0  0  0  0  0  0  0  0
   -1.9005    3.3850   -4.4790 H   0  0  0  0  0  0  0  0  0  0  0  0
   -0.4856    3.8752   -6.3607 H   0  0  0  0  0  0  0  0  0  0  0  0
   -1.1685    4.2714   -7.9546 H   0  0  0  0  0  0  0  0  0  0  0  0
   -2.1631    4.4975   -6.5014 H   0  0  0  0  0  0  0  0  0  0  0  0
   -2.2971   -0.4371   -6.3575 H   0  0  0  0  0  0  0  0  0  0  0  0
   -2.4199   -1.5089   -4.1414 H   0  0  0  0  0  0  0  0  0  0  0  0
    0.8868    3.7968    1.0176 H   0  0  0  0  0  0  0  0  0  0  0  0
   -0.1674    4.8341    2.9543 H   0  0  0  0  0  0  0  0  0  0  0  0
   -1.8324    4.7304    4.6588 H   0  0  0  0  0  0  0  0  0  0  0  0
   -0.7916    6.1906    4.7306 H   0  0  0  0  0  0  0  0  0  0  0  0
   -1.6915    5.6614    6.1671 H   0  0  0  0  0  0  0  0  0  0  0  0
    2.0990    2.2942    5.5451 H   0  0  0  0  0  0  0  0  0  0  0  0
    3.1524    1.2380    3.5816 H   0  0  0  0  0  0  0  0  0  0  0  0
    3.9166   -0.1157   -0.2829 H   0  0  0  0  0  0  0  0  0  0  0  0
    6.3208   -0.4265   -0.4636 H   0  0  0  0  0  0  0  0  0  0  0  0
    8.6286   -0.3942   -1.1145 H   0  0  0  0  0  0  0  0  0  0  0  0
    8.3398   -1.2564    0.4396 H   0  0  0  0  0  0  0  0  0  0  0  0
    9.9560   -0.6305    0.0378 H   0  0  0  0  0  0  0  0  0  0  0  0
    6.9497    2.8416    2.2176 H   0  0  0  0  0  0  0  0  0  0  0  0
    4.5250    3.2068    2.3399 H   0  0  0  0  0  0  0  0  0  0  0  0
    4.1448    3.4360   -0.5814 H   0  0  0  0  0  0  0  0  0  0  0  0
    8.8334    3.9552   -0.1562 H   0  0  0  0  0  0  0  0  0  0  0  0
    8.5507    5.5382    1.8589 H   0  0  0  0  0  0  0  0  0  0  0  0
    6.8265    7.2051    2.8743 H   0  0  0  0  0  0  0  0  0  0  0  0
    5.5404    7.7272    1.7748 H   0  0  0  0  0  0  0  0  0  0  0  0
    5.3987    5.2917    3.6178 H   0  0  0  0  0  0  0  0  0  0  0  0
    4.1228    5.8136    2.5106 H   0  0  0  0  0  0  0  0  0  0  0  0
    4.5780    6.8327    3.8792 H   0  0  0  0  0  0  0  0  0  0  0  0
    5.0547   -0.2872   -5.1456 H   0  0  0  0  0  0  0  0  0  0  0  0
    4.8882   -0.9167   -7.6504 H   0  0  0  0  0  0  0  0  0  0  0  0
    7.0188    1.1813   -9.9438 H   0  0  0  0  0  0  0  0  0  0  0  0
    5.8400   -0.1411   -9.9694 H   0  0  0  0  0  0  0  0  0  0  0  0
    5.1631    2.8425   -9.8723 H   0  0  0  0  0  0  0  0  0  0  0  0
    5.0306    1.8036  -11.2956 H   0  0  0  0  0  0  0  0  0  0  0  0
    3.9814    1.5303   -9.8999 H   0  0  0  0  0  0  0  0  0  0  0  0
    8.8569    2.3525   -5.8308 H   0  0  0  0  0  0  0  0  0  0  0  0
   11.2400    3.6989   -5.7996 H   0  0  0  0  0  0  0  0  0  0  0  0
   16.0231    5.5821   -4.2141 H   0  0  0  0  0  0  0  0  0  0  0  0
   17.0661    5.9703   -1.9968 H   0  0  0  0  0  0  0  0  0  0  0  0
   17.1996    5.3498    0.3614 H   0  0  0  0  0  0  0  0  0  0  0  0
   15.8353    4.5493    1.1617 H   0  0  0  0  0  0  0  0  0  0  0  0
   15.7709    6.2750    0.8157 H   0  0  0  0  0  0  0  0  0  0  0  0
   13.7843    4.0493   -0.0502 H   0  0  0  0  0  0  0  0  0  0  0  0
  1  2  2  0  0  0  0
  2  3  1  0  0  0  0
  3  4  2  0  0  0  0
  3  5  1  0  0  0  0
  5  6  2  0  0  0  0
  6  7  1  0  0  0  0
  7  8  2  0  0  0  0
  8  9  1  0  0  0  0
  8 10  1  0  0  0  0
 10 11  2  0  0  0  0
 11 12  1  0  0  0  0
 12 13  2  0  0  0  0
 13 14  1  0  0  0  0
 14 15  3  0  0  0  0
 13 16  1  0  0  0  0
 16 17  3  0  0  0  0
  1 18  1  0  0  0  0
 18 19  2  0  0  0  0
 19 20  1  0  0  0  0
 20 21  2  0  0  0  0
 21 22  1  0  0  0  0
 22 23  2  0  0  0  0
 23 24  1  0  0  0  0
 24 25  2  0  0  0  0
 25 26  1  0  0  0  0
 26 27  1  0  0  0  0
 25 28  1  0  0  0  0
 21 29  1  0  0  0  0
 29 30  2  0  0  0  0
 30 31  1  0  0  0  0
 31 32  1  0  0  0  0
 32 33  2  0  0  0  0
 33 34  1  0  0  0  0
 34 35  2  0  0  0  0
 35 36  1  0  0  0  0
 36 37  1  0  0  0  0
 35 38  1  0  0  0  0
 31 39  2  0  0  0  0
 39 40  1  0  0  0  0
 30 41  1  0  0  0  0
 41 42  2  0  0  0  0
 42 43  1  0  0  0  0
 42 44  1  0  0  0  0
 44 45  2  0  0  0  0
 45 46  1  0  0  0  0
 46 47  1  0  0  0  0
 47 48  2  0  0  0  0
 48 49  1  0  0  0  0
 49 50  2  0  0  0  0
 50 51  1  0  0  0  0
 51 52  1  0  0  0  0
 50 53  1  0  0  0  0
 53 54  2  0  0  0  0
 46 55  1  0  0  0  0
 55 56  2  0  0  0  0
 56 57  1  0  0  0  0
 57 58  2  0  0  0  0
 58 59  1  0  0  0  0
 59 60  1  0  0  0  0
 58 61  1  0  0  0  0
 61 62  2  0  0  0  0
 45 63  1  0  0  0  0
 63 64  1  0  0  0  0
 64 65  1  0  0  0  0
 65 66  2  0  0  0  0
 66 67  1  0  0  0  0
 67 68  1  0  0  0  0
 68 69  2  0  0  0  0
 69 70  1  0  0  0  0
 70 71  2  0  0  0  0
 71 72  1  0  0  0  0
 72 73  1  0  0  0  0
 71 74  1  0  0  0  0
 74 75  2  0  0  0  0
 67 76  1  0  0  0  0
 76 77  2  0  0  0  0
 77 78  1  0  0  0  0
 78 79  2  0  0  0  0
 79 80  1  0  0  0  0
 80 81  1  0  0  0  0
 79 82  1  0  0  0  0
 82 83  2  0  0  0  0
 66 84  1  0  0  0  0
 84 85  1  0  0  0  0
 65 86  1  0  0  0  0
 86 87  2  0  0  0  0
 87 88  1  0  0  0  0
 88 89  2  0  0  0  0
 89 90  1  0  0  0  0
 90 91  2  0  0  0  0
 91 92  1  0  0  0  0
 92 93  2  0  0  0  0
 93 94  1  0  0  0  0
 94 95  1  0  0  0  0
 93 96  1  0  0  0  0
 89 97  1  0  0  0  0
 97 98  2  0  0  0  0
 98 99  1  0  0  0  0
 99100  1  0  0  0  0
100101  2  0  0  0  0
101102  1  0  0  0  0
102103  2  0  0  0  0
103104  1  0  0  0  0
104105  1  0  0  0  0
103106  1  0  0  0  0
 99107  2  0  0  0  0
107108  1  0  0  0  0
 98109  1  0  0  0  0
109110  2  0  0  0  0
110111  1  0  0  0  0
110112  1  0  0  0  0
112113  2  0  0  0  0
113114  1  0  0  0  0
114115  2  0  0  0  0
114116  1  0  0  0  0
116117  2  0  0  0  0
117118  1  0  0  0  0
118119  2  0  0  0  0
119120  1  0  0  0  0
119121  1  0  0  0  0
121122  2  0  0  0  0
122123  1  0  0  0  0
123124  2  0  0  0  0
124125  1  0  0  0  0
125126  3  0  0  0  0
124127  1  0  0  0  0
127128  3  0  0  0  0
 12  2  1  0  0  0  0
 40 18  1  0  0  0  0
 85 44  1  0  0  0  0
108 86  1  0  0  0  0
123113  1  0  0  0  0
 11  5  1  0  0  0  0
 39 20  1  0  0  0  0
 54 47  1  0  0  0  0
 62 55  1  0  0  0  0
 84 63  2  0  0  0  0
107 88  1  0  0  0  0
122116  1  0  0  0  0
 28 22  1  0  0  0  0
 43 29  1  0  0  0  0
 75 68  1  0  0  0  0
 83 76  1  0  0  0  0
 96 90  1  0  0  0  0
111 97  1  0  0  0  0
 38 32  1  0  0  0  0
106100  1  0  0  0  0
  1129  1  0  0  0  0
  6130  1  0  0  0  0
  7131  1  0  0  0  0
  9132  1  0  0  0  0
  9133  1  0  0  0  0
  9134  1  0  0  0  0
 10135  1  0  0  0  0
 19136  1  0  0  0  0
 23137  1  0  0  0  0
 24138  1  0  0  0  0
 26139  1  0  0  0  0
 26140  1  0  0  0  0
 27141  1  0  0  0  0
 27142  1  0  0  0  0
 27143  1  0  0  0  0
 33144  1  0  0  0  0
 34145  1  0  0  0  0
 36146  1  0  0  0  0
 36147  1  0  0  0  0
 37148  1  0  0  0  0
 37149  1  0  0  0  0
 37150  1  0  0  0  0
 41151  1  0  0  0  0
 48152  1  0  0  0  0
 49153  1  0  0  0  0
 52154  1  0  0  0  0
 52155  1  0  0  0  0
 52156  1  0  0  0  0
 53157  1  0  0  0  0
 54158  1  0  0  0  0
 56159  1  0  0  0  0
 57160  1  0  0  0  0
 60161  1  0  0  0  0
 60162  1  0  0  0  0
 60163  1  0  0  0  0
 61164  1  0  0  0  0
 62165  1  0  0  0  0
 69166  1  0  0  0  0
 70167  1  0  0  0  0
 73168  1  0  0  0  0
 73169  1  0  0  0  0
 73170  1  0  0  0  0
 74171  1  0  0  0  0
 75172  1  0  0  0  0
 77173  1  0  0  0  0
 78174  1  0  0  0  0
 81175  1  0  0  0  0
 81176  1  0  0  0  0
 81177  1  0  0  0  0
 82178  1  0  0  0  0
 83179  1  0  0  0  0
 87180  1  0  0  0  0
 91181  1  0  0  0  0
 92182  1  0  0  0  0
 94183  1  0  0  0  0
 94184  1  0  0  0  0
 95185  1  0  0  0  0
 95186  1  0  0  0  0
 95187  1  0  0  0  0
101188  1  0  0  0  0
102189  1  0  0  0  0
104190  1  0  0  0  0
104191  1  0  0  0  0
105192  1  0  0  0  0
105193  1  0  0  0  0
105194  1  0  0  0  0
109195  1  0  0  0  0
112196  1  0  0  0  0
117197  1  0  0  0  0
118198  1  0  0  0  0
120199  1  0  0  0  0
120200  1  0  0  0  0
120201  1  0  0  0  0
121202  1  0  0  0  0
M  END
