
  xtb     02032220183D
 energy: -259.303434426406 gnorm: 0.000646997831 xtb: 6.4.1 (unknown)
140155  0     0  0            999 V2000
    4.4664    3.6879   -9.9742 C   0  0  0  0  0  0  0  0  0  0  0  0
    3.7728    4.2611  -10.9893 C   0  0  0  0  0  0  0  0  0  0  0  0
    4.4892    4.9985  -12.0707 C   0  0  0  0  0  0  0  0  0  0  0  0
    5.6707    4.9441  -12.3232 O   0  0  0  0  0  0  0  0  0  0  0  0
    3.4555    5.8383  -12.7030 C   0  0  0  0  0  0  0  0  0  0  0  0
    3.5890    6.8077  -13.6793 C   0  0  0  0  0  0  0  0  0  0  0  0
    2.4525    7.4774  -14.1033 C   0  0  0  0  0  0  0  0  0  0  0  0
    1.1981    7.1966  -13.5633 C   0  0  0  0  0  0  0  0  0  0  0  0
   -0.0058    7.9573  -14.0201 C   0  0  0  0  0  0  0  0  0  0  0  0
    1.0688    6.2157  -12.5816 C   0  0  0  0  0  0  0  0  0  0  0  0
    2.1943    5.5337  -12.1558 C   0  0  0  0  0  0  0  0  0  0  0  0
    2.3502    4.4369  -11.2051 C   0  0  0  0  0  0  0  0  0  0  0  0
    1.3666    3.5658  -10.8215 C   0  0  0  0  0  0  0  0  0  0  0  0
    1.6348    2.3381  -10.1775 C   0  0  0  0  0  0  0  0  0  0  0  0
    1.8232    1.3021   -9.7207 N   0  0  0  0  0  0  0  0  0  0  0  0
   -0.0006    3.7476  -11.1080 C   0  0  0  0  0  0  0  0  0  0  0  0
   -1.1274    3.8617  -11.2958 N   0  0  0  0  0  0  0  0  0  0  0  0
    3.9914    3.3092   -8.6893 C   0  0  0  0  0  0  0  0  0  0  0  0
    4.5861    2.4173   -7.8375 C   0  0  0  0  0  0  0  0  0  0  0  0
    3.8995    2.2420   -6.6156 C   0  0  0  0  0  0  0  0  0  0  0  0
    4.1906    1.3329   -5.5752 C   0  0  0  0  0  0  0  0  0  0  0  0
    5.3653    0.4885   -5.5797 C   0  0  0  0  0  0  0  0  0  0  0  0
    5.4778   -0.8036   -5.1447 C   0  0  0  0  0  0  0  0  0  0  0  0
    6.7869   -1.3125   -5.2364 C   0  0  0  0  0  0  0  0  0  0  0  0
    7.6863   -0.4164   -5.7281 C   0  0  0  0  0  0  0  0  0  0  0  0
    9.1534   -0.5840   -5.9220 C   0  0  0  0  0  0  0  0  0  0  0  0
    9.9440    0.1500   -4.8364 C   0  0  0  0  0  0  0  0  0  0  0  0
    6.9172    1.0896   -6.1002 S   0  0  0  0  0  0  0  0  0  0  0  0
    3.2822    1.2961   -4.5221 C   0  0  0  0  0  0  0  0  0  0  0  0
    2.1323    2.1208   -4.4468 C   0  0  0  0  0  0  0  0  0  0  0  0
    1.8429    3.0317   -5.4842 C   0  0  0  0  0  0  0  0  0  0  0  0
    0.6534    3.8555   -5.5009 C   0  0  0  0  0  0  0  0  0  0  0  0
    0.5222    5.1338   -5.9708 C   0  0  0  0  0  0  0  0  0  0  0  0
   -0.8004    5.6131   -5.9226 C   0  0  0  0  0  0  0  0  0  0  0  0
   -1.6884    4.7065   -5.4294 C   0  0  0  0  0  0  0  0  0  0  0  0
   -3.1646    4.8386   -5.2820 C   0  0  0  0  0  0  0  0  0  0  0  0
   -3.9000    4.0185   -6.3444 C   0  0  0  0  0  0  0  0  0  0  0  0
   -0.8930    3.2308   -4.9978 S   0  0  0  0  0  0  0  0  0  0  0  0
    2.7484    3.0657   -6.5374 C   0  0  0  0  0  0  0  0  0  0  0  0
    2.5752    4.0478   -7.9630 S   0  0  0  0  0  0  0  0  0  0  0  0
    1.4160    1.9216   -3.2444 C   0  0  0  0  0  0  0  0  0  0  0  0
    1.9592    0.9735   -2.4260 C   0  0  0  0  0  0  0  0  0  0  0  0
    3.4160    0.2818   -3.1136 S   0  0  0  0  0  0  0  0  0  0  0  0
    1.4624    0.5088   -1.1622 C   0  0  0  0  0  0  0  0  0  0  0  0
    2.0456   -0.5545   -0.4907 C   0  0  0  0  0  0  0  0  0  0  0  0
    1.5580   -1.0473    0.7159 C   0  0  0  0  0  0  0  0  0  0  0  0
    0.4561   -0.5068    1.3598 C   0  0  0  0  0  0  0  0  0  0  0  0
   -0.1665    0.5975    0.7183 C   0  0  0  0  0  0  0  0  0  0  0  0
   -1.2342    1.2772    1.1335 N   0  0  0  0  0  0  0  0  0  0  0  0
   -1.5772    2.4254    0.0632 S   0  0  0  0  0  0  0  0  0  0  0  0
   -0.3961    2.1237   -0.9815 N   0  0  0  0  0  0  0  0  0  0  0  0
    0.3292    1.0980   -0.5394 C   0  0  0  0  0  0  0  0  0  0  0  0
   -0.0462   -1.0433    2.5928 C   0  0  0  0  0  0  0  0  0  0  0  0
   -1.0136   -0.5213    3.4019 C   0  0  0  0  0  0  0  0  0  0  0  0
   -1.3036   -1.3119    4.5372 C   0  0  0  0  0  0  0  0  0  0  0  0
   -2.2657   -1.0616    5.5361 C   0  0  0  0  0  0  0  0  0  0  0  0
   -3.1570    0.0762    5.4502 C   0  0  0  0  0  0  0  0  0  0  0  0
   -3.7969    0.5664    4.3442 C   0  0  0  0  0  0  0  0  0  0  0  0
   -4.6022    1.6870    4.6206 C   0  0  0  0  0  0  0  0  0  0  0  0
   -4.5798    2.0603    5.9305 C   0  0  0  0  0  0  0  0  0  0  0  0
   -5.2678    3.2114    6.5790 C   0  0  0  0  0  0  0  0  0  0  0  0
   -4.2793    4.3282    6.9212 C   0  0  0  0  0  0  0  0  0  0  0  0
   -3.5580    1.0166    6.8593 S   0  0  0  0  0  0  0  0  0  0  0  0
   -2.3254   -1.9742    6.5848 C   0  0  0  0  0  0  0  0  0  0  0  0
   -1.5146   -3.1415    6.6378 C   0  0  0  0  0  0  0  0  0  0  0  0
   -0.5721   -3.4158    5.6127 C   0  0  0  0  0  0  0  0  0  0  0  0
    0.2389   -4.6120    5.6016 C   0  0  0  0  0  0  0  0  0  0  0  0
    1.5385   -4.7477    5.1919 C   0  0  0  0  0  0  0  0  0  0  0  0
    2.0182   -6.0672    5.2795 C   0  0  0  0  0  0  0  0  0  0  0  0
    1.0902   -6.9550    5.7339 C   0  0  0  0  0  0  0  0  0  0  0  0
    1.2471   -8.4119    5.9976 C   0  0  0  0  0  0  0  0  0  0  0  0
    1.3575   -8.6902    7.4988 C   0  0  0  0  0  0  0  0  0  0  0  0
   -0.4063   -6.1598    6.0820 S   0  0  0  0  0  0  0  0  0  0  0  0
   -0.4843   -2.4699    4.6010 C   0  0  0  0  0  0  0  0  0  0  0  0
    0.5830   -2.5536    3.2246 S   0  0  0  0  0  0  0  0  0  0  0  0
   -1.7812   -3.8892    7.7905 C   0  0  0  0  0  0  0  0  0  0  0  0
   -2.7748   -3.3584    8.5979 C   0  0  0  0  0  0  0  0  0  0  0  0
   -3.4043   -1.8622    7.9444 S   0  0  0  0  0  0  0  0  0  0  0  0
   -3.1756   -4.0036    9.7822 C   0  0  0  0  0  0  0  0  0  0  0  0
   -4.1362   -3.6726   10.6994 C   0  0  0  0  0  0  0  0  0  0  0  0
   -5.0170   -2.4977   10.6512 C   0  0  0  0  0  0  0  0  0  0  0  0
   -4.9918   -1.5776    9.8629 O   0  0  0  0  0  0  0  0  0  0  0  0
   -5.9824   -2.6742   11.7608 C   0  0  0  0  0  0  0  0  0  0  0  0
   -7.0757   -1.8895   12.0818 C   0  0  0  0  0  0  0  0  0  0  0  0
   -7.3810   -0.4170   11.2773 Cl  0  0  0  0  0  0  0  0  0  0  0  0
   -7.9417   -2.3413   13.0877 C   0  0  0  0  0  0  0  0  0  0  0  0
   -9.2839   -1.3890   13.5491 Cl  0  0  0  0  0  0  0  0  0  0  0  0
   -7.7359   -3.5876   13.6775 C   0  0  0  0  0  0  0  0  0  0  0  0
   -8.8667   -4.1665   14.8226 Cl  0  0  0  0  0  0  0  0  0  0  0  0
   -6.6286   -4.3829   13.3395 C   0  0  0  0  0  0  0  0  0  0  0  0
   -6.5527   -5.9766   13.9687 Cl  0  0  0  0  0  0  0  0  0  0  0  0
   -5.7031   -3.8825   12.4312 C   0  0  0  0  0  0  0  0  0  0  0  0
   -4.4503   -4.4203   11.9057 C   0  0  0  0  0  0  0  0  0  0  0  0
   -3.6224   -5.3110   12.5386 C   0  0  0  0  0  0  0  0  0  0  0  0
   -3.7321   -5.7206   13.8858 C   0  0  0  0  0  0  0  0  0  0  0  0
   -3.6647   -6.0238   14.9905 N   0  0  0  0  0  0  0  0  0  0  0  0
   -2.4288   -5.8362   11.9959 C   0  0  0  0  0  0  0  0  0  0  0  0
   -1.4618   -6.3371   11.6305 N   0  0  0  0  0  0  0  0  0  0  0  0
    5.5337    3.5731  -10.1360 H   0  0  0  0  0  0  0  0  0  0  0  0
    4.5598    7.0257  -14.0971 H   0  0  0  0  0  0  0  0  0  0  0  0
    2.5350    8.2350  -14.8690 H   0  0  0  0  0  0  0  0  0  0  0  0
   -0.1011    8.8775  -13.4425 H   0  0  0  0  0  0  0  0  0  0  0  0
    0.0806    8.2288  -15.0695 H   0  0  0  0  0  0  0  0  0  0  0  0
   -0.9113    7.3737  -13.8752 H   0  0  0  0  0  0  0  0  0  0  0  0
    0.0981    6.0051  -12.1605 H   0  0  0  0  0  0  0  0  0  0  0  0
    5.4623    1.8619   -8.1178 H   0  0  0  0  0  0  0  0  0  0  0  0
    4.6407   -1.3871   -4.8073 H   0  0  0  0  0  0  0  0  0  0  0  0
    7.0527   -2.3142   -4.9488 H   0  0  0  0  0  0  0  0  0  0  0  0
    9.3914   -1.6494   -5.8930 H   0  0  0  0  0  0  0  0  0  0  0  0
    9.4432   -0.1939   -6.9006 H   0  0  0  0  0  0  0  0  0  0  0  0
    9.7253    1.2151   -4.8660 H   0  0  0  0  0  0  0  0  0  0  0  0
    9.6786   -0.2303   -3.8525 H   0  0  0  0  0  0  0  0  0  0  0  0
   11.0111    0.0094   -4.9881 H   0  0  0  0  0  0  0  0  0  0  0  0
    1.3531    5.7292   -6.3043 H   0  0  0  0  0  0  0  0  0  0  0  0
   -1.0835    6.5997   -6.2443 H   0  0  0  0  0  0  0  0  0  0  0  0
   -3.4341    5.8925   -5.3786 H   0  0  0  0  0  0  0  0  0  0  0  0
   -3.4687    4.4955   -4.2898 H   0  0  0  0  0  0  0  0  0  0  0  0
   -4.9750    4.1385   -6.2362 H   0  0  0  0  0  0  0  0  0  0  0  0
   -3.6110    4.3438   -7.3411 H   0  0  0  0  0  0  0  0  0  0  0  0
   -3.6548    2.9638   -6.2423 H   0  0  0  0  0  0  0  0  0  0  0  0
    0.5289    2.4608   -2.9718 H   0  0  0  0  0  0  0  0  0  0  0  0
    2.9111   -1.0279   -0.9309 H   0  0  0  0  0  0  0  0  0  0  0  0
    2.0582   -1.8891    1.1720 H   0  0  0  0  0  0  0  0  0  0  0  0
   -1.4865    0.4182    3.1893 H   0  0  0  0  0  0  0  0  0  0  0  0
   -3.7288    0.1119    3.3722 H   0  0  0  0  0  0  0  0  0  0  0  0
   -5.1843    2.1957    3.8725 H   0  0  0  0  0  0  0  0  0  0  0  0
   -5.7578    2.8750    7.4958 H   0  0  0  0  0  0  0  0  0  0  0  0
   -6.0336    3.5924    5.8999 H   0  0  0  0  0  0  0  0  0  0  0  0
   -3.5197    3.9596    7.6067 H   0  0  0  0  0  0  0  0  0  0  0  0
   -4.7978    5.1605    7.3904 H   0  0  0  0  0  0  0  0  0  0  0  0
   -3.7870    4.6875    6.0202 H   0  0  0  0  0  0  0  0  0  0  0  0
    2.1473   -3.9193    4.8783 H   0  0  0  0  0  0  0  0  0  0  0  0
    3.0201   -6.3509    5.0105 H   0  0  0  0  0  0  0  0  0  0  0  0
    2.1468   -8.7663    5.4902 H   0  0  0  0  0  0  0  0  0  0  0  0
    0.3887   -8.9552    5.5950 H   0  0  0  0  0  0  0  0  0  0  0  0
    0.4583   -8.3583    8.0127 H   0  0  0  0  0  0  0  0  0  0  0  0
    1.4855   -9.7549    7.6756 H   0  0  0  0  0  0  0  0  0  0  0  0
    2.2101   -8.1623    7.9199 H   0  0  0  0  0  0  0  0  0  0  0  0
   -1.2633   -4.7923    8.0584 H   0  0  0  0  0  0  0  0  0  0  0  0
   -2.6377   -4.9278    9.9569 H   0  0  0  0  0  0  0  0  0  0  0  0
  1  2  2  0  0  0  0
  2  3  1  0  0  0  0
  3  4  2  0  0  0  0
  3  5  1  0  0  0  0
  5  6  2  0  0  0  0
  6  7  1  0  0  0  0
  7  8  2  0  0  0  0
  8  9  1  0  0  0  0
  8 10  1  0  0  0  0
 10 11  2  0  0  0  0
 11 12  1  0  0  0  0
 12 13  2  0  0  0  0
 13 14  1  0  0  0  0
 14 15  3  0  0  0  0
 13 16  1  0  0  0  0
 16 17  3  0  0  0  0
  1 18  1  0  0  0  0
 18 19  2  0  0  0  0
 19 20  1  0  0  0  0
 20 21  2  0  0  0  0
 21 22  1  0  0  0  0
 22 23  2  0  0  0  0
 23 24  1  0  0  0  0
 24 25  2  0  0  0  0
 25 26  1  0  0  0  0
 26 27  1  0  0  0  0
 25 28  1  0  0  0  0
 21 29  1  0  0  0  0
 29 30  2  0  0  0  0
 30 31  1  0  0  0  0
 31 32  1  0  0  0  0
 32 33  2  0  0  0  0
 33 34  1  0  0  0  0
 34 35  2  0  0  0  0
 35 36  1  0  0  0  0
 36 37  1  0  0  0  0
 35 38  1  0  0  0  0
 31 39  2  0  0  0  0
 39 40  1  0  0  0  0
 30 41  1  0  0  0  0
 41 42  2  0  0  0  0
 42 43  1  0  0  0  0
 42 44  1  0  0  0  0
 44 45  2  0  0  0  0
 45 46  1  0  0  0  0
 46 47  2  0  0  0  0
 47 48  1  0  0  0  0
 48 49  2  0  0  0  0
 49 50  1  0  0  0  0
 50 51  1  0  0  0  0
 51 52  2  0  0  0  0
 47 53  1  0  0  0  0
 53 54  2  0  0  0  0
 54 55  1  0  0  0  0
 55 56  2  0  0  0  0
 56 57  1  0  0  0  0
 57 58  2  0  0  0  0
 58 59  1  0  0  0  0
 59 60  2  0  0  0  0
 60 61  1  0  0  0  0
 61 62  1  0  0  0  0
 60 63  1  0  0  0  0
 56 64  1  0  0  0  0
 64 65  2  0  0  0  0
 65 66  1  0  0  0  0
 66 67  1  0  0  0  0
 67 68  2  0  0  0  0
 68 69  1  0  0  0  0
 69 70  2  0  0  0  0
 70 71  1  0  0  0  0
 71 72  1  0  0  0  0
 70 73  1  0  0  0  0
 66 74  2  0  0  0  0
 74 75  1  0  0  0  0
 65 76  1  0  0  0  0
 76 77  2  0  0  0  0
 77 78  1  0  0  0  0
 77 79  1  0  0  0  0
 79 80  2  0  0  0  0
 80 81  1  0  0  0  0
 81 82  2  0  0  0  0
 81 83  1  0  0  0  0
 83 84  2  0  0  0  0
 84 85  1  0  0  0  0
 84 86  1  0  0  0  0
 86 87  1  0  0  0  0
 86 88  2  0  0  0  0
 88 89  1  0  0  0  0
 88 90  1  0  0  0  0
 90 91  1  0  0  0  0
 90 92  2  0  0  0  0
 92 93  1  0  0  0  0
 93 94  2  0  0  0  0
 94 95  1  0  0  0  0
 95 96  3  0  0  0  0
 94 97  1  0  0  0  0
 97 98  3  0  0  0  0
 12  2  1  0  0  0  0
 40 18  1  0  0  0  0
 52 44  1  0  0  0  0
 75 53  1  0  0  0  0
 93 80  1  0  0  0  0
 11  5  1  0  0  0  0
 39 20  1  0  0  0  0
 52 48  1  0  0  0  0
 74 55  1  0  0  0  0
 92 83  1  0  0  0  0
 28 22  1  0  0  0  0
 43 29  1  0  0  0  0
 63 57  1  0  0  0  0
 78 64  1  0  0  0  0
 38 32  1  0  0  0  0
 73 67  1  0  0  0  0
  1 99  1  0  0  0  0
  6100  1  0  0  0  0
  7101  1  0  0  0  0
  9102  1  0  0  0  0
  9103  1  0  0  0  0
  9104  1  0  0  0  0
 10105  1  0  0  0  0
 19106  1  0  0  0  0
 23107  1  0  0  0  0
 24108  1  0  0  0  0
 26109  1  0  0  0  0
 26110  1  0  0  0  0
 27111  1  0  0  0  0
 27112  1  0  0  0  0
 27113  1  0  0  0  0
 33114  1  0  0  0  0
 34115  1  0  0  0  0
 36116  1  0  0  0  0
 36117  1  0  0  0  0
 37118  1  0  0  0  0
 37119  1  0  0  0  0
 37120  1  0  0  0  0
 41121  1  0  0  0  0
 45122  1  0  0  0  0
 46123  1  0  0  0  0
 54124  1  0  0  0  0
 58125  1  0  0  0  0
 59126  1  0  0  0  0
 61127  1  0  0  0  0
 61128  1  0  0  0  0
 62129  1  0  0  0  0
 62130  1  0  0  0  0
 62131  1  0  0  0  0
 68132  1  0  0  0  0
 69133  1  0  0  0  0
 71134  1  0  0  0  0
 71135  1  0  0  0  0
 72136  1  0  0  0  0
 72137  1  0  0  0  0
 72138  1  0  0  0  0
 76139  1  0  0  0  0
 79140  1  0  0  0  0
M  END
