143

C          9.34410        1.20100       -5.35590
C         10.50080        1.80310       -4.94430
C         10.76990        2.58090       -3.70790
O          9.98550        3.02080       -2.89160
C         12.23230        2.74280       -3.65200
C         12.99810        3.32860       -2.66210
C         14.37390        3.34810       -2.82070
C         14.98010        2.79230       -3.94600
C         16.47010        2.79460       -4.07640
C         14.19840        2.21090       -4.94320
C         12.82160        2.18890       -4.79970
C         11.76260        1.66720       -5.66030
C         11.95070        1.19620       -6.93260
C         10.94630        0.76470       -7.82630
N         10.20850        0.41100       -8.63270
C         13.21010        1.11400       -7.56490
N         14.19800        1.01470       -8.14150
C          8.05470        1.15440       -4.78220
C          7.51620        1.76150       -3.67390
C          6.18140        1.40110       -3.41480
C          5.35480        1.85690       -2.36040
C          5.84040        2.74700       -1.33030
C          5.17800        3.78340       -0.72760
C          5.95290        4.44930        0.23920
C          7.19560        3.91290        0.40140
C          8.31320        4.37630        1.26970
C          9.42150        5.01190        0.42610
S          7.43470        2.56760       -0.65490
C          4.04930        1.38130       -2.35080
C          3.54400        0.48180       -3.32260
C          4.35450        0.05480       -4.39690
C          3.82190       -0.79090       -5.44410
C          2.59980       -0.70010       -6.05220
C          2.40360       -1.66850       -7.05520
C          3.46450       -2.50730       -7.21210
C          3.63500       -3.61450       -8.19350
C          4.55110       -3.19080       -9.34390
S          4.74700       -2.10060       -6.12140
C          5.66740        0.50880       -4.39590
S          6.87250        0.12120       -5.58550
C          2.23270        0.06010       -3.00990
C          1.72860        0.61880       -1.86660
S          2.85910        1.72160       -1.12140
C          0.45250        0.37570       -1.25480
C         -0.45810       -0.56140       -1.72370
C         -1.67270       -0.82070       -1.09220
C         -2.07950       -0.16220        0.05980
C         -1.19210        0.82670        0.55270
N         -1.37010        1.59970        1.62130
S         -0.09230        2.55850        1.79480
N          0.75170        2.04260        0.52790
C          0.06260        1.08870       -0.09380
C         -3.30410       -0.45060        0.75140
C         -4.20260       -1.44940        0.48910
C         -5.29440       -1.48510        1.38400
C         -6.35240       -2.41990        1.42440
C         -6.52000       -3.45540        0.42590
C         -6.94420       -4.74250        0.60580
C         -7.05030       -5.47080       -0.59510
C         -6.72890       -4.74630       -1.70100
C         -6.69660       -5.18410       -3.12440
C         -5.25930       -5.34450       -3.62470
S         -6.26420       -3.13410       -1.26880
C         -7.25040       -2.28470        2.47670
C         -7.16100       -1.25750        3.45450
C         -6.10540       -0.31780        3.40630
C         -5.96720        0.71570        4.40680
C         -6.18840        0.64080        5.75630
C         -5.92120        1.84800        6.42850
C         -5.50970        2.85150        5.60430
C         -5.11070        4.24320        5.95500
C         -3.60370        4.44410        5.78150
S         -5.42570        2.31200        3.96180
C         -5.20010       -0.46210        2.36140
S         -3.77180        0.51030        2.12870
C         -8.22730       -1.30180        4.37300
C         -9.09950       -2.34150        4.16540
S         -8.64740       -3.28490        2.74840
C        -10.26690       -2.73140        4.85990
C        -10.64500       -2.44430        6.14090
C         -9.80060       -1.87650        7.22310
O         -8.70240       -1.36610        7.13970
C        -10.55080       -2.11220        8.46890
C        -10.17770       -1.82960        9.76940
C        -11.05760       -2.14930       10.79000
C        -12.28860       -2.74800       10.52470
C        -13.20410       -3.10430       11.65260
C        -12.65650       -3.03000        9.21050
C        -11.78930       -2.70870        8.17990
C        -11.90220       -2.86890        6.73330
C        -13.02820       -3.26420        6.06120
C        -13.16870       -3.30210        4.65710
N        -13.37490       -3.34230        3.52810
C        -14.23110       -3.64420        6.69250
N        -15.23200       -3.97500        7.14760
H          9.41590        0.61110       -6.26270
H         12.52360        3.75540       -1.79180
H         14.99370        3.79920       -2.05960
H         16.76900        2.75860       -5.12080
H         16.90080        3.67770       -3.61060
H         16.88320        1.91700       -3.57770
H         14.68050        1.78260       -5.80700
H          8.08090        2.45540       -3.08120
H          4.18360        4.08650       -1.00120
H          5.60140        5.30020        0.79560
H          8.72620        3.52840        1.82210
H          7.93000        5.10200        1.99020
H         10.25660        5.30550        1.05770
H          9.77420        4.30580       -0.32260
H          9.04560        5.89420       -0.08720
H          1.88350        0.06820       -5.81980
H          1.50440       -1.73960       -7.64170
H          4.06580       -4.48610       -7.69500
H          2.65460       -3.89260       -8.58640
H          4.13240       -2.33230       -9.86410
H          5.53240       -2.91780       -8.96280
H          4.66680       -4.00600      -10.05350
H          1.69980       -0.66120       -3.60070
H         -0.21650       -1.12890       -2.60850
H         -2.31780       -1.57110       -1.52120
H         -4.07250       -2.16080       -0.30440
H         -7.14020       -5.16930        1.57260
H         -7.36240       -6.49930       -0.63600
H         -7.22460       -6.13600       -3.20970
H         -7.21200       -4.44920       -3.74790
H         -4.73160       -4.39520       -3.56320
H         -4.72760       -6.07630       -3.02050
H         -5.25510       -5.67810       -4.65920
H         -6.49600       -0.25660        6.26160
H         -6.03390        1.96730        7.49160
H         -5.64100        4.95060        5.31230
H         -5.39470        4.44190        6.99050
H         -3.32630        5.46310        6.03950
H         -3.05490        3.75970        6.42450
H         -3.31620        4.25310        4.75000
H         -8.37490       -0.56840        5.14050
H        -10.91170       -3.39400        4.29350
H         -9.22310       -1.36830        9.97040
H        -10.79000       -1.93380       11.81430
H        -14.21400       -3.28340       11.29350
H        -12.85040       -4.01150       12.14310
H        -13.22580       -2.31140       12.39720
H        -13.60750       -3.49920        9.01630
