80

C          4.16140       -4.03370       -1.70880
C          4.52890       -5.11520       -0.96940
C          4.35130       -5.24450        0.50510
O          3.85790       -4.44230        1.26710
C          5.04150       -6.49380        0.87080
C          5.17420       -7.07910        2.11550
C          5.89560       -8.25770        2.21700
C          6.49000       -8.84190        1.09990
C          7.25080      -10.12270        1.23110
C          6.35780       -8.24160       -0.15140
C          5.63080       -7.06940       -0.26890
C          5.31840       -6.24170       -1.43040
C          5.63350       -6.53290       -2.73110
C          5.23560       -5.77410       -3.85280
N          4.93840       -5.22950       -4.81900
C          6.38030       -7.66070       -3.13230
N          6.99060       -8.55190       -3.52100
C          3.21590       -3.04030       -1.32420
C          2.06310       -3.29050       -0.55570
C          1.13770       -2.23760       -0.17790
N          0.09080       -2.72930        0.49490
S          0.25870       -4.30850        0.63950
N          1.63520       -4.48890       -0.15280
C          1.30990       -0.89710       -0.56660
C          2.40170       -0.66730       -1.42310
N          2.75730        0.50650       -1.96230
S          4.08650        0.30770       -2.82850
N          4.31050       -1.25650       -2.57580
C          3.33130       -1.71680       -1.79240
C          0.41810        0.16000       -0.14280
C          0.05830        1.19750       -0.98860
C         -0.83630        2.19680       -0.61240
C         -1.40060        2.25640        0.65210
C         -1.04390        1.22730        1.56000
N         -1.48210        1.05690        2.80570
S         -0.78000       -0.24580        3.42690
N          0.09160       -0.67780        2.15370
C         -0.13890        0.17920        1.16170
C         -2.30800        3.31680        1.02810
C         -3.26680        3.82950        0.13580
C         -4.17830        4.90140        0.48680
N         -5.02700        5.16550       -0.51060
S         -4.70780        4.19500       -1.74790
N         -3.49510        3.38130       -1.10480
C         -4.15240        5.53220        1.74840
C         -3.21650        4.98760        2.65290
N         -3.00360        5.42390        3.89630
S         -1.78130        4.60440        4.53120
N         -1.44810        3.65890        3.29340
C         -2.30080        3.92110        2.29620
C         -4.98580        6.60960        2.15000
C         -5.67260        7.49220        1.37600
C         -6.76870        8.30550        1.96410
O         -7.00220        8.47340        3.13490
C         -7.54350        8.79960        0.79670
C         -8.76290        9.45430        0.77340
Cl        -9.52690        9.96060        2.21200
C         -9.36770        9.68680       -0.47120
Cl       -10.86050       10.51600       -0.54960
C         -8.77630        9.20940       -1.64040
Cl        -9.58040        9.41970       -3.13460
C         -7.53810        8.54850       -1.61060
Cl        -6.93740        7.84650       -3.05380
C         -6.89480        8.40190       -0.39060
C         -5.60510        7.81550       -0.03350
C         -4.45460        7.87410       -0.77150
C         -4.30520        8.49320       -2.03070
N         -4.06660        9.02240       -3.02030
C         -3.20450        7.43930       -0.28170
N         -2.16310        7.09830        0.06000
H          4.62840       -3.85910       -2.67050
H          4.71820       -6.62080        2.97960
H          6.00490       -8.73570        3.17960
H          6.57580      -10.96650        1.08370
H          8.03390      -10.18760        0.48000
H          7.69360      -10.21540        2.21970
H          6.82900       -8.69740       -1.00750
H          0.47390        1.22000       -1.98320
H         -1.08310        2.96860       -1.32380
H         -5.12090        6.71240        3.22150
