250

C          8.13130        4.17910        3.89520
C          8.33010        4.83330        5.09340
C          7.32500        5.05670        6.13470
O          6.18790        4.61590        6.18760
C          7.95300        5.95630        7.11830
C          7.42900        6.48460        8.28030
C          8.23140        7.31880        9.04500
C          9.53330        7.62080        8.65810
C         10.39350        8.50570        9.50420
C         10.05550        7.07880        7.48230
C          9.26650        6.24680        6.71050
C          9.53580        5.53140        5.46140
C         10.74220        5.52080        4.80120
C         11.05520        4.73250        3.67830
N         11.40940        4.10220        2.78370
C         11.86010        6.28610        5.18470
N         12.80410        6.89470        5.42780
C          7.03020        3.46820        3.42940
C          6.96680        2.90120        2.12710
N          7.87050        3.14040        1.12230
C          8.41190        4.42150        0.91250
C          9.72650        4.57210        0.47620
C         10.24920        5.83520        0.28660
C          9.49030        6.97430        0.53010
C         10.08900        8.33490        0.34740
C          8.17510        6.81290        0.94880
C          7.63380        5.55610        1.13090
C          8.26030        2.08430        0.27970
C          8.51420        0.82350        0.81060
C          9.00010       -0.18450        0.00120
C          9.23690        0.03460       -1.34930
C          9.83010       -1.03020       -2.22060
C          8.93410        1.28420       -1.88070
C          8.45100        2.29990       -1.08270
C          5.83580        2.08740        1.98730
S          5.14950        1.16280        0.68230
C          3.73040        0.80430        1.66250
C          3.84990        1.30580        2.95790
N          2.91270        1.11400        3.96850
C          2.52940       -0.17290        4.35000
C          1.30300       -0.37450        4.98520
C          0.89580       -1.64670        5.32450
C          1.68440       -2.75660        5.03810
C          1.22840       -4.13330        5.41630
C          2.90420       -2.54820        4.40930
C          3.32930       -1.27780        4.07070
C          2.63140        2.23170        4.77560
C          2.39220        3.46050        4.16640
C          2.19040        4.58760        4.93400
C          2.21100        4.52020        6.32220
C          2.02810        5.76070        7.14040
C          2.42370        3.28590        6.92100
C          2.63640        2.15040        6.16310
C          5.02960        2.05430        3.12200
S          5.62160        3.04490        4.40510
C          2.54780        0.26770        1.10370
C          2.33680       -0.31970       -0.14250
N          3.31930       -0.77380       -1.00610
C          3.00280       -0.78490       -2.37710
C          2.46730        0.35890       -2.97030
C          2.09180        0.34380       -4.29460
C          2.24860       -0.80940       -5.06130
S          1.73450       -0.71170       -6.74500
C          1.92400       -2.40770       -7.35990
C          2.80150       -1.94270       -4.47950
C          3.17020       -1.93000       -3.14860
C          4.41470       -1.50380       -0.53600
C          5.58370       -1.56180       -1.29740
C          6.66460       -2.28720       -0.85580
C          6.62400       -2.94600        0.37120
S          8.08860       -3.81390        0.84610
C          7.71450       -4.42830        2.51170
C          5.46620       -2.89230        1.13260
C          4.36850       -2.18950        0.67510
C          0.95790       -0.46480       -0.40690
S          0.05530       -1.10260       -1.73100
C         -1.45600       -0.85780       -0.85340
C         -1.24080       -0.34060        0.42450
N         -2.18550       -0.13140        1.41600
C         -3.26020       -0.99900        1.61070
C         -4.46290       -0.51560        2.13270
C         -5.57030       -1.32920        2.18780
C         -5.51100       -2.63740        1.71530
S         -7.02300       -3.55310        1.69710
C         -6.68600       -4.86400        0.48530
C         -4.29520       -3.15090        1.28430
C         -3.17800       -2.34100        1.24400
C         -1.96100        0.92370        2.31710
C         -2.06630        0.71960        3.68900
C         -1.82280        1.75070        4.57470
C         -1.46470        3.00640        4.10090
S         -1.16010        4.40090        5.13530
C         -1.12540        3.70300        6.80870
C         -1.36170        3.21450        2.72670
C         -1.60900        2.18770        1.84360
C          0.13120       -0.08440        0.63680
S          1.03220        0.53370        1.97180
C         -2.67070       -1.08590       -1.54420
C         -2.84530       -1.80430       -2.72620
N         -1.86080       -2.56130       -3.35670
C         -1.73700       -2.40760       -4.74650
C         -1.57350       -3.50270       -5.58770
C         -1.48120       -3.31670       -6.95360
C         -1.55640       -2.04820       -7.51350
C         -1.47620       -1.84370       -8.99520
C         -1.72110       -0.96000       -6.66430
C         -1.80770       -1.13120       -5.29910
C         -1.18960       -3.56970       -2.66620
C          0.10020       -3.94620       -3.04420
C          0.78520       -4.90040       -2.32380
C          0.21900       -5.50540       -1.20600
C          0.98390       -6.53600       -0.43210
C         -1.06840       -5.13520       -0.84230
C         -1.77010       -4.18660       -1.56120
C         -4.16230       -1.69360       -3.21470
S         -4.99880       -2.40650       -4.54890
C         -6.51070       -1.65880       -4.00700
C         -6.34420       -0.95170       -2.78520
N         -7.34440       -0.38590       -2.04040
C         -8.61780       -0.97390       -1.90890
C         -9.73680       -0.16130       -1.74990
C        -10.98720       -0.72930       -1.61150
C        -11.15720       -2.10850       -1.63660
C        -12.52700       -2.70410       -1.53060
C        -10.03090       -2.91070       -1.77620
C         -8.77270       -2.35730       -1.90180
C         -7.00530        0.67070       -1.17090
C         -7.41250        0.65620        0.15890
C         -7.01400        1.66600        1.01220
C         -6.20490        2.70550        0.57020
C         -5.71130        3.75770        1.51490
C         -5.84020        2.73340       -0.77100
C         -6.23670        1.73470       -1.63710
C         -4.99680       -0.93890       -2.39880
S         -4.15200       -0.29250       -1.03140
C         -7.70880       -1.67550       -4.71270
C         -8.06400       -2.34350       -5.86620
C         -7.23490       -3.29890       -6.60360
O         -6.06960       -3.59590       -6.39550
C         -8.09960       -3.85870       -7.65730
C         -7.80820       -4.80690       -8.61660
C         -8.81010       -5.17810       -9.50120
C        -10.07950       -4.61230       -9.43220
C        -11.14210       -5.00970      -10.40810
C        -10.36290       -3.65010       -8.46140
C         -9.37460       -3.27340       -7.57110
C         -9.36910       -2.30080       -6.47590
C        -10.43040       -1.49760       -6.12880
C        -11.71010       -1.58440       -6.70980
N        -12.78310       -1.61550       -7.12060
C        -10.40050       -0.46150       -5.17720
N        -10.45850        0.42800       -4.45010
H          8.95550        4.22400        3.19490
H          6.41910        6.24590        8.57700
H          7.84150        7.74370        9.95860
H          9.78990        9.14460       10.14400
H         11.03500        7.89550       10.14090
H         11.03640        9.12550        8.88360
H         11.06620        7.32080        7.19530
H         10.33840        3.70060        0.30660
H         11.27380        5.93790       -0.03810
H         10.49780        8.44030       -0.65640
H         10.90510        8.48400        1.05410
H          9.34700        9.11330        0.50640
H          7.56050        7.68310        1.12980
H          6.60790        5.44790        1.45170
H          8.36320        0.64970        1.86620
H          9.22240       -1.14910        0.43250
H         10.80210       -0.70790       -2.59310
H          9.19430       -1.21970       -3.08470
H          9.96550       -1.95690       -1.66820
H          9.09160        1.46610       -2.93410
H          8.23350        3.27020       -1.50380
H          0.66810        0.47560        5.18420
H         -0.05970       -1.78650        5.80980
H          1.35910       -4.29240        6.48720
H          0.17250       -4.26500        5.18700
H          1.80020       -4.89230        4.88780
H          3.53720       -3.39520        4.18370
H          4.28600       -1.13690        3.58870
H          2.37170        3.51920        3.08770
H          2.01090        5.53680        4.45140
H          1.22580        6.37450        6.73450
H          2.94490        6.34970        7.11860
H          1.80400        5.51880        8.17690
H          2.44470        3.21170        7.99920
H          2.82770        1.20170        6.64330
H          2.34410        1.25410       -2.37910
H          1.67170        1.22490       -4.75430
H          1.57250       -2.38560       -8.38620
H          2.96960       -2.70100       -7.33580
H          1.30220       -3.07990       -6.77580
H          2.94210       -2.84800       -5.04800
H          3.57930       -2.82170       -2.69760
H          5.63520       -1.03060       -2.23530
H          7.55800       -2.34690       -1.45390
H          8.61870       -4.92400        2.85120
H          7.48110       -3.59570        3.16890
H          6.89710       -5.14270        2.47160
H          5.39390       -3.40400        2.07890
H          3.46540       -2.18140        1.26730
H         -4.53270        0.51380        2.44780
H         -6.50590       -0.95110        2.56750
H         -6.22940       -4.42990       -0.39930
H         -7.65190       -5.29130        0.23490
H         -6.04840       -5.62940        0.91890
H         -4.20630       -4.18080        0.97580
H         -2.23710       -2.74550        0.90120
H         -2.33440       -0.25810        4.06100
H         -1.91140        1.56000        5.63210
H         -0.86200        4.52780        7.46260
H         -0.36150        2.93300        6.86540
H         -2.10570        3.32020        7.07770
H         -1.09000        4.19420        2.36500
H         -1.53350        2.35280        0.77890
H         -1.53310       -4.49750       -5.16910
H         -1.36190       -4.17780       -7.59620
H         -2.46030       -1.59020       -9.38980
H         -0.80110       -1.02250       -9.23170
H         -1.13080       -2.74450       -9.49730
H         -1.77170        0.03520       -7.08090
H         -1.92380       -0.27800       -4.64660
H          0.56460       -3.45890       -3.88770
H          1.78720       -5.17330       -2.62330
H          1.99900       -6.19330       -0.23770
H          1.04920       -7.46380       -1.00120
H          0.49820       -6.75110        0.51670
H         -1.53340       -5.59860        0.01700
H         -2.77510       -3.91660       -1.27110
H         -9.62070        0.91100       -1.74800
H        -11.84910       -0.08870       -1.50230
H        -12.47610       -3.77950       -1.37920
H        -13.08790       -2.51100       -2.44530
H        -13.07700       -2.25740       -0.70440
H        -10.13800       -3.98620       -1.78000
H         -7.90650       -2.99450       -2.00430
H         -8.02410       -0.15740        0.51920
H         -7.32660        1.63830        2.04610
H         -6.32930        3.80260        2.40800
H         -4.68800        3.53170        1.81990
H         -5.70730        4.73570        1.03900
H         -5.23380        3.54730       -1.14090
H         -5.94900        1.76660       -2.67780
H         -8.48570       -1.06690       -4.26760
H         -6.82180       -5.24210       -8.66640
H         -8.60510       -5.92060      -10.25880
H        -11.14870       -4.31480      -11.24860
H        -10.96260       -6.00890      -10.79740
H        -12.12460       -4.97780       -9.94320
H        -11.35020       -3.21880       -8.42120
