
  xtb     02152201493D
 energy: -344.828948534755 gnorm: 0.000846481411 xtb: 6.4.1 (unknown)
210227  0     0  0            999 V2000
    2.4562   -7.0709    4.6956 C   0  0  0  0  0  0  0  0  0  0  0  0
    3.5525   -7.8309    4.3883 C   0  0  0  0  0  0  0  0  0  0  0  0
    3.9342   -8.9724    5.2536 C   0  0  0  0  0  0  0  0  0  0  0  0
    3.4916   -9.2323    6.3529 O   0  0  0  0  0  0  0  0  0  0  0  0
    4.9216   -9.7378    4.4654 C   0  0  0  0  0  0  0  0  0  0  0  0
    5.5183  -10.9524    4.7383 C   0  0  0  0  0  0  0  0  0  0  0  0
    6.3975  -11.4809    3.8042 C   0  0  0  0  0  0  0  0  0  0  0  0
    6.6730  -10.8189    2.6111 C   0  0  0  0  0  0  0  0  0  0  0  0
    7.5933  -11.4249    1.5987 C   0  0  0  0  0  0  0  0  0  0  0  0
    6.0725   -9.5879    2.3448 C   0  0  0  0  0  0  0  0  0  0  0  0
    5.2071   -9.0448    3.2743 C   0  0  0  0  0  0  0  0  0  0  0  0
    4.4766   -7.7781    3.2855 C   0  0  0  0  0  0  0  0  0  0  0  0
    4.8320   -6.6584    2.5721 C   0  0  0  0  0  0  0  0  0  0  0  0
    4.2911   -5.3808    2.8113 C   0  0  0  0  0  0  0  0  0  0  0  0
    3.9179   -4.3140    3.0221 N   0  0  0  0  0  0  0  0  0  0  0  0
    5.8715   -6.6396    1.6266 C   0  0  0  0  0  0  0  0  0  0  0  0
    6.7188   -6.5733    0.8527 N   0  0  0  0  0  0  0  0  0  0  0  0
    1.7123   -6.2653    3.8183 C   0  0  0  0  0  0  0  0  0  0  0  0
    0.9410   -5.1277    4.1098 C   0  0  0  0  0  0  0  0  0  0  0  0
    0.7430   -4.5756    5.3456 N   0  0  0  0  0  0  0  0  0  0  0  0
    0.6117   -5.3550    6.5037 C   0  0  0  0  0  0  0  0  0  0  0  0
    1.1740   -4.9259    7.7025 C   0  0  0  0  0  0  0  0  0  0  0  0
    1.0480   -5.6975    8.8407 C   0  0  0  0  0  0  0  0  0  0  0  0
    0.3656   -6.9081    8.8170 C   0  0  0  0  0  0  0  0  0  0  0  0
    0.2709   -7.7664   10.0391 C   0  0  0  0  0  0  0  0  0  0  0  0
   -0.2072   -7.3208    7.6189 C   0  0  0  0  0  0  0  0  0  0  0  0
   -0.0935   -6.5571    6.4749 C   0  0  0  0  0  0  0  0  0  0  0  0
    0.6194   -3.1754    5.4441 C   0  0  0  0  0  0  0  0  0  0  0  0
    1.4917   -2.3473    4.7411 C   0  0  0  0  0  0  0  0  0  0  0  0
    1.3342   -0.9783    4.8013 C   0  0  0  0  0  0  0  0  0  0  0  0
    0.3232   -0.4029    5.5644 C   0  0  0  0  0  0  0  0  0  0  0  0
    0.1603    1.0858    5.6009 C   0  0  0  0  0  0  0  0  0  0  0  0
   -0.5173   -1.2384    6.2887 C   0  0  0  0  0  0  0  0  0  0  0  0
   -0.3778   -2.6124    6.2319 C   0  0  0  0  0  0  0  0  0  0  0  0
    0.4598   -4.5270    2.9228 C   0  0  0  0  0  0  0  0  0  0  0  0
   -0.5446   -3.1476    2.5888 S   0  0  0  0  0  0  0  0  0  0  0  0
   -0.4247   -3.4602    0.8622 C   0  0  0  0  0  0  0  0  0  0  0  0
    0.2209   -4.6671    0.5904 C   0  0  0  0  0  0  0  0  0  0  0  0
    0.2680   -5.3165   -0.6280 N   0  0  0  0  0  0  0  0  0  0  0  0
   -0.9148   -5.5856   -1.3282 C   0  0  0  0  0  0  0  0  0  0  0  0
   -0.8905   -5.7783   -2.7082 C   0  0  0  0  0  0  0  0  0  0  0  0
   -2.0289   -6.1887   -3.3721 C   0  0  0  0  0  0  0  0  0  0  0  0
   -3.2200   -6.4100   -2.6888 C   0  0  0  0  0  0  0  0  0  0  0  0
   -4.4119   -6.9920   -3.3841 C   0  0  0  0  0  0  0  0  0  0  0  0
   -3.2558   -6.1343   -1.3279 C   0  0  0  0  0  0  0  0  0  0  0  0
   -2.1239   -5.7272   -0.6503 C   0  0  0  0  0  0  0  0  0  0  0  0
    1.4691   -5.9643   -0.9600 C   0  0  0  0  0  0  0  0  0  0  0  0
    2.6777   -5.3130   -0.7220 C   0  0  0  0  0  0  0  0  0  0  0  0
    3.8728   -5.9370   -1.0148 C   0  0  0  0  0  0  0  0  0  0  0  0
    3.8995   -7.2226   -1.5432 C   0  0  0  0  0  0  0  0  0  0  0  0
    5.2002   -7.8844   -1.8774 C   0  0  0  0  0  0  0  0  0  0  0  0
    2.6887   -7.8656   -1.7733 C   0  0  0  0  0  0  0  0  0  0  0  0
    1.4853   -7.2521   -1.4874 C   0  0  0  0  0  0  0  0  0  0  0  0
    0.7637   -5.2258    1.7697 C   0  0  0  0  0  0  0  0  0  0  0  0
    1.7038   -6.6367    2.0888 S   0  0  0  0  0  0  0  0  0  0  0  0
   -0.8228   -2.4119   -0.0238 C   0  0  0  0  0  0  0  0  0  0  0  0
   -0.3509   -2.2055   -1.3188 C   0  0  0  0  0  0  0  0  0  0  0  0
    0.4970   -3.0765   -1.8920 F   0  0  0  0  0  0  0  0  0  0  0  0
   -0.6033   -1.0416   -2.0469 C   0  0  0  0  0  0  0  0  0  0  0  0
    0.0644   -0.9196   -3.2086 F   0  0  0  0  0  0  0  0  0  0  0  0
   -1.3787    0.0095   -1.5671 C   0  0  0  0  0  0  0  0  0  0  0  0
   -1.8665   -0.1646   -0.2387 C   0  0  0  0  0  0  0  0  0  0  0  0
   -2.5541    0.8312    0.3298 N   0  0  0  0  0  0  0  0  0  0  0  0
   -2.9515    0.7445    1.5780 C   0  0  0  0  0  0  0  0  0  0  0  0
   -3.6752    1.9337    2.1272 C   0  0  0  0  0  0  0  0  0  0  0  0
   -2.6852    2.8924    2.7915 C   0  0  0  0  0  0  0  0  0  0  0  0
   -2.6423   -0.4119    2.3395 C   0  0  0  0  0  0  0  0  0  0  0  0
   -1.9926   -1.4057    1.7793 N   0  0  0  0  0  0  0  0  0  0  0  0
   -1.5896   -1.3322    0.5083 C   0  0  0  0  0  0  0  0  0  0  0  0
   -3.0466   -0.6122    3.7666 C   0  0  0  0  0  0  0  0  0  0  0  0
   -4.3636   -1.3886    3.8378 C   0  0  0  0  0  0  0  0  0  0  0  0
   -1.5775    1.2699   -2.2160 C   0  0  0  0  0  0  0  0  0  0  0  0
   -1.4865    1.6155   -3.5625 C   0  0  0  0  0  0  0  0  0  0  0  0
   -1.3771    0.7621   -4.6444 N   0  0  0  0  0  0  0  0  0  0  0  0
   -0.5716    1.2106   -5.7056 C   0  0  0  0  0  0  0  0  0  0  0  0
   -0.9870    1.1102   -7.0328 C   0  0  0  0  0  0  0  0  0  0  0  0
   -0.2067    1.6341   -8.0392 C   0  0  0  0  0  0  0  0  0  0  0  0
    0.9954    2.2755   -7.7443 C   0  0  0  0  0  0  0  0  0  0  0  0
    1.8912    2.9462   -9.1084 S   0  0  0  0  0  0  0  0  0  0  0  0
    3.1790    3.9521   -8.3166 C   0  0  0  0  0  0  0  0  0  0  0  0
    1.4240    2.3541   -6.4264 C   0  0  0  0  0  0  0  0  0  0  0  0
    0.6464    1.8217   -5.4194 C   0  0  0  0  0  0  0  0  0  0  0  0
   -2.1423   -0.3983   -4.7542 C   0  0  0  0  0  0  0  0  0  0  0  0
   -3.3613   -0.5197   -4.0923 C   0  0  0  0  0  0  0  0  0  0  0  0
   -4.1392   -1.6514   -4.2437 C   0  0  0  0  0  0  0  0  0  0  0  0
   -3.7117   -2.6840   -5.0644 C   0  0  0  0  0  0  0  0  0  0  0  0
   -4.6533   -4.1367   -5.4010 S   0  0  0  0  0  0  0  0  0  0  0  0
   -6.1080   -3.9737   -4.3279 C   0  0  0  0  0  0  0  0  0  0  0  0
   -2.4767   -2.5830   -5.7029 C   0  0  0  0  0  0  0  0  0  0  0  0
   -1.6999   -1.4592   -5.5487 C   0  0  0  0  0  0  0  0  0  0  0  0
   -1.5776    3.0183   -3.7297 C   0  0  0  0  0  0  0  0  0  0  0  0
   -1.5751    4.0670   -5.1015 S   0  0  0  0  0  0  0  0  0  0  0  0
   -1.7029    5.4765   -4.0583 C   0  0  0  0  0  0  0  0  0  0  0  0
   -1.7942    5.1246   -2.7127 C   0  0  0  0  0  0  0  0  0  0  0  0
   -2.1099    5.9877   -1.6675 N   0  0  0  0  0  0  0  0  0  0  0  0
   -1.2011    6.9744   -1.2403 C   0  0  0  0  0  0  0  0  0  0  0  0
   -1.6408    8.2779   -1.0126 C   0  0  0  0  0  0  0  0  0  0  0  0
   -0.7624    9.2304   -0.5499 C   0  0  0  0  0  0  0  0  0  0  0  0
    0.5682    8.8988   -0.2890 C   0  0  0  0  0  0  0  0  0  0  0  0
    1.5965   10.1991    0.3113 S   0  0  0  0  0  0  0  0  0  0  0  0
    3.2641    9.4829    0.3141 C   0  0  0  0  0  0  0  0  0  0  0  0
    1.0056    7.5998   -0.5045 C   0  0  0  0  0  0  0  0  0  0  0  0
    0.1257    6.6468   -0.9883 C   0  0  0  0  0  0  0  0  0  0  0  0
   -3.1878    5.6538   -0.8452 C   0  0  0  0  0  0  0  0  0  0  0  0
   -4.2733    4.9492   -1.3632 C   0  0  0  0  0  0  0  0  0  0  0  0
   -5.3297    4.5765   -0.5564 C   0  0  0  0  0  0  0  0  0  0  0  0
   -5.3341    4.9222    0.7874 C   0  0  0  0  0  0  0  0  0  0  0  0
   -6.6069    4.4755    1.9298 S   0  0  0  0  0  0  0  0  0  0  0  0
   -7.7611    3.4906    0.9337 C   0  0  0  0  0  0  0  0  0  0  0  0
   -4.2725    5.6629    1.3016 C   0  0  0  0  0  0  0  0  0  0  0  0
   -3.2089    6.0157    0.5032 C   0  0  0  0  0  0  0  0  0  0  0  0
   -1.7377    3.7213   -2.5498 C   0  0  0  0  0  0  0  0  0  0  0  0
   -1.9100    2.6604   -1.1887 S   0  0  0  0  0  0  0  0  0  0  0  0
   -1.8985    6.7362   -4.6871 C   0  0  0  0  0  0  0  0  0  0  0  0
   -1.3402    7.9527   -4.4441 C   0  0  0  0  0  0  0  0  0  0  0  0
   -2.0482    9.1810   -4.9111 C   0  0  0  0  0  0  0  0  0  0  0  0
   -3.0486    9.2170   -5.5918 O   0  0  0  0  0  0  0  0  0  0  0  0
   -1.2949   10.3058   -4.3338 C   0  0  0  0  0  0  0  0  0  0  0  0
   -1.5811   11.6567   -4.3507 C   0  0  0  0  0  0  0  0  0  0  0  0
   -0.7026   12.5261   -3.7209 C   0  0  0  0  0  0  0  0  0  0  0  0
    0.4520   12.0621   -3.0973 C   0  0  0  0  0  0  0  0  0  0  0  0
    1.3908   12.9983   -2.4078 C   0  0  0  0  0  0  0  0  0  0  0  0
    0.7426   10.6974   -3.1013 C   0  0  0  0  0  0  0  0  0  0  0  0
   -0.1363    9.8173   -3.7019 C   0  0  0  0  0  0  0  0  0  0  0  0
   -0.1018    8.3616   -3.8310 C   0  0  0  0  0  0  0  0  0  0  0  0
    1.0050    7.5779   -3.6251 C   0  0  0  0  0  0  0  0  0  0  0  0
    1.0894    6.2012   -3.9081 C   0  0  0  0  0  0  0  0  0  0  0  0
    1.2632    5.0898   -4.1410 N   0  0  0  0  0  0  0  0  0  0  0  0
    2.2440    8.0697   -3.1738 C   0  0  0  0  0  0  0  0  0  0  0  0
    3.2836    8.3977   -2.8096 N   0  0  0  0  0  0  0  0  0  0  0  0
    2.1033   -7.1680    5.7167 H   0  0  0  0  0  0  0  0  0  0  0  0
    5.3007  -11.4693    5.6603 H   0  0  0  0  0  0  0  0  0  0  0  0
    6.8775  -12.4284    4.0022 H   0  0  0  0  0  0  0  0  0  0  0  0
    8.2793  -12.1282    2.0642 H   0  0  0  0  0  0  0  0  0  0  0  0
    8.1646  -10.6535    1.0877 H   0  0  0  0  0  0  0  0  0  0  0  0
    7.0131  -11.9633    0.8485 H   0  0  0  0  0  0  0  0  0  0  0  0
    6.2815   -9.0830    1.4147 H   0  0  0  0  0  0  0  0  0  0  0  0
    1.7177   -3.9932    7.7299 H   0  0  0  0  0  0  0  0  0  0  0  0
    1.4992   -5.3583    9.7617 H   0  0  0  0  0  0  0  0  0  0  0  0
   -0.7065   -8.2397   10.1066 H   0  0  0  0  0  0  0  0  0  0  0  0
    0.4470   -7.1846   10.9405 H   0  0  0  0  0  0  0  0  0  0  0  0
    1.0219   -8.5553    9.9900 H   0  0  0  0  0  0  0  0  0  0  0  0
   -0.7483   -8.2548    7.5817 H   0  0  0  0  0  0  0  0  0  0  0  0
   -0.5465   -6.8858    5.5507 H   0  0  0  0  0  0  0  0  0  0  0  0
    2.2855   -2.7841    4.1536 H   0  0  0  0  0  0  0  0  0  0  0  0
    2.0087   -0.3418    4.2476 H   0  0  0  0  0  0  0  0  0  0  0  0
    0.1146    1.4868    4.5891 H   0  0  0  0  0  0  0  0  0  0  0  0
    1.0114    1.5475    6.1008 H   0  0  0  0  0  0  0  0  0  0  0  0
   -0.7445    1.3678    6.1340 H   0  0  0  0  0  0  0  0  0  0  0  0
   -1.3008   -0.8111    6.8985 H   0  0  0  0  0  0  0  0  0  0  0  0
   -1.0471   -3.2536    6.7865 H   0  0  0  0  0  0  0  0  0  0  0  0
    0.0320   -5.6213   -3.2458 H   0  0  0  0  0  0  0  0  0  0  0  0
   -1.9919   -6.3537   -4.4388 H   0  0  0  0  0  0  0  0  0  0  0  0
   -4.3530   -8.0813   -3.3551 H   0  0  0  0  0  0  0  0  0  0  0  0
   -4.4434   -6.6862   -4.4264 H   0  0  0  0  0  0  0  0  0  0  0  0
   -5.3359   -6.6955   -2.8927 H   0  0  0  0  0  0  0  0  0  0  0  0
   -4.1771   -6.2719   -0.7789 H   0  0  0  0  0  0  0  0  0  0  0  0
   -2.1679   -5.5569    0.4157 H   0  0  0  0  0  0  0  0  0  0  0  0
    2.6717   -4.3135   -0.3130 H   0  0  0  0  0  0  0  0  0  0  0  0
    4.8020   -5.4179   -0.8325 H   0  0  0  0  0  0  0  0  0  0  0  0
    5.1185   -8.9662   -1.7938 H   0  0  0  0  0  0  0  0  0  0  0  0
    5.9897   -7.5301   -1.2182 H   0  0  0  0  0  0  0  0  0  0  0  0
    5.4861   -7.6458   -2.9025 H   0  0  0  0  0  0  0  0  0  0  0  0
    2.6868   -8.8685   -2.1761 H   0  0  0  0  0  0  0  0  0  0  0  0
    0.5549   -7.7729   -1.6596 H   0  0  0  0  0  0  0  0  0  0  0  0
   -4.1537    2.4529    1.2967 H   0  0  0  0  0  0  0  0  0  0  0  0
   -4.4362    1.6264    2.8443 H   0  0  0  0  0  0  0  0  0  0  0  0
   -3.2182    3.7459    3.2003 H   0  0  0  0  0  0  0  0  0  0  0  0
   -2.1427    2.3993    3.5951 H   0  0  0  0  0  0  0  0  0  0  0  0
   -1.9706    3.2498    2.0544 H   0  0  0  0  0  0  0  0  0  0  0  0
   -3.1507    0.3443    4.2763 H   0  0  0  0  0  0  0  0  0  0  0  0
   -2.2643   -1.1947    4.2555 H   0  0  0  0  0  0  0  0  0  0  0  0
   -5.1654   -0.8398    3.3476 H   0  0  0  0  0  0  0  0  0  0  0  0
   -4.2508   -2.3511    3.3460 H   0  0  0  0  0  0  0  0  0  0  0  0
   -4.6418   -1.5572    4.8748 H   0  0  0  0  0  0  0  0  0  0  0  0
   -1.9303    0.6403   -7.2674 H   0  0  0  0  0  0  0  0  0  0  0  0
   -0.5292    1.5713   -9.0672 H   0  0  0  0  0  0  0  0  0  0  0  0
    2.7225    4.6402   -7.6111 H   0  0  0  0  0  0  0  0  0  0  0  0
    3.9080    3.3120   -7.8279 H   0  0  0  0  0  0  0  0  0  0  0  0
    3.6564    4.5048   -9.1200 H   0  0  0  0  0  0  0  0  0  0  0  0
    2.3546    2.8285   -6.1641 H   0  0  0  0  0  0  0  0  0  0  0  0
    0.9835    1.8880   -4.3965 H   0  0  0  0  0  0  0  0  0  0  0  0
   -3.7197    0.2852   -3.4677 H   0  0  0  0  0  0  0  0  0  0  0  0
   -5.0834   -1.7023   -3.7255 H   0  0  0  0  0  0  0  0  0  0  0  0
   -6.6889   -3.1024   -4.6164 H   0  0  0  0  0  0  0  0  0  0  0  0
   -6.6940   -4.8730   -4.4886 H   0  0  0  0  0  0  0  0  0  0  0  0
   -5.7925   -3.9157   -3.2902 H   0  0  0  0  0  0  0  0  0  0  0  0
   -2.1376   -3.3989   -6.3221 H   0  0  0  0  0  0  0  0  0  0  0  0
   -0.7389   -1.3940   -6.0339 H   0  0  0  0  0  0  0  0  0  0  0  0
   -2.6729    8.5303   -1.2044 H   0  0  0  0  0  0  0  0  0  0  0  0
   -1.0917   10.2448   -0.3843 H   0  0  0  0  0  0  0  0  0  0  0  0
    3.5059    9.1094   -0.6782 H   0  0  0  0  0  0  0  0  0  0  0  0
    3.9299   10.2990    0.5768 H   0  0  0  0  0  0  0  0  0  0  0  0
    3.3305    8.6993    1.0633 H   0  0  0  0  0  0  0  0  0  0  0  0
    2.0244    7.3129   -0.3005 H   0  0  0  0  0  0  0  0  0  0  0  0
    0.4645    5.6339   -1.1524 H   0  0  0  0  0  0  0  0  0  0  0  0
   -4.2934    4.6880   -2.4105 H   0  0  0  0  0  0  0  0  0  0  0  0
   -6.1444    4.0230   -0.9945 H   0  0  0  0  0  0  0  0  0  0  0  0
   -8.5445    3.1780    1.6172 H   0  0  0  0  0  0  0  0  0  0  0  0
   -8.1864    4.1020    0.1431 H   0  0  0  0  0  0  0  0  0  0  0  0
   -7.2530    2.6192    0.5305 H   0  0  0  0  0  0  0  0  0  0  0  0
   -4.2877    5.9490    2.3421 H   0  0  0  0  0  0  0  0  0  0  0  0
   -2.3832    6.5655    0.9276 H   0  0  0  0  0  0  0  0  0  0  0  0
   -2.6635    6.7419   -5.4617 H   0  0  0  0  0  0  0  0  0  0  0  0
   -2.4711   12.0160   -4.8442 H   0  0  0  0  0  0  0  0  0  0  0  0
   -0.9147   13.5853   -3.7162 H   0  0  0  0  0  0  0  0  0  0  0  0
    1.4815   12.7216   -1.3578 H   0  0  0  0  0  0  0  0  0  0  0  0
    1.0456   14.0263   -2.4744 H   0  0  0  0  0  0  0  0  0  0  0  0
    2.3830   12.9305   -2.8516 H   0  0  0  0  0  0  0  0  0  0  0  0
    1.6417   10.3537   -2.6178 H   0  0  0  0  0  0  0  0  0  0  0  0
  1  2  2  0  0  0  0
  2  3  1  0  0  0  0
  3  4  2  0  0  0  0
  3  5  1  0  0  0  0
  5  6  2  0  0  0  0
  6  7  1  0  0  0  0
  7  8  2  0  0  0  0
  8  9  1  0  0  0  0
  8 10  1  0  0  0  0
 10 11  2  0  0  0  0
 11 12  1  0  0  0  0
 12 13  2  0  0  0  0
 13 14  1  0  0  0  0
 14 15  3  0  0  0  0
 13 16  1  0  0  0  0
 16 17  3  0  0  0  0
  1 18  1  0  0  0  0
 18 19  2  0  0  0  0
 19 20  1  0  0  0  0
 20 21  1  0  0  0  0
 21 22  2  0  0  0  0
 22 23  1  0  0  0  0
 23 24  2  0  0  0  0
 24 25  1  0  0  0  0
 24 26  1  0  0  0  0
 26 27  2  0  0  0  0
 20 28  1  0  0  0  0
 28 29  2  0  0  0  0
 29 30  1  0  0  0  0
 30 31  2  0  0  0  0
 31 32  1  0  0  0  0
 31 33  1  0  0  0  0
 33 34  2  0  0  0  0
 19 35  1  0  0  0  0
 35 36  1  0  0  0  0
 36 37  1  0  0  0  0
 37 38  2  0  0  0  0
 38 39  1  0  0  0  0
 39 40  1  0  0  0  0
 40 41  2  0  0  0  0
 41 42  1  0  0  0  0
 42 43  2  0  0  0  0
 43 44  1  0  0  0  0
 43 45  1  0  0  0  0
 45 46  2  0  0  0  0
 39 47  1  0  0  0  0
 47 48  2  0  0  0  0
 48 49  1  0  0  0  0
 49 50  2  0  0  0  0
 50 51  1  0  0  0  0
 50 52  1  0  0  0  0
 52 53  2  0  0  0  0
 38 54  1  0  0  0  0
 54 55  1  0  0  0  0
 37 56  1  0  0  0  0
 56 57  2  0  0  0  0
 57 58  1  0  0  0  0
 57 59  1  0  0  0  0
 59 60  1  0  0  0  0
 59 61  2  0  0  0  0
 61 62  1  0  0  0  0
 62 63  2  0  0  0  0
 63 64  1  0  0  0  0
 64 65  1  0  0  0  0
 65 66  1  0  0  0  0
 64 67  2  0  0  0  0
 67 68  1  0  0  0  0
 68 69  2  0  0  0  0
 67 70  1  0  0  0  0
 70 71  1  0  0  0  0
 61 72  1  0  0  0  0
 72 73  2  0  0  0  0
 73 74  1  0  0  0  0
 74 75  1  0  0  0  0
 75 76  2  0  0  0  0
 76 77  1  0  0  0  0
 77 78  2  0  0  0  0
 78 79  1  0  0  0  0
 79 80  1  0  0  0  0
 78 81  1  0  0  0  0
 81 82  2  0  0  0  0
 74 83  1  0  0  0  0
 83 84  2  0  0  0  0
 84 85  1  0  0  0  0
 85 86  2  0  0  0  0
 86 87  1  0  0  0  0
 87 88  1  0  0  0  0
 86 89  1  0  0  0  0
 89 90  2  0  0  0  0
 73 91  1  0  0  0  0
 91 92  1  0  0  0  0
 92 93  1  0  0  0  0
 93 94  2  0  0  0  0
 94 95  1  0  0  0  0
 95 96  1  0  0  0  0
 96 97  2  0  0  0  0
 97 98  1  0  0  0  0
 98 99  2  0  0  0  0
 99100  1  0  0  0  0
100101  1  0  0  0  0
 99102  1  0  0  0  0
102103  2  0  0  0  0
 95104  1  0  0  0  0
104105  2  0  0  0  0
105106  1  0  0  0  0
106107  2  0  0  0  0
107108  1  0  0  0  0
108109  1  0  0  0  0
107110  1  0  0  0  0
110111  2  0  0  0  0
 94112  1  0  0  0  0
112113  1  0  0  0  0
 93114  1  0  0  0  0
114115  2  0  0  0  0
115116  1  0  0  0  0
116117  2  0  0  0  0
116118  1  0  0  0  0
118119  2  0  0  0  0
119120  1  0  0  0  0
120121  2  0  0  0  0
121122  1  0  0  0  0
121123  1  0  0  0  0
123124  2  0  0  0  0
124125  1  0  0  0  0
125126  2  0  0  0  0
126127  1  0  0  0  0
127128  3  0  0  0  0
126129  1  0  0  0  0
129130  3  0  0  0  0
 12  2  1  0  0  0  0
 55 18  1  0  0  0  0
 69 56  1  0  0  0  0
113 72  1  0  0  0  0
125115  1  0  0  0  0
 11  5  1  0  0  0  0
 27 21  1  0  0  0  0
 34 28  1  0  0  0  0
 54 35  2  0  0  0  0
 69 62  1  0  0  0  0
 82 75  1  0  0  0  0
 90 83  1  0  0  0  0
112 91  2  0  0  0  0
124118  1  0  0  0  0
 46 40  1  0  0  0  0
 53 47  1  0  0  0  0
103 96  1  0  0  0  0
111104  1  0  0  0  0
  1131  1  0  0  0  0
  6132  1  0  0  0  0
  7133  1  0  0  0  0
  9134  1  0  0  0  0
  9135  1  0  0  0  0
  9136  1  0  0  0  0
 10137  1  0  0  0  0
 22138  1  0  0  0  0
 23139  1  0  0  0  0
 25140  1  0  0  0  0
 25141  1  0  0  0  0
 25142  1  0  0  0  0
 26143  1  0  0  0  0
 27144  1  0  0  0  0
 29145  1  0  0  0  0
 30146  1  0  0  0  0
 32147  1  0  0  0  0
 32148  1  0  0  0  0
 32149  1  0  0  0  0
 33150  1  0  0  0  0
 34151  1  0  0  0  0
 41152  1  0  0  0  0
 42153  1  0  0  0  0
 44154  1  0  0  0  0
 44155  1  0  0  0  0
 44156  1  0  0  0  0
 45157  1  0  0  0  0
 46158  1  0  0  0  0
 48159  1  0  0  0  0
 49160  1  0  0  0  0
 51161  1  0  0  0  0
 51162  1  0  0  0  0
 51163  1  0  0  0  0
 52164  1  0  0  0  0
 53165  1  0  0  0  0
 65166  1  0  0  0  0
 65167  1  0  0  0  0
 66168  1  0  0  0  0
 66169  1  0  0  0  0
 66170  1  0  0  0  0
 70171  1  0  0  0  0
 70172  1  0  0  0  0
 71173  1  0  0  0  0
 71174  1  0  0  0  0
 71175  1  0  0  0  0
 76176  1  0  0  0  0
 77177  1  0  0  0  0
 80178  1  0  0  0  0
 80179  1  0  0  0  0
 80180  1  0  0  0  0
 81181  1  0  0  0  0
 82182  1  0  0  0  0
 84183  1  0  0  0  0
 85184  1  0  0  0  0
 88185  1  0  0  0  0
 88186  1  0  0  0  0
 88187  1  0  0  0  0
 89188  1  0  0  0  0
 90189  1  0  0  0  0
 97190  1  0  0  0  0
 98191  1  0  0  0  0
101192  1  0  0  0  0
101193  1  0  0  0  0
101194  1  0  0  0  0
102195  1  0  0  0  0
103196  1  0  0  0  0
105197  1  0  0  0  0
106198  1  0  0  0  0
109199  1  0  0  0  0
109200  1  0  0  0  0
109201  1  0  0  0  0
110202  1  0  0  0  0
111203  1  0  0  0  0
114204  1  0  0  0  0
119205  1  0  0  0  0
120206  1  0  0  0  0
122207  1  0  0  0  0
122208  1  0  0  0  0
122209  1  0  0  0  0
123210  1  0  0  0  0
M  END
