
  xtb     02102217513D
 energy: -233.283553865174 gnorm: 0.000314912598 xtb: 6.4.1 (unknown)
140153  0     0  0            999 V2000
    7.3833   -1.5001   -2.4599 C   0  0  0  0  0  0  0  0  0  0  0  0
    8.4502   -1.3183   -1.6205 C   0  0  0  0  0  0  0  0  0  0  0  0
    8.3832   -1.1318   -0.1633 C   0  0  0  0  0  0  0  0  0  0  0  0
    7.3848   -1.0620    0.5301 O   0  0  0  0  0  0  0  0  0  0  0  0
    9.7803   -1.0537    0.2961 C   0  0  0  0  0  0  0  0  0  0  0  0
   10.2702   -0.8991    1.5787 C   0  0  0  0  0  0  0  0  0  0  0  0
   11.6430   -0.8556    1.7573 C   0  0  0  0  0  0  0  0  0  0  0  0
   12.5176   -0.9647    0.6772 C   0  0  0  0  0  0  0  0  0  0  0  0
   13.9951   -0.9261    0.9089 C   0  0  0  0  0  0  0  0  0  0  0  0
   12.0145   -1.1212   -0.6128 C   0  0  0  0  0  0  0  0  0  0  0  0
   10.6443   -1.1656   -0.8068 C   0  0  0  0  0  0  0  0  0  0  0  0
    9.8423   -1.3170   -2.0214 C   0  0  0  0  0  0  0  0  0  0  0  0
   10.3421   -1.4180   -3.2943 C   0  0  0  0  0  0  0  0  0  0  0  0
   11.7179   -1.4005   -3.6057 C   0  0  0  0  0  0  0  0  0  0  0  0
   12.8187   -1.3943   -3.9331 N   0  0  0  0  0  0  0  0  0  0  0  0
    9.5892   -1.5400   -4.4817 C   0  0  0  0  0  0  0  0  0  0  0  0
    9.0730   -1.6353   -5.5040 N   0  0  0  0  0  0  0  0  0  0  0  0
    6.0050   -1.5177   -2.1966 C   0  0  0  0  0  0  0  0  0  0  0  0
    5.0748   -1.7582   -3.2224 C   0  0  0  0  0  0  0  0  0  0  0  0
    5.4798   -1.9662   -4.6262 C   0  0  0  0  0  0  0  0  0  0  0  0
    5.7665   -3.2484   -5.0954 C   0  0  0  0  0  0  0  0  0  0  0  0
    6.1816   -3.4088   -6.4086 C   0  0  0  0  0  0  0  0  0  0  0  0
    6.3217   -2.3260   -7.2617 C   0  0  0  0  0  0  0  0  0  0  0  0
    6.7445   -2.5177   -8.6888 C   0  0  0  0  0  0  0  0  0  0  0  0
    5.5213   -2.6702   -9.5949 C   0  0  0  0  0  0  0  0  0  0  0  0
    6.0133   -1.0626   -6.7822 C   0  0  0  0  0  0  0  0  0  0  0  0
    5.5935   -0.8643   -5.4769 C   0  0  0  0  0  0  0  0  0  0  0  0
    5.3059    0.5343   -5.0010 C   0  0  0  0  0  0  0  0  0  0  0  0
    6.5860    1.2418   -4.5519 C   0  0  0  0  0  0  0  0  0  0  0  0
    5.6654   -4.4545   -4.2007 C   0  0  0  0  0  0  0  0  0  0  0  0
    7.0311   -4.8361   -3.6263 C   0  0  0  0  0  0  0  0  0  0  0  0
    3.7637   -1.7337   -2.7706 C   0  0  0  0  0  0  0  0  0  0  0  0
    3.6608   -1.4453   -1.4173 C   0  0  0  0  0  0  0  0  0  0  0  0
    5.2047   -1.2260   -0.6741 S   0  0  0  0  0  0  0  0  0  0  0  0
    2.4451   -1.2891   -0.6713 C   0  0  0  0  0  0  0  0  0  0  0  0
    1.2172   -1.7705   -1.1021 C   0  0  0  0  0  0  0  0  0  0  0  0
    0.0355   -1.5435   -0.4006 C   0  0  0  0  0  0  0  0  0  0  0  0
   -0.0207   -0.7989    0.7676 C   0  0  0  0  0  0  0  0  0  0  0  0
    1.2183   -0.3206    1.2695 C   0  0  0  0  0  0  0  0  0  0  0  0
    1.4390    0.3728    2.3865 N   0  0  0  0  0  0  0  0  0  0  0  0
    3.0153    0.6640    2.5209 S   0  0  0  0  0  0  0  0  0  0  0  0
    3.4978   -0.0647    1.1765 N   0  0  0  0  0  0  0  0  0  0  0  0
    2.4405   -0.5827    0.5586 C   0  0  0  0  0  0  0  0  0  0  0  0
   -1.2634   -0.4829    1.4141 C   0  0  0  0  0  0  0  0  0  0  0  0
   -1.4873    0.4902    2.3432 C   0  0  0  0  0  0  0  0  0  0  0  0
   -2.8458    0.6209    2.7184 C   0  0  0  0  0  0  0  0  0  0  0  0
   -3.4037    1.5928    3.5677 C   0  0  0  0  0  0  0  0  0  0  0  0
   -2.5521    2.5376    4.3003 C   0  0  0  0  0  0  0  0  0  0  0  0
   -1.4573    2.0495    5.0486 C   0  0  0  0  0  0  0  0  0  0  0  0
   -0.6492    2.9053    5.7374 C   0  0  0  0  0  0  0  0  0  0  0  0
   -0.8832    4.2969    5.7216 C   0  0  0  0  0  0  0  0  0  0  0  0
   -0.0640    5.2069    6.4196 C   0  0  0  0  0  0  0  0  0  0  0  0
   -0.3257    6.5483    6.3859 C   0  0  0  0  0  0  0  0  0  0  0  0
   -1.4185    7.0399    5.6544 C   0  0  0  0  0  0  0  0  0  0  0  0
   -2.2305    6.1834    4.9656 C   0  0  0  0  0  0  0  0  0  0  0  0
   -1.9862    4.7939    4.9792 C   0  0  0  0  0  0  0  0  0  0  0  0
   -2.8038    3.8882    4.2772 C   0  0  0  0  0  0  0  0  0  0  0  0
   -4.7860    1.6087    3.6614 C   0  0  0  0  0  0  0  0  0  0  0  0
   -5.6262    0.6685    3.0004 C   0  0  0  0  0  0  0  0  0  0  0  0
   -5.0601   -0.3367    2.1798 C   0  0  0  0  0  0  0  0  0  0  0  0
   -5.8530   -1.3404    1.5078 C   0  0  0  0  0  0  0  0  0  0  0  0
   -5.5344   -2.6620    1.3360 C   0  0  0  0  0  0  0  0  0  0  0  0
   -6.5072   -3.3973    0.6411 C   0  0  0  0  0  0  0  0  0  0  0  0
   -7.5694   -2.6279    0.2541 C   0  0  0  0  0  0  0  0  0  0  0  0
   -9.0310   -3.0524   -0.6014 S   0  0  0  0  0  0  0  0  0  0  0  0
   -8.6559   -4.7347   -1.2106 C   0  0  0  0  0  0  0  0  0  0  0  0
   -7.6386   -4.7280   -2.3348 C   0  0  0  0  0  0  0  0  0  0  0  0
   -7.3879   -0.9817    0.7582 S   0  0  0  0  0  0  0  0  0  0  0  0
   -3.6762   -0.3119    2.0489 C   0  0  0  0  0  0  0  0  0  0  0  0
   -2.7400   -1.3263    0.9828 S   0  0  0  0  0  0  0  0  0  0  0  0
   -6.9858    0.8764    3.2939 C   0  0  0  0  0  0  0  0  0  0  0  0
   -7.2219    1.9488    4.1205 C   0  0  0  0  0  0  0  0  0  0  0  0
   -5.7171    2.7295    4.6077 S   0  0  0  0  0  0  0  0  0  0  0  0
   -8.4134    2.5597    4.5714 C   0  0  0  0  0  0  0  0  0  0  0  0
   -9.7293    2.2531    4.3637 C   0  0  0  0  0  0  0  0  0  0  0  0
  -10.3155    1.0645    3.6923 C   0  0  0  0  0  0  0  0  0  0  0  0
   -9.7491    0.1028    3.2147 O   0  0  0  0  0  0  0  0  0  0  0  0
  -11.7738    1.2540    3.7479 C   0  0  0  0  0  0  0  0  0  0  0  0
  -12.7683    0.4359    3.2452 C   0  0  0  0  0  0  0  0  0  0  0  0
  -14.0860    0.8236    3.4168 C   0  0  0  0  0  0  0  0  0  0  0  0
  -14.4115    2.0057    4.0818 C   0  0  0  0  0  0  0  0  0  0  0  0
  -15.8461    2.4000    4.2376 C   0  0  0  0  0  0  0  0  0  0  0  0
  -13.4019    2.8220    4.5864 C   0  0  0  0  0  0  0  0  0  0  0  0
  -12.0781    2.4485    4.4193 C   0  0  0  0  0  0  0  0  0  0  0  0
  -10.8291    3.0945    4.8170 C   0  0  0  0  0  0  0  0  0  0  0  0
  -10.7489    4.2985    5.4667 C   0  0  0  0  0  0  0  0  0  0  0  0
  -11.8693    5.0575    5.8690 C   0  0  0  0  0  0  0  0  0  0  0  0
  -12.7257    5.7312    6.2312 N   0  0  0  0  0  0  0  0  0  0  0  0
   -9.5750    4.9917    5.8338 C   0  0  0  0  0  0  0  0  0  0  0  0
   -8.6918    5.6461    6.1685 N   0  0  0  0  0  0  0  0  0  0  0  0
    7.6091   -1.6684   -3.5075 H   0  0  0  0  0  0  0  0  0  0  0  0
    9.5891   -0.8150    2.4116 H   0  0  0  0  0  0  0  0  0  0  0  0
   12.0506   -0.7349    2.7505 H   0  0  0  0  0  0  0  0  0  0  0  0
   14.5357   -0.8486   -0.0305 H   0  0  0  0  0  0  0  0  0  0  0  0
   14.3163   -1.8351    1.4174 H   0  0  0  0  0  0  0  0  0  0  0  0
   14.2614   -0.0815    1.5417 H   0  0  0  0  0  0  0  0  0  0  0  0
   12.7003   -1.2062   -1.4401 H   0  0  0  0  0  0  0  0  0  0  0  0
    6.4075   -4.4029   -6.7687 H   0  0  0  0  0  0  0  0  0  0  0  0
    7.3700   -3.4080   -8.7722 H   0  0  0  0  0  0  0  0  0  0  0  0
    7.3312   -1.6574   -9.0153 H   0  0  0  0  0  0  0  0  0  0  0  0
    4.9293   -3.5306   -9.2902 H   0  0  0  0  0  0  0  0  0  0  0  0
    5.8272   -2.8080  -10.6295 H   0  0  0  0  0  0  0  0  0  0  0  0
    4.8919   -1.7850   -9.5340 H   0  0  0  0  0  0  0  0  0  0  0  0
    6.1097   -0.2079   -7.4367 H   0  0  0  0  0  0  0  0  0  0  0  0
    4.8602    1.1021   -5.8211 H   0  0  0  0  0  0  0  0  0  0  0  0
    4.5927    0.5181   -4.1745 H   0  0  0  0  0  0  0  0  0  0  0  0
    7.3418    1.1847   -5.3319 H   0  0  0  0  0  0  0  0  0  0  0  0
    6.9876    0.7769   -3.6542 H   0  0  0  0  0  0  0  0  0  0  0  0
    6.3837    2.2884   -4.3349 H   0  0  0  0  0  0  0  0  0  0  0  0
    5.2809   -5.2959   -4.7820 H   0  0  0  0  0  0  0  0  0  0  0  0
    4.9700   -4.2623   -3.3812 H   0  0  0  0  0  0  0  0  0  0  0  0
    7.7610   -4.9422   -4.4257 H   0  0  0  0  0  0  0  0  0  0  0  0
    7.3856   -4.0709   -2.9393 H   0  0  0  0  0  0  0  0  0  0  0  0
    6.9652   -5.7780   -3.0860 H   0  0  0  0  0  0  0  0  0  0  0  0
    2.9182   -1.8839   -3.4187 H   0  0  0  0  0  0  0  0  0  0  0  0
    1.1692   -2.3435   -2.0149 H   0  0  0  0  0  0  0  0  0  0  0  0
   -0.8871   -1.9414   -0.7982 H   0  0  0  0  0  0  0  0  0  0  0  0
   -0.7014    1.1211    2.7144 H   0  0  0  0  0  0  0  0  0  0  0  0
   -1.2825    0.9842    5.0846 H   0  0  0  0  0  0  0  0  0  0  0  0
    0.1840    2.5251    6.3114 H   0  0  0  0  0  0  0  0  0  0  0  0
    0.7749    4.8235    6.9834 H   0  0  0  0  0  0  0  0  0  0  0  0
    0.3057    7.2406    6.9235 H   0  0  0  0  0  0  0  0  0  0  0  0
   -1.6117    8.1025    5.6421 H   0  0  0  0  0  0  0  0  0  0  0  0
   -3.0749    6.5556    4.4037 H   0  0  0  0  0  0  0  0  0  0  0  0
   -3.6254    4.2795    3.6947 H   0  0  0  0  0  0  0  0  0  0  0  0
   -4.6446   -3.1115    1.7385 H   0  0  0  0  0  0  0  0  0  0  0  0
   -6.4169   -4.4509    0.4527 H   0  0  0  0  0  0  0  0  0  0  0  0
   -9.6191   -5.1079   -1.5577 H   0  0  0  0  0  0  0  0  0  0  0  0
   -8.3323   -5.3340   -0.3608 H   0  0  0  0  0  0  0  0  0  0  0  0
   -8.0052   -4.1373   -3.1708 H   0  0  0  0  0  0  0  0  0  0  0  0
   -7.4616   -5.7456   -2.6777 H   0  0  0  0  0  0  0  0  0  0  0  0
   -6.6943   -4.3033   -2.0018 H   0  0  0  0  0  0  0  0  0  0  0  0
   -7.7852    0.2638    2.9226 H   0  0  0  0  0  0  0  0  0  0  0  0
   -8.2223    3.4507    5.1579 H   0  0  0  0  0  0  0  0  0  0  0  0
  -12.5078   -0.4765    2.7311 H   0  0  0  0  0  0  0  0  0  0  0  0
  -14.8823    0.2040    3.0306 H   0  0  0  0  0  0  0  0  0  0  0  0
  -16.4327    1.5671    4.6211 H   0  0  0  0  0  0  0  0  0  0  0  0
  -15.9480    3.2453    4.9125 H   0  0  0  0  0  0  0  0  0  0  0  0
  -16.2618    2.6797    3.2696 H   0  0  0  0  0  0  0  0  0  0  0  0
  -13.6683    3.7317    5.0991 H   0  0  0  0  0  0  0  0  0  0  0  0
  1  2  2  0  0  0  0
  2  3  1  0  0  0  0
  3  4  2  0  0  0  0
  3  5  1  0  0  0  0
  5  6  2  0  0  0  0
  6  7  1  0  0  0  0
  7  8  2  0  0  0  0
  8  9  1  0  0  0  0
  8 10  1  0  0  0  0
 10 11  2  0  0  0  0
 11 12  1  0  0  0  0
 12 13  2  0  0  0  0
 13 14  1  0  0  0  0
 14 15  3  0  0  0  0
 13 16  1  0  0  0  0
 16 17  3  0  0  0  0
  1 18  1  0  0  0  0
 18 19  2  0  0  0  0
 19 20  1  0  0  0  0
 20 21  2  0  0  0  0
 21 22  1  0  0  0  0
 22 23  2  0  0  0  0
 23 24  1  0  0  0  0
 24 25  1  0  0  0  0
 23 26  1  0  0  0  0
 26 27  2  0  0  0  0
 27 28  1  0  0  0  0
 28 29  1  0  0  0  0
 21 30  1  0  0  0  0
 30 31  1  0  0  0  0
 19 32  1  0  0  0  0
 32 33  2  0  0  0  0
 33 34  1  0  0  0  0
 33 35  1  0  0  0  0
 35 36  2  0  0  0  0
 36 37  1  0  0  0  0
 37 38  2  0  0  0  0
 38 39  1  0  0  0  0
 39 40  2  0  0  0  0
 40 41  1  0  0  0  0
 41 42  1  0  0  0  0
 42 43  2  0  0  0  0
 38 44  1  0  0  0  0
 44 45  2  0  0  0  0
 45 46  1  0  0  0  0
 46 47  2  0  0  0  0
 47 48  1  0  0  0  0
 48 49  2  0  0  0  0
 49 50  1  0  0  0  0
 50 51  2  0  0  0  0
 51 52  1  0  0  0  0
 52 53  2  0  0  0  0
 53 54  1  0  0  0  0
 54 55  2  0  0  0  0
 55 56  1  0  0  0  0
 56 57  2  0  0  0  0
 47 58  1  0  0  0  0
 58 59  2  0  0  0  0
 59 60  1  0  0  0  0
 60 61  1  0  0  0  0
 61 62  2  0  0  0  0
 62 63  1  0  0  0  0
 63 64  2  0  0  0  0
 64 65  1  0  0  0  0
 65 66  1  0  0  0  0
 66 67  1  0  0  0  0
 64 68  1  0  0  0  0
 60 69  2  0  0  0  0
 69 70  1  0  0  0  0
 59 71  1  0  0  0  0
 71 72  2  0  0  0  0
 72 73  1  0  0  0  0
 72 74  1  0  0  0  0
 74 75  2  0  0  0  0
 75 76  1  0  0  0  0
 76 77  2  0  0  0  0
 76 78  1  0  0  0  0
 78 79  2  0  0  0  0
 79 80  1  0  0  0  0
 80 81  2  0  0  0  0
 81 82  1  0  0  0  0
 81 83  1  0  0  0  0
 83 84  2  0  0  0  0
 84 85  1  0  0  0  0
 85 86  2  0  0  0  0
 86 87  1  0  0  0  0
 87 88  3  0  0  0  0
 86 89  1  0  0  0  0
 89 90  3  0  0  0  0
 12  2  1  0  0  0  0
 34 18  1  0  0  0  0
 43 35  1  0  0  0  0
 70 44  1  0  0  0  0
 85 75  1  0  0  0  0
 11  5  1  0  0  0  0
 27 20  1  0  0  0  0
 43 39  1  0  0  0  0
 69 46  1  0  0  0  0
 84 78  1  0  0  0  0
 57 48  1  0  0  0  0
 73 58  1  0  0  0  0
 56 51  1  0  0  0  0
 68 61  1  0  0  0  0
  1 91  1  0  0  0  0
  6 92  1  0  0  0  0
  7 93  1  0  0  0  0
  9 94  1  0  0  0  0
  9 95  1  0  0  0  0
  9 96  1  0  0  0  0
 10 97  1  0  0  0  0
 22 98  1  0  0  0  0
 24 99  1  0  0  0  0
 24100  1  0  0  0  0
 25101  1  0  0  0  0
 25102  1  0  0  0  0
 25103  1  0  0  0  0
 26104  1  0  0  0  0
 28105  1  0  0  0  0
 28106  1  0  0  0  0
 29107  1  0  0  0  0
 29108  1  0  0  0  0
 29109  1  0  0  0  0
 30110  1  0  0  0  0
 30111  1  0  0  0  0
 31112  1  0  0  0  0
 31113  1  0  0  0  0
 31114  1  0  0  0  0
 32115  1  0  0  0  0
 36116  1  0  0  0  0
 37117  1  0  0  0  0
 45118  1  0  0  0  0
 49119  1  0  0  0  0
 50120  1  0  0  0  0
 52121  1  0  0  0  0
 53122  1  0  0  0  0
 54123  1  0  0  0  0
 55124  1  0  0  0  0
 57125  1  0  0  0  0
 62126  1  0  0  0  0
 63127  1  0  0  0  0
 66128  1  0  0  0  0
 66129  1  0  0  0  0
 67130  1  0  0  0  0
 67131  1  0  0  0  0
 67132  1  0  0  0  0
 71133  1  0  0  0  0
 74134  1  0  0  0  0
 79135  1  0  0  0  0
 80136  1  0  0  0  0
 82137  1  0  0  0  0
 82138  1  0  0  0  0
 82139  1  0  0  0  0
 83140  1  0  0  0  0
M  END
