113

C         -2.15530        7.06730       -2.45780
C         -3.06990        7.48140       -3.38170
C         -3.43360        6.77470       -4.62720
O         -2.97650        5.72980       -5.04740
C         -4.46600        7.59860       -5.27170
C         -5.14370        7.37330       -6.45510
C         -6.08830        8.30190       -6.85790
C         -6.35500        9.44000       -6.09730
C         -7.39640       10.41290       -6.55000
C         -5.66580        9.65940       -4.90600
C         -4.71950        8.73810       -4.48850
C         -3.86670        8.69580       -3.30180
C         -3.86160        9.62950       -2.30000
C         -3.07220        9.59190       -1.13050
N         -2.47920        9.64080       -0.14790
C         -4.67450       10.78380       -2.28850
N         -5.30340       11.74100       -2.21090
C         -1.38540        5.88430       -2.39420
C         -0.56530        5.61700       -1.31340
C          0.06350        4.36430       -1.37080
C          0.88690        3.75960       -0.39280
C          1.34010        4.50060        0.76870
S          1.18130        3.86890        2.38090
C          1.92730        5.26250        3.08480
C          2.16000        5.34870        4.55230
C          3.38570        4.52720        4.95880
C          2.28620        6.15040        2.11440
Cl         3.07010        7.64510        2.42410
C          1.94810        5.72670        0.80170
Cl         2.35480        6.64040       -0.59340
C          1.22710        2.43560       -0.60650
C          0.86040        1.71700       -1.77690
C          0.09150        2.33870       -2.78070
C         -0.30310        1.63290       -3.98100
C         -0.73660        0.34150       -4.11340
C         -1.03700       -0.00830       -5.44280
C         -0.83160        1.00520       -6.33020
C         -1.00670        0.99200       -7.80940
C          0.33770        1.09510       -8.53210
S         -0.26840        2.43080       -5.52800
C         -0.29940        3.65530       -2.54440
S         -1.37420        4.57670       -3.55610
C          1.36060        0.39590       -1.75520
C          2.04120        0.07680       -0.61400
S          2.15760        1.44450        0.48090
C          2.54380       -1.20910       -0.22830
C          3.17860       -1.41670        0.98840
C          3.53660       -2.67930        1.45260
C          3.26360       -3.83620        0.74020
C          2.71310       -3.66600       -0.55580
N          2.50730       -4.61100       -1.46950
S          1.89150       -3.94000       -2.78690
N          1.86530       -2.41250       -2.28070
C          2.35290       -2.35940       -1.04210
C          3.47420       -5.15030        1.30330
C          4.56420       -5.45900        2.13610
C          4.74160       -6.76860        2.73340
N          5.85360       -6.82910        3.47040
S          6.60240       -5.41460        3.40280
N          5.56890       -4.63570        2.46280
C          3.79560       -7.80140        2.59010
C          2.72900       -7.50670        1.72000
N          1.76660       -8.35380        1.34760
S          0.73840       -7.58170        0.39700
N          1.45170       -6.15610        0.36120
C          2.56960       -6.20730        1.09560
C          3.94840       -9.04870        3.26170
C          2.92020       -9.79230        3.75800
C          1.56560       -9.25840        4.06040
O          1.15600       -8.12710        3.91470
C          0.85060      -10.36350        4.72970
C         -0.44500      -10.37650        5.20820
C         -0.93380      -11.52000        5.82930
C         -2.32650      -11.60900        6.36140
C         -0.06800      -12.60990        5.94490
F         -0.53100      -13.72030        6.54940
C          1.23740      -12.62040        5.48190
C          1.70380      -11.47160        4.86120
C          2.99550      -11.14950        4.26270
C          4.05340      -12.00920        4.13140
C          5.26400      -11.70880        3.47120
N          6.26830      -11.55470        2.93660
C          4.06210      -13.33080        4.62510
N          4.13140      -14.40960        5.01100
H         -1.98890        7.71660       -1.60640
H         -4.93210        6.49080       -7.03910
H         -6.63270        8.14750       -7.77810
H         -7.28610       11.36760       -6.04310
H         -8.38880       10.02100       -6.32530
H         -7.33750       10.57010       -7.62490
H         -5.88140       10.54340       -4.32830
H         -0.46290        6.30020       -0.48910
H          1.28210        4.97460        5.08210
H          2.31200        6.39520        4.82130
H          3.54290        4.59710        6.03170
H          4.27290        4.89770        4.45160
H          3.24350        3.48250        4.69250
H         -0.88130       -0.32240       -3.28050
H         -1.39800       -0.97980       -5.73110
H         -1.51020        0.06600       -8.09520
H         -1.63810        1.83210       -8.10960
H          0.19020        1.06980       -9.60890
H          0.83420        2.02650       -8.27000
H          0.98410        0.26730       -8.24950
H          1.23340       -0.31120       -2.55240
H          3.36600       -0.56060        1.62020
H          3.99130       -2.76760        2.42630
H          4.97110       -9.37320        3.40720
H         -1.06750       -9.50220        5.09310
H         -2.84780      -10.66410        6.23990
H         -2.87840      -12.39020        5.83920
H         -2.30950      -11.87630        7.41730
H          1.83980      -13.50290        5.62020
