
  xtb     02032221513D
 energy: -309.395663550541 gnorm: 0.000192786741 xtb: 6.4.1 (unknown)
168186  0     0  0            999 V2000
    4.8996    3.2377   -6.0620 C   0  0  0  0  0  0  0  0  0  0  0  0
    4.0748    3.2124   -7.1455 C   0  0  0  0  0  0  0  0  0  0  0  0
    2.8421    2.3978   -7.3310 C   0  0  0  0  0  0  0  0  0  0  0  0
    2.5290    1.3584   -6.7885 O   0  0  0  0  0  0  0  0  0  0  0  0
    2.0506    3.1240   -8.3380 C   0  0  0  0  0  0  0  0  0  0  0  0
    0.7572    2.8852   -8.7650 C   0  0  0  0  0  0  0  0  0  0  0  0
    0.2276    3.7019   -9.7501 C   0  0  0  0  0  0  0  0  0  0  0  0
    0.9659    4.7491  -10.3004 C   0  0  0  0  0  0  0  0  0  0  0  0
    0.3556    5.6267  -11.3455 C   0  0  0  0  0  0  0  0  0  0  0  0
    2.2639    4.9933   -9.8544 C   0  0  0  0  0  0  0  0  0  0  0  0
    2.8072    4.1818   -8.8730 C   0  0  0  0  0  0  0  0  0  0  0  0
    4.1060    4.2059   -8.2108 C   0  0  0  0  0  0  0  0  0  0  0  0
    5.1797    4.9721   -8.5704 C   0  0  0  0  0  0  0  0  0  0  0  0
    6.4556    4.9032   -7.9688 C   0  0  0  0  0  0  0  0  0  0  0  0
    7.5222    4.8854   -7.5449 N   0  0  0  0  0  0  0  0  0  0  0  0
    5.1638    5.9025   -9.6316 C   0  0  0  0  0  0  0  0  0  0  0  0
    5.2086    6.6753  -10.4788 N   0  0  0  0  0  0  0  0  0  0  0  0
    4.9088    2.3737   -4.9370 C   0  0  0  0  0  0  0  0  0  0  0  0
    4.4906    1.0786   -4.7927 C   0  0  0  0  0  0  0  0  0  0  0  0
    4.5710    0.6087   -3.4657 C   0  0  0  0  0  0  0  0  0  0  0  0
    4.1287   -0.6391   -2.9887 C   0  0  0  0  0  0  0  0  0  0  0  0
    3.6542   -1.6779   -3.8878 C   0  0  0  0  0  0  0  0  0  0  0  0
    4.6782   -2.2974   -5.1492 S   0  0  0  0  0  0  0  0  0  0  0  0
    3.5053   -3.4712   -5.6325 C   0  0  0  0  0  0  0  0  0  0  0  0
    3.7523   -4.3943   -6.7750 C   0  0  0  0  0  0  0  0  0  0  0  0
    3.1217   -3.8523   -8.0598 C   0  0  0  0  0  0  0  0  0  0  0  0
    2.3825   -3.3606   -4.8678 C   0  0  0  0  0  0  0  0  0  0  0  0
    1.0201   -4.3842   -5.0425 Cl  0  0  0  0  0  0  0  0  0  0  0  0
    2.4577   -2.3413   -3.8817 C   0  0  0  0  0  0  0  0  0  0  0  0
    1.1311   -1.9391   -2.8715 Cl  0  0  0  0  0  0  0  0  0  0  0  0
    4.1166   -0.8042   -1.6148 C   0  0  0  0  0  0  0  0  0  0  0  0
    4.5486    0.1921   -0.7015 C   0  0  0  0  0  0  0  0  0  0  0  0
    5.1123    1.3926   -1.1837 C   0  0  0  0  0  0  0  0  0  0  0  0
    5.6827    2.3522   -0.2672 C   0  0  0  0  0  0  0  0  0  0  0  0
    6.3672    2.0876    0.8900 C   0  0  0  0  0  0  0  0  0  0  0  0
    6.8089    3.2467    1.5529 C   0  0  0  0  0  0  0  0  0  0  0  0
    6.4596    4.4002    0.9177 C   0  0  0  0  0  0  0  0  0  0  0  0
    6.7728    5.8043    1.3017 C   0  0  0  0  0  0  0  0  0  0  0  0
    7.8256    6.4100    0.3711 C   0  0  0  0  0  0  0  0  0  0  0  0
    5.5839    4.0688   -0.5390 S   0  0  0  0  0  0  0  0  0  0  0  0
    5.0654    1.5859   -2.5646 C   0  0  0  0  0  0  0  0  0  0  0  0
    5.5157    3.0315   -3.4188 S   0  0  0  0  0  0  0  0  0  0  0  0
    4.1933   -0.1372    0.6331 C   0  0  0  0  0  0  0  0  0  0  0  0
    3.5366   -1.3289    0.7411 C   0  0  0  0  0  0  0  0  0  0  0  0
    3.4654   -2.1853   -0.7873 S   0  0  0  0  0  0  0  0  0  0  0  0
    2.6632   -1.7933    1.7756 C   0  0  0  0  0  0  0  0  0  0  0  0
    1.4758   -2.3963    1.4808 C   0  0  0  0  0  0  0  0  0  0  0  0
    0.5821   -2.4600    2.5684 C   0  0  0  0  0  0  0  0  0  0  0  0
   -0.7867   -2.7897    2.4794 C   0  0  0  0  0  0  0  0  0  0  0  0
   -1.3020   -3.1622    1.1729 C   0  0  0  0  0  0  0  0  0  0  0  0
   -0.8241   -4.1344    0.3336 C   0  0  0  0  0  0  0  0  0  0  0  0
   -1.2889   -4.0192   -0.9823 C   0  0  0  0  0  0  0  0  0  0  0  0
   -2.1114   -2.9335   -1.1768 C   0  0  0  0  0  0  0  0  0  0  0  0
   -2.5599   -2.3308   -2.3913 C   0  0  0  0  0  0  0  0  0  0  0  0
   -2.0037   -2.6022   -3.5915 C   0  0  0  0  0  0  0  0  0  0  0  0
   -2.2154   -1.8579   -4.7875 C   0  0  0  0  0  0  0  0  0  0  0  0
   -3.1653   -0.9225   -5.1221 C   0  0  0  0  0  0  0  0  0  0  0  0
   -2.9441   -0.3108   -6.3630 C   0  0  0  0  0  0  0  0  0  0  0  0
   -1.8119   -0.7644   -6.9879 C   0  0  0  0  0  0  0  0  0  0  0  0
   -1.2277   -0.2337   -8.5425 S   0  0  0  0  0  0  0  0  0  0  0  0
    0.4932   -0.8717   -8.5076 C   0  0  0  0  0  0  0  0  0  0  0  0
    1.1594   -0.6291   -9.8469 C   0  0  0  0  0  0  0  0  0  0  0  0
   -1.0230   -1.9933   -6.0570 S   0  0  0  0  0  0  0  0  0  0  0  0
   -2.3938   -2.1017    0.3314 S   0  0  0  0  0  0  0  0  0  0  0  0
   -1.5496   -2.5351    3.6020 C   0  0  0  0  0  0  0  0  0  0  0  0
   -0.9836   -2.0795    4.8254 C   0  0  0  0  0  0  0  0  0  0  0  0
    0.4178   -1.8530    4.9450 C   0  0  0  0  0  0  0  0  0  0  0  0
    1.0002   -1.5212    6.2142 C   0  0  0  0  0  0  0  0  0  0  0  0
    0.5491   -1.8945    7.4634 C   0  0  0  0  0  0  0  0  0  0  0  0
    1.3243   -1.3938    8.5065 C   0  0  0  0  0  0  0  0  0  0  0  0
    2.4185   -0.6644    8.0901 C   0  0  0  0  0  0  0  0  0  0  0  0
    3.3064    0.0402    8.9648 C   0  0  0  0  0  0  0  0  0  0  0  0
    4.6220    0.3279    8.8636 C   0  0  0  0  0  0  0  0  0  0  0  0
    5.6320   -0.1239    7.9666 C   0  0  0  0  0  0  0  0  0  0  0  0
    6.9623    0.2248    8.0763 C   0  0  0  0  0  0  0  0  0  0  0  0
    7.8058   -0.4380    7.1809 C   0  0  0  0  0  0  0  0  0  0  0  0
    7.1317   -1.3154    6.3733 C   0  0  0  0  0  0  0  0  0  0  0  0
    7.8892   -2.4006    5.2418 S   0  0  0  0  0  0  0  0  0  0  0  0
    6.5582   -2.6524    4.0150 C   0  0  0  0  0  0  0  0  0  0  0  0
    6.3501   -1.4159    3.1659 C   0  0  0  0  0  0  0  0  0  0  0  0
    5.4266   -1.3208    6.7151 S   0  0  0  0  0  0  0  0  0  0  0  0
    2.4590   -0.5779    6.3550 S   0  0  0  0  0  0  0  0  0  0  0  0
    1.1483   -1.9544    3.7601 C   0  0  0  0  0  0  0  0  0  0  0  0
    2.7871   -1.4020    3.4777 S   0  0  0  0  0  0  0  0  0  0  0  0
   -1.9884   -1.7725    5.7581 C   0  0  0  0  0  0  0  0  0  0  0  0
   -3.2682   -1.9966    5.2965 C   0  0  0  0  0  0  0  0  0  0  0  0
   -3.2874   -2.6338    3.6722 S   0  0  0  0  0  0  0  0  0  0  0  0
   -4.4798   -1.6885    5.9653 C   0  0  0  0  0  0  0  0  0  0  0  0
   -4.5529   -1.1735    7.2790 C   0  0  0  0  0  0  0  0  0  0  0  0
   -5.8104   -0.7716    7.8740 C   0  0  0  0  0  0  0  0  0  0  0  0
   -5.6414   -0.3034    9.1107 N   0  0  0  0  0  0  0  0  0  0  0  0
   -4.0863   -0.3647    9.4913 S   0  0  0  0  0  4  0  0  0  0  0  0
   -3.5304   -0.9787    8.1157 N   0  0  0  0  0  0  0  0  0  0  0  0
   -7.0610   -0.8903    7.2218 C   0  0  0  0  0  0  0  0  0  0  0  0
   -6.9833   -1.4175    5.9144 C   0  0  0  0  0  0  0  0  0  0  0  0
   -7.9945   -1.5723    5.0549 N   0  0  0  0  0  0  0  0  0  0  0  0
   -7.4363   -2.1816    3.6766 S   0  0  0  0  0  0  0  0  0  0  0  0
   -5.8869   -2.2602    4.0722 N   0  0  0  0  0  0  0  0  0  0  0  0
   -5.7265   -1.8129    5.3181 C   0  0  0  0  0  0  0  0  0  0  0  0
   -8.2286   -0.4015    7.8568 C   0  0  0  0  0  0  0  0  0  0  0  0
   -9.5453   -0.6338    7.5843 C   0  0  0  0  0  0  0  0  0  0  0  0
  -10.5648    0.3476    8.0452 C   0  0  0  0  0  0  0  0  0  0  0  0
  -10.4100    1.2427    8.8441 O   0  0  0  0  0  0  0  0  0  0  0  0
  -11.7828    0.0262    7.2699 C   0  0  0  0  0  0  0  0  0  0  0  0
  -12.9792    0.7132    7.2114 C   0  0  0  0  0  0  0  0  0  0  0  0
  -13.9932    0.2517    6.3786 C   0  0  0  0  0  0  0  0  0  0  0  0
  -15.3097    0.9484    6.2607 C   0  0  0  0  0  0  0  0  0  0  0  0
  -13.7437   -0.9039    5.6362 C   0  0  0  0  0  0  0  0  0  0  0  0
  -14.7164   -1.3493    4.8171 F   0  0  0  0  0  0  0  0  0  0  0  0
  -12.5577   -1.6188    5.6838 C   0  0  0  0  0  0  0  0  0  0  0  0
  -11.5605   -1.1401    6.5166 C   0  0  0  0  0  0  0  0  0  0  0  0
  -10.2198   -1.6418    6.8063 C   0  0  0  0  0  0  0  0  0  0  0  0
   -9.7760   -2.9170    6.5675 C   0  0  0  0  0  0  0  0  0  0  0  0
   -8.5719   -3.4295    7.0878 C   0  0  0  0  0  0  0  0  0  0  0  0
   -7.6107   -3.8956    7.5094 N   0  0  0  0  0  0  0  0  0  0  0  0
  -10.4937   -3.8750    5.8263 C   0  0  0  0  0  0  0  0  0  0  0  0
  -11.0221   -4.6850    5.2071 N   0  0  0  0  0  0  0  0  0  0  0  0
    5.5835    4.0752   -5.9795 H   0  0  0  0  0  0  0  0  0  0  0  0
    0.1743    2.0862   -8.3348 H   0  0  0  0  0  0  0  0  0  0  0  0
   -0.7788    3.5255  -10.1000 H   0  0  0  0  0  0  0  0  0  0  0  0
    1.1213    6.1491  -11.9127 H   0  0  0  0  0  0  0  0  0  0  0  0
   -0.2842    6.3720  -10.8719 H   0  0  0  0  0  0  0  0  0  0  0  0
   -0.2610    5.0450  -12.0270 H   0  0  0  0  0  0  0  0  0  0  0  0
    2.8229    5.8148  -10.2731 H   0  0  0  0  0  0  0  0  0  0  0  0
    4.1191    0.4857   -5.6057 H   0  0  0  0  0  0  0  0  0  0  0  0
    4.8274   -4.5134   -6.9157 H   0  0  0  0  0  0  0  0  0  0  0  0
    3.3195   -5.3698   -6.5429 H   0  0  0  0  0  0  0  0  0  0  0  0
    2.0449   -3.7666   -7.9408 H   0  0  0  0  0  0  0  0  0  0  0  0
    3.3287   -4.5223   -8.8898 H   0  0  0  0  0  0  0  0  0  0  0  0
    3.5258   -2.8700   -8.2926 H   0  0  0  0  0  0  0  0  0  0  0  0
    6.5842    1.0909    1.2297 H   0  0  0  0  0  0  0  0  0  0  0  0
    7.3671    3.2263    2.4721 H   0  0  0  0  0  0  0  0  0  0  0  0
    5.8642    6.4097    1.2549 H   0  0  0  0  0  0  0  0  0  0  0  0
    7.1390    5.8144    2.3304 H   0  0  0  0  0  0  0  0  0  0  0  0
    8.7450    5.8305    0.4117 H   0  0  0  0  0  0  0  0  0  0  0  0
    7.4642    6.4128   -0.6547 H   0  0  0  0  0  0  0  0  0  0  0  0
    8.0452    7.4328    0.6661 H   0  0  0  0  0  0  0  0  0  0  0  0
    4.3082    0.5367    1.4627 H   0  0  0  0  0  0  0  0  0  0  0  0
    1.2080   -2.6910    0.4829 H   0  0  0  0  0  0  0  0  0  0  0  0
   -0.1487   -4.9044    0.6641 H   0  0  0  0  0  0  0  0  0  0  0  0
   -1.0085   -4.6969   -1.7680 H   0  0  0  0  0  0  0  0  0  0  0  0
   -3.2782   -1.5290   -2.2941 H   0  0  0  0  0  0  0  0  0  0  0  0
   -1.2558   -3.3793   -3.6569 H   0  0  0  0  0  0  0  0  0  0  0  0
   -4.0020   -0.6873   -4.4895 H   0  0  0  0  0  0  0  0  0  0  0  0
   -3.5785    0.4456   -6.7882 H   0  0  0  0  0  0  0  0  0  0  0  0
    1.0203   -0.3597   -7.7012 H   0  0  0  0  0  0  0  0  0  0  0  0
    0.4294   -1.9378   -8.2891 H   0  0  0  0  0  0  0  0  0  0  0  0
    0.6140   -1.1304  -10.6433 H   0  0  0  0  0  0  0  0  0  0  0  0
    1.1988    0.4349  -10.0702 H   0  0  0  0  0  0  0  0  0  0  0  0
    2.1757   -1.0158   -9.8224 H   0  0  0  0  0  0  0  0  0  0  0  0
   -0.2904   -2.5473    7.6151 H   0  0  0  0  0  0  0  0  0  0  0  0
    1.1161   -1.5791    9.5455 H   0  0  0  0  0  0  0  0  0  0  0  0
    2.8140    0.3817    9.8688 H   0  0  0  0  0  0  0  0  0  0  0  0
    5.0344    0.9455    9.6537 H   0  0  0  0  0  0  0  0  0  0  0  0
    7.3111    0.9473    8.7929 H   0  0  0  0  0  0  0  0  0  0  0  0
    8.8684   -0.2909    7.1203 H   0  0  0  0  0  0  0  0  0  0  0  0
    5.6534   -2.9327    4.5535 H   0  0  0  0  0  0  0  0  0  0  0  0
    6.8984   -3.4944    3.4133 H   0  0  0  0  0  0  0  0  0  0  0  0
    7.2872   -1.1171    2.7003 H   0  0  0  0  0  0  0  0  0  0  0  0
    5.6220   -1.6262    2.3865 H   0  0  0  0  0  0  0  0  0  0  0  0
    5.9789   -0.5925    3.7727 H   0  0  0  0  0  0  0  0  0  0  0  0
   -1.8217   -1.3292    6.7214 H   0  0  0  0  0  0  0  0  0  0  0  0
   -8.0422    0.3257    8.6416 H   0  0  0  0  0  0  0  0  0  0  0  0
  -13.1186    1.6023    7.8075 H   0  0  0  0  0  0  0  0  0  0  0  0
  -15.3227    1.8535    6.8608 H   0  0  0  0  0  0  0  0  0  0  0  0
  -16.1134    0.2909    6.5909 H   0  0  0  0  0  0  0  0  0  0  0  0
  -15.5080    1.2050    5.2207 H   0  0  0  0  0  0  0  0  0  0  0  0
  -12.4414   -2.5003    5.0747 H   0  0  0  0  0  0  0  0  0  0  0  0
  1  2  2  0  0  0  0
  2  3  1  0  0  0  0
  3  4  2  0  0  0  0
  3  5  1  0  0  0  0
  5  6  2  0  0  0  0
  6  7  1  0  0  0  0
  7  8  2  0  0  0  0
  8  9  1  0  0  0  0
  8 10  1  0  0  0  0
 10 11  2  0  0  0  0
 11 12  1  0  0  0  0
 12 13  2  0  0  0  0
 13 14  1  0  0  0  0
 14 15  3  0  0  0  0
 13 16  1  0  0  0  0
 16 17  3  0  0  0  0
  1 18  1  0  0  0  0
 18 19  2  0  0  0  0
 19 20  1  0  0  0  0
 20 21  2  0  0  0  0
 21 22  1  0  0  0  0
 22 23  1  0  0  0  0
 23 24  1  0  0  0  0
 24 25  1  0  0  0  0
 25 26  1  0  0  0  0
 24 27  2  0  0  0  0
 27 28  1  0  0  0  0
 27 29  1  0  0  0  0
 29 30  1  0  0  0  0
 21 31  1  0  0  0  0
 31 32  2  0  0  0  0
 32 33  1  0  0  0  0
 33 34  1  0  0  0  0
 34 35  2  0  0  0  0
 35 36  1  0  0  0  0
 36 37  2  0  0  0  0
 37 38  1  0  0  0  0
 38 39  1  0  0  0  0
 37 40  1  0  0  0  0
 33 41  2  0  0  0  0
 41 42  1  0  0  0  0
 32 43  1  0  0  0  0
 43 44  2  0  0  0  0
 44 45  1  0  0  0  0
 44 46  1  0  0  0  0
 46 47  2  0  0  0  0
 47 48  1  0  0  0  0
 48 49  2  0  0  0  0
 49 50  1  0  0  0  0
 50 51  2  0  0  0  0
 51 52  1  0  0  0  0
 52 53  2  0  0  0  0
 53 54  1  0  0  0  0
 54 55  2  0  0  0  0
 55 56  1  0  0  0  0
 56 57  2  0  0  0  0
 57 58  1  0  0  0  0
 58 59  2  0  0  0  0
 59 60  1  0  0  0  0
 60 61  1  0  0  0  0
 61 62  1  0  0  0  0
 59 63  1  0  0  0  0
 53 64  1  0  0  0  0
 49 65  1  0  0  0  0
 65 66  2  0  0  0  0
 66 67  1  0  0  0  0
 67 68  1  0  0  0  0
 68 69  2  0  0  0  0
 69 70  1  0  0  0  0
 70 71  2  0  0  0  0
 71 72  1  0  0  0  0
 72 73  2  0  0  0  0
 73 74  1  0  0  0  0
 74 75  2  0  0  0  0
 75 76  1  0  0  0  0
 76 77  2  0  0  0  0
 77 78  1  0  0  0  0
 78 79  1  0  0  0  0
 79 80  1  0  0  0  0
 77 81  1  0  0  0  0
 71 82  1  0  0  0  0
 67 83  2  0  0  0  0
 83 84  1  0  0  0  0
 66 85  1  0  0  0  0
 85 86  2  0  0  0  0
 86 87  1  0  0  0  0
 86 88  1  0  0  0  0
 88 89  2  0  0  0  0
 89 90  1  0  0  0  0
 90 91  1  0  0  0  0
 91 92  2  0  0  0  0
 92 93  2  0  0  0  0
 90 94  2  0  0  0  0
 94 95  1  0  0  0  0
 95 96  2  0  0  0  0
 96 97  1  0  0  0  0
 97 98  1  0  0  0  0
 98 99  2  0  0  0  0
 94100  1  0  0  0  0
100101  2  0  0  0  0
101102  1  0  0  0  0
102103  2  0  0  0  0
102104  1  0  0  0  0
104105  2  0  0  0  0
105106  1  0  0  0  0
106107  1  0  0  0  0
106108  2  0  0  0  0
108109  1  0  0  0  0
108110  1  0  0  0  0
110111  2  0  0  0  0
111112  1  0  0  0  0
112113  2  0  0  0  0
113114  1  0  0  0  0
114115  3  0  0  0  0
113116  1  0  0  0  0
116117  3  0  0  0  0
 12  2  1  0  0  0  0
 42 18  1  0  0  0  0
 84 46  1  0  0  0  0
 99 88  1  0  0  0  0
112101  1  0  0  0  0
 11  5  1  0  0  0  0
 41 20  1  0  0  0  0
 83 48  1  0  0  0  0
 93 89  1  0  0  0  0
 99 95  1  0  0  0  0
111104  1  0  0  0  0
 29 22  2  0  0  0  0
 45 31  1  0  0  0  0
 64 50  1  0  0  0  0
 87 65  1  0  0  0  0
 40 34  1  0  0  0  0
 63 56  1  0  0  0  0
 82 68  1  0  0  0  0
 81 74  1  0  0  0  0
  1118  1  0  0  0  0
  6119  1  0  0  0  0
  7120  1  0  0  0  0
  9121  1  0  0  0  0
  9122  1  0  0  0  0
  9123  1  0  0  0  0
 10124  1  0  0  0  0
 19125  1  0  0  0  0
 25126  1  0  0  0  0
 25127  1  0  0  0  0
 26128  1  0  0  0  0
 26129  1  0  0  0  0
 26130  1  0  0  0  0
 35131  1  0  0  0  0
 36132  1  0  0  0  0
 38133  1  0  0  0  0
 38134  1  0  0  0  0
 39135  1  0  0  0  0
 39136  1  0  0  0  0
 39137  1  0  0  0  0
 43138  1  0  0  0  0
 47139  1  0  0  0  0
 51140  1  0  0  0  0
 52141  1  0  0  0  0
 54142  1  0  0  0  0
 55143  1  0  0  0  0
 57144  1  0  0  0  0
 58145  1  0  0  0  0
 61146  1  0  0  0  0
 61147  1  0  0  0  0
 62148  1  0  0  0  0
 62149  1  0  0  0  0
 62150  1  0  0  0  0
 69151  1  0  0  0  0
 70152  1  0  0  0  0
 72153  1  0  0  0  0
 73154  1  0  0  0  0
 75155  1  0  0  0  0
 76156  1  0  0  0  0
 79157  1  0  0  0  0
 79158  1  0  0  0  0
 80159  1  0  0  0  0
 80160  1  0  0  0  0
 80161  1  0  0  0  0
 85162  1  0  0  0  0
100163  1  0  0  0  0
105164  1  0  0  0  0
107165  1  0  0  0  0
107166  1  0  0  0  0
107167  1  0  0  0  0
110168  1  0  0  0  0
M  END
