223

C          9.53250        0.38360       -6.18970
C          9.73130        0.06100       -7.50250
C          8.74220       -0.34260       -8.53510
O          7.58890       -0.69760       -8.39560
C          9.45300       -0.25260       -9.82090
C          8.95700       -0.44280      -11.09690
C          9.82140       -0.28750      -12.16760
C         11.15940        0.05280      -11.97410
C         12.06270        0.24650      -13.15010
C         11.65230        0.23480      -10.68300
C         10.80020        0.07810       -9.60310
C         11.02370        0.19310       -8.16430
C         12.24910        0.33610       -7.57110
C         12.51050        0.35690       -6.18330
N         12.82850        0.36380       -5.07980
C         13.46280        0.43860       -8.28470
N         14.48530        0.52980       -8.79870
C          8.36120        0.40870       -5.39940
C          7.06750        0.03320       -5.66380
C          6.17510        0.29160       -4.60770
C          4.78710        0.02660       -4.57470
C          4.07520       -0.50090       -5.71870
C          3.09470       -1.45450       -5.74050
C          2.61170       -1.75260       -7.03470
C          1.58690       -2.81850       -7.28030
C          2.25030       -4.15830       -7.60300
C          3.21990       -0.99970       -8.00140
C          3.06280       -1.03310       -9.48310
C          4.29920       -1.64730      -10.14510
S          4.38990        0.08090       -7.32530
C          4.14200        0.30280       -3.37820
C          4.78950        0.83190       -2.23390
C          6.16710        1.12830       -2.27710
C          6.86140        1.70410       -1.14470
C          6.71230        1.42550        0.18350
C          7.54980        2.18460        1.03220
C          7.56450        1.98750        2.51790
C          8.45330        0.80210        2.89720
C          8.34880        3.04850        0.33840
S          8.06870        2.93970       -1.36850
C          9.32870        4.04820        0.85210
C          8.67350        5.42000        1.03190
C          6.82310        0.84860       -3.47370
S          8.51850        1.06880       -3.77260
C          3.87690        1.03070       -1.16540
C          2.60030        0.66540       -1.45710
S          2.43470        0.09840       -3.10820
C          1.44840        0.61390       -0.60430
C          1.31640        0.01480        0.63760
N          2.30550       -0.67880        1.31230
C          2.24950       -0.74550        2.71250
C          2.48030       -1.95030        3.37090
C          2.36100       -2.03340        4.74340
C          2.00180       -0.91200        5.48040
S          1.79100       -0.92820        7.23380
C          1.45170       -2.67520        7.59560
C          1.81130        0.30400        4.83050
C          1.93690        0.38920        3.46120
C          3.30750       -1.35990        0.60690
C          4.61940       -1.36700        1.08020
C          5.63230       -1.89120        0.30670
C          5.36280       -2.41250       -0.95700
S          6.75470       -2.89330       -1.92730
C          6.04080       -3.29110       -3.54740
C          4.04430       -2.51070       -1.38040
C          3.02810       -1.99860       -0.59870
C         -0.02360        0.11660        1.09570
S         -0.84810       -0.35530        2.53800
C         -2.38370        0.23460        1.89390
C         -2.23960        0.79350        0.63020
N         -3.22400        1.37380       -0.14920
C         -4.21150        2.19290        0.40340
C         -5.48070        2.23620       -0.16850
C         -6.49010        2.97230        0.41720
C         -6.24900        3.67380        1.59080
S         -7.47610        4.59270        2.46100
C         -9.01530        4.15060        1.60980
C         -4.96730        3.67370        2.13800
C         -3.95700        2.95020        1.54790
C         -3.08530        1.25280       -1.54130
C         -2.70570        0.02860       -2.08900
C         -2.40800       -0.07890       -3.43170
C         -2.49430        1.03910       -4.25050
S         -2.01900        1.00740       -5.95210
C         -0.70740       -0.25280       -5.95300
C         -2.96330        2.24050       -3.72610
C         -3.25480        2.35040       -2.38410
C         -0.88960        0.71400        0.19800
S         -0.07330        1.21440       -1.23860
C         -3.51630        0.07190        2.74000
C         -3.45410       -0.16730        4.08720
C         -4.71150       -0.32130        4.70250
C         -4.96850       -0.55520        6.06950
C         -3.89370       -0.54260        7.04030
C         -2.88090        0.36590        7.15070
C         -1.99600        0.11780        8.22650
C         -0.86380        1.04290        8.55050
C         -1.32060        2.15400        9.49640
C         -2.33630       -1.00380        8.92780
C         -1.69660       -1.60220       10.13390
C         -2.53540       -1.35160       11.38890
S         -3.76230       -1.75460        8.28000
C         -6.29260       -0.77990        6.41380
C         -7.36520       -0.68440        5.48230
C         -7.11470       -0.32680        4.12810
C         -8.20450       -0.08900        3.21630
C         -9.46750        0.36090        3.50300
C        -10.33770        0.40450        2.39240
C        -11.78160        0.77750        2.54520
C        -12.02060        2.27690        2.37310
C         -9.71960        0.02410        1.23210
S         -8.05620       -0.39730        1.50550
C        -10.26800       -0.05780       -0.15190
C         -9.74720        1.07760       -1.03550
C         -5.77590       -0.22430        3.77050
S         -5.16940        0.07400        2.16370
C         -8.59770       -0.99550        6.07220
C         -8.52850       -1.26130        7.42320
S         -6.86640       -1.17700        8.00420
C         -9.52010       -1.59040        8.36500
C        -10.88860       -1.60380        8.26490
C        -11.74200       -1.18470        7.13850
O        -11.43450       -0.59420        6.12460
C        -13.11700       -1.61040        7.49860
C        -14.26210       -1.57000        6.72360
Cl       -14.27870       -0.82370        5.19030
C        -15.42330       -2.17540        7.22280
Cl       -16.87250       -2.12320        6.31480
C        -15.38650       -2.86080        8.43580
Cl       -16.78680       -3.68240        8.97500
C        -14.21930       -2.90250        9.21580
Cl       -14.19990       -3.91780       10.59820
C        -13.10230       -2.20430        8.77480
C        -11.77320       -2.00740        9.34890
C        -11.48220       -1.98930       10.68770
C        -10.20270       -1.78920       11.25230
N         -9.20940       -1.65510       11.81280
C        -12.44360       -1.98670       11.72270
N        -13.14850       -1.86710       12.62030
H         10.40470        0.73580       -5.65060
H          7.91990       -0.70410      -11.24150
H          9.45660       -0.42920      -13.17450
H         13.10240        0.09680      -12.87100
H         11.95820        1.26350      -13.52980
H         11.80580       -0.43820      -13.95510
H         12.68810        0.50070      -10.54720
H          6.78530       -0.42190       -6.59400
H          2.74830       -1.96520       -4.85910
H          0.97260       -2.92760       -6.38440
H          0.93230       -2.53010       -8.10510
H          2.90900       -4.45940       -6.79130
H          2.84150       -4.08100       -8.51170
H          1.49750       -4.93050       -7.74430
H          2.17540       -1.61090       -9.74740
H          2.93040       -0.01420       -9.85690
H          4.19920       -1.62310      -11.22770
H          5.19160       -1.09490       -9.85870
H          4.42630       -2.68080       -9.83050
H          6.05280        0.66100        0.54960
H          6.54470        1.79820        2.86170
H          7.92470        2.88890        3.01510
H          8.44930        0.65290        3.97460
H          9.47670        0.97700        2.57350
H          8.09650       -0.10730        2.41900
H          9.73310        3.70600        1.80660
H         10.15610        4.13680        0.14540
H          9.39840        6.13860        1.40570
H          8.28700        5.77820        0.08050
H          7.84760        5.35800        1.73710
H          4.15100        1.45360       -0.21760
H          2.74380       -2.82720        2.79800
H          2.54040       -2.97980        5.22780
H          2.36230       -3.26320        7.52570
H          1.07840       -2.69880        8.61450
H          0.69050       -3.04120        6.91360
H          1.56060        1.17790        5.41160
H          1.78580        1.33400        2.96000
H          4.83820       -0.93420        2.04600
H          6.65410       -1.87110        0.65390
H          5.46030       -2.44890       -3.91260
H          5.43720       -4.19180       -3.48080
H          6.88770       -3.46480       -4.20400
H          3.79580       -2.97390       -2.32160
H          2.00580       -2.07210       -0.93930
H         -5.67910        1.66570       -1.06330
H         -7.46370        2.97660       -0.04350
H         -9.14380        3.07230        1.63140
H         -9.00550        4.53330        0.59300
H         -9.80930        4.63170        2.17220
H         -4.77880        4.24460        3.03420
H         -2.96800        2.95190        1.98120
H         -2.62290       -0.83690       -1.44750
H         -2.10050       -1.03250       -3.83000
H         -0.13880       -0.09600       -6.86410
H         -1.13970       -1.24920       -5.95930
H         -0.06710       -0.10570       -5.08830
H         -3.05960        3.09580       -4.37670
H         -3.57510        3.29560       -1.97220
H         -2.52240       -0.23250        4.62010
H         -2.79020        1.22130        6.50400
H         -0.03970        0.49260        9.00530
H         -0.49430        1.48550        7.62360
H         -1.66070        1.73390       10.43980
H         -2.14240        2.71460        9.05610
H         -0.50060        2.83900        9.69820
H         -0.70200       -1.17210       10.26610
H         -1.58930       -2.68100        9.99070
H         -3.52340       -1.79170       11.27480
H         -2.05510       -1.79280       12.25880
H         -2.65370       -0.28440       11.56100
H         -9.77950        0.68660        4.47770
H        -12.38580        0.22870        1.82000
H        -12.09960        0.47960        3.54560
H        -13.07360        2.50600        2.51830
H        -11.44330        2.83640        3.10500
H        -11.73190        2.60280        1.37590
H         -9.97770       -1.01200       -0.59840
H        -11.35770       -0.01710       -0.11140
H        -10.14500        0.98360       -2.04300
H        -10.05040        2.04260       -0.63410
H         -8.66110        1.04240       -1.08590
H         -9.51690       -1.07220        5.52710
H         -9.11280       -1.88980        9.32320
