
  xtb     02042201173D
 energy: -315.603612911943 gnorm: 0.000399790888 xtb: 6.4.1 (unknown)
169186  0     0  0            999 V2000
   -5.3519    6.5071    4.7374 C   0  0  0  0  0  0  0  0  0  0  0  0
   -5.1124    7.6078    5.5084 C   0  0  0  0  0  0  0  0  0  0  0  0
   -3.9407    8.5018    5.4128 C   0  0  0  0  0  0  0  0  0  0  0  0
   -3.0482    8.4679    4.5881 O   0  0  0  0  0  0  0  0  0  0  0  0
   -4.0734    9.4582    6.5218 C   0  0  0  0  0  0  0  0  0  0  0  0
   -3.2209   10.4787    6.8978 C   0  0  0  0  0  0  0  0  0  0  0  0
   -3.5575   11.2429    8.0030 C   0  0  0  0  0  0  0  0  0  0  0  0
   -4.7237   10.9962    8.7258 C   0  0  0  0  0  0  0  0  0  0  0  0
   -5.0467   11.8162    9.9338 C   0  0  0  0  0  0  0  0  0  0  0  0
   -5.5802    9.9674    8.3363 C   0  0  0  0  0  0  0  0  0  0  0  0
   -5.2588    9.1974    7.2314 C   0  0  0  0  0  0  0  0  0  0  0  0
   -5.9495    8.0735    6.6013 C   0  0  0  0  0  0  0  0  0  0  0  0
   -7.1697    7.5815    6.9832 C   0  0  0  0  0  0  0  0  0  0  0  0
   -7.9301    8.0943    8.0561 C   0  0  0  0  0  0  0  0  0  0  0  0
   -8.6011    8.4587    8.9133 N   0  0  0  0  0  0  0  0  0  0  0  0
   -7.8614    6.5131    6.3739 C   0  0  0  0  0  0  0  0  0  0  0  0
   -8.4949    5.6581    5.9410 N   0  0  0  0  0  0  0  0  0  0  0  0
   -4.5835    5.9220    3.7082 C   0  0  0  0  0  0  0  0  0  0  0  0
   -4.9757    4.7448    3.0977 C   0  0  0  0  0  0  0  0  0  0  0  0
   -4.0635    4.2574    2.1507 C   0  0  0  0  0  0  0  0  0  0  0  0
   -4.1471    3.0619    1.3936 C   0  0  0  0  0  0  0  0  0  0  0  0
   -5.3715    2.2945    1.3710 C   0  0  0  0  0  0  0  0  0  0  0  0
   -6.6450    2.7936    1.3429 C   0  0  0  0  0  0  0  0  0  0  0  0
   -7.6269    1.7833    1.3054 C   0  0  0  0  0  0  0  0  0  0  0  0
   -9.3113    2.1362    1.2569 Cl  0  0  0  0  0  0  0  0  0  0  0  0
   -7.1276    0.5126    1.3172 C   0  0  0  0  0  0  0  0  0  0  0  0
   -7.8757   -0.7718    1.2523 C   0  0  0  0  0  0  0  0  0  0  0  0
   -7.9035   -1.3187   -0.1769 C   0  0  0  0  0  0  0  0  0  0  0  0
   -5.3969    0.5529    1.3463 S   0  0  0  0  0  0  0  0  0  0  0  0
   -3.0092    2.7107    0.6841 C   0  0  0  0  0  0  0  0  0  0  0  0
   -1.8685    3.5499    0.5732 C   0  0  0  0  0  0  0  0  0  0  0  0
   -1.8426    4.7995    1.2255 C   0  0  0  0  0  0  0  0  0  0  0  0
   -0.7464    5.7219    1.0286 C   0  0  0  0  0  0  0  0  0  0  0  0
   -0.0992    5.9906   -0.1465 C   0  0  0  0  0  0  0  0  0  0  0  0
    0.9106    6.9613   -0.0155 C   0  0  0  0  0  0  0  0  0  0  0  0
    1.0413    7.4362    1.2550 C   0  0  0  0  0  0  0  0  0  0  0  0
    2.0197    8.4315    1.7761 C   0  0  0  0  0  0  0  0  0  0  0  0
    3.1238    7.7512    2.5883 C   0  0  0  0  0  0  0  0  0  0  0  0
   -0.0989    6.6883    2.3221 S   0  0  0  0  0  0  0  0  0  0  0  0
   -2.9225    5.0953    2.0549 C   0  0  0  0  0  0  0  0  0  0  0  0
   -3.0491    6.4906    3.0874 S   0  0  0  0  0  0  0  0  0  0  0  0
   -0.8292    2.9348   -0.1666 C   0  0  0  0  0  0  0  0  0  0  0  0
   -1.1373    1.6776   -0.6037 C   0  0  0  0  0  0  0  0  0  0  0  0
   -2.7730    1.2122   -0.1704 S   0  0  0  0  0  0  0  0  0  0  0  0
   -0.3081    0.7032   -1.2312 C   0  0  0  0  0  0  0  0  0  0  0  0
    0.8191    0.8412   -2.0360 C   0  0  0  0  0  0  0  0  0  0  0  0
    1.3402    2.0125   -2.5499 N   0  0  0  0  0  0  0  0  0  0  0  0
    0.5626    3.0899   -2.9771 C   0  0  0  0  0  0  0  0  0  0  0  0
   -0.7806    2.9466   -3.3280 C   0  0  0  0  0  0  0  0  0  0  0  0
   -1.5215    4.0431   -3.7088 C   0  0  0  0  0  0  0  0  0  0  0  0
   -0.9401    5.3075   -3.7722 C   0  0  0  0  0  0  0  0  0  0  0  0
   -1.9856    6.6517   -4.2390 S   0  0  0  0  0  0  0  0  0  0  0  0
   -1.0462    8.1136   -3.7084 C   0  0  0  0  0  0  0  0  0  0  0  0
    0.4098    5.4470   -3.4761 C   0  0  0  0  0  0  0  0  0  0  0  0
    1.1467    4.3527   -3.0691 C   0  0  0  0  0  0  0  0  0  0  0  0
    2.7202    1.9951   -2.8614 C   0  0  0  0  0  0  0  0  0  0  0  0
    3.1605    2.2253   -4.1595 C   0  0  0  0  0  0  0  0  0  0  0  0
    4.4984    2.0998   -4.4773 C   0  0  0  0  0  0  0  0  0  0  0  0
    5.4137    1.7387   -3.4975 C   0  0  0  0  0  0  0  0  0  0  0  0
    7.1315    1.4788   -3.8030 S   0  0  0  0  0  0  0  0  0  0  0  0
    7.2587    1.5008   -5.6136 C   0  0  0  0  0  0  0  0  0  0  0  0
    4.9828    1.5601   -2.1851 C   0  0  0  0  0  0  0  0  0  0  0  0
    3.6485    1.6877   -1.8683 C   0  0  0  0  0  0  0  0  0  0  0  0
    1.4013   -0.4251   -2.2971 C   0  0  0  0  0  0  0  0  0  0  0  0
    2.8510   -0.9359   -3.0963 S   0  0  0  0  0  0  0  0  0  0  0  0
    2.5331   -2.6176   -2.6763 C   0  0  0  0  0  0  0  0  0  0  0  0
    1.3720   -2.7502   -1.8857 C   0  0  0  0  0  0  0  0  0  0  0  0
    0.9020   -3.8582   -1.2283 N   0  0  0  0  0  0  0  0  0  0  0  0
    1.7013   -4.8289   -0.6391 C   0  0  0  0  0  0  0  0  0  0  0  0
    1.1617   -6.0886   -0.3496 C   0  0  0  0  0  0  0  0  0  0  0  0
    1.9283   -7.0520    0.2578 C   0  0  0  0  0  0  0  0  0  0  0  0
    3.2600   -6.7964    0.5950 C   0  0  0  0  0  0  0  0  0  0  0  0
    4.1324   -8.0803    1.4028 S   0  0  0  0  0  0  0  0  0  0  0  0
    5.8660   -7.5754    1.2620 C   0  0  0  0  0  0  0  0  0  0  0  0
    3.7979   -5.5427    0.3202 C   0  0  0  0  0  0  0  0  0  0  0  0
    3.0248   -4.5704   -0.2757 C   0  0  0  0  0  0  0  0  0  0  0  0
   -0.4948   -3.9015   -1.0242 C   0  0  0  0  0  0  0  0  0  0  0  0
   -1.3510   -3.7638   -2.1164 C   0  0  0  0  0  0  0  0  0  0  0  0
   -2.7124   -3.7250   -1.9234 C   0  0  0  0  0  0  0  0  0  0  0  0
   -3.2459   -3.8161   -0.6370 C   0  0  0  0  0  0  0  0  0  0  0  0
   -4.9954   -3.7116   -0.5110 S   0  0  0  0  0  0  0  0  0  0  0  0
   -5.3133   -3.7414    1.2753 C   0  0  0  0  0  0  0  0  0  0  0  0
   -2.3941   -3.9820    0.4487 C   0  0  0  0  0  0  0  0  0  0  0  0
   -1.0281   -4.0277    0.2540 C   0  0  0  0  0  0  0  0  0  0  0  0
    0.7326   -1.4963   -1.7311 C   0  0  0  0  0  0  0  0  0  0  0  0
   -0.6792   -0.9771   -0.8755 S   0  0  0  0  0  0  0  0  0  0  0  0
    3.4485   -3.5686   -3.1709 C   0  0  0  0  0  0  0  0  0  0  0  0
    3.2577   -4.9707   -3.2485 C   0  0  0  0  0  0  0  0  0  0  0  0
    4.3154   -5.8835   -3.6336 C   0  0  0  0  0  0  0  0  0  0  0  0
    3.8738   -7.1320   -3.7264 N   0  0  0  0  0  0  0  0  0  0  0  0
    2.3136   -7.1773   -3.3526 S   0  0  0  0  0  4  0  0  0  0  0  0
    2.1010   -5.6081   -3.0655 N   0  0  0  0  0  0  0  0  0  0  0  0
    5.6269   -5.4508   -3.9592 C   0  0  0  0  0  0  0  0  0  0  0  0
    5.7593   -4.0413   -4.0530 C   0  0  0  0  0  0  0  0  0  0  0  0
    6.8535   -3.3885   -4.4343 N   0  0  0  0  0  0  0  0  0  0  0  0
    6.5840   -1.8051   -4.3642 S   0  0  0  0  0  0  0  0  0  0  0  0
    5.0655   -1.8643   -3.8270 N   0  0  0  0  0  0  0  0  0  0  0  0
    4.7009   -3.1363   -3.6842 C   0  0  0  0  0  0  0  0  0  0  0  0
    6.7039   -6.2834   -4.2923 C   0  0  0  0  0  0  0  0  0  0  0  0
    6.8879   -7.5961   -3.9123 C   0  0  0  0  0  0  0  0  0  0  0  0
    6.2897   -8.2257   -2.7353 C   0  0  0  0  0  0  0  0  0  0  0  0
    5.5666   -7.7239   -1.8947 O   0  0  0  0  0  0  0  0  0  0  0  0
    6.9131   -9.5726   -2.6441 C   0  0  0  0  0  0  0  0  0  0  0  0
    6.7054  -10.5652   -1.7046 C   0  0  0  0  0  0  0  0  0  0  0  0
    5.4324  -10.4698   -0.5708 Cl  0  0  0  0  0  0  0  0  0  0  0  0
    7.5567  -11.6789   -1.7097 C   0  0  0  0  0  0  0  0  0  0  0  0
    7.3134  -12.9451   -0.5835 Cl  0  0  0  0  0  0  0  0  0  0  0  0
    8.6259  -11.7346   -2.5990 C   0  0  0  0  0  0  0  0  0  0  0  0
    9.7207  -13.0477   -2.5140 Cl  0  0  0  0  0  0  0  0  0  0  0  0
    8.8261  -10.7292   -3.5596 C   0  0  0  0  0  0  0  0  0  0  0  0
   10.2547  -10.7860   -4.5090 Cl  0  0  0  0  0  0  0  0  0  0  0  0
    7.9161   -9.6837   -3.6289 C   0  0  0  0  0  0  0  0  0  0  0  0
    7.7945   -8.5351   -4.5265 C   0  0  0  0  0  0  0  0  0  0  0  0
    8.2275   -8.4512   -5.8267 C   0  0  0  0  0  0  0  0  0  0  0  0
    8.7987   -9.4867   -6.5941 C   0  0  0  0  0  0  0  0  0  0  0  0
    9.1811  -10.2763   -7.3351 N   0  0  0  0  0  0  0  0  0  0  0  0
    7.9833   -7.3358   -6.6586 C   0  0  0  0  0  0  0  0  0  0  0  0
    7.8300   -6.4796   -7.4084 N   0  0  0  0  0  0  0  0  0  0  0  0
   -6.2578    5.9505    4.9467 H   0  0  0  0  0  0  0  0  0  0  0  0
   -2.3179   10.6632    6.3365 H   0  0  0  0  0  0  0  0  0  0  0  0
   -2.9061   12.0454    8.3168 H   0  0  0  0  0  0  0  0  0  0  0  0
   -4.5283   11.4092   10.8028 H   0  0  0  0  0  0  0  0  0  0  0  0
   -4.7216   12.8458    9.8036 H   0  0  0  0  0  0  0  0  0  0  0  0
   -6.1134   11.8009   10.1411 H   0  0  0  0  0  0  0  0  0  0  0  0
   -6.4780    9.7865    8.9046 H   0  0  0  0  0  0  0  0  0  0  0  0
   -5.8799    4.2330    3.3755 H   0  0  0  0  0  0  0  0  0  0  0  0
   -6.8780    3.8413    1.3014 H   0  0  0  0  0  0  0  0  0  0  0  0
   -8.8965   -0.5962    1.5975 H   0  0  0  0  0  0  0  0  0  0  0  0
   -7.4065   -1.5001    1.9166 H   0  0  0  0  0  0  0  0  0  0  0  0
   -6.8931   -1.4984   -0.5360 H   0  0  0  0  0  0  0  0  0  0  0  0
   -8.3859   -0.6057   -0.8408 H   0  0  0  0  0  0  0  0  0  0  0  0
   -8.4571   -2.2533   -0.2123 H   0  0  0  0  0  0  0  0  0  0  0  0
   -0.3730    5.5327   -1.0792 H   0  0  0  0  0  0  0  0  0  0  0  0
    1.5193    7.2996   -0.8360 H   0  0  0  0  0  0  0  0  0  0  0  0
    2.4607    8.9686    0.9335 H   0  0  0  0  0  0  0  0  0  0  0  0
    1.5022    9.1537    2.4116 H   0  0  0  0  0  0  0  0  0  0  0  0
    3.6598    7.0331    1.9717 H   0  0  0  0  0  0  0  0  0  0  0  0
    2.6940    7.2252    3.4375 H   0  0  0  0  0  0  0  0  0  0  0  0
    3.8307    8.4900    2.9569 H   0  0  0  0  0  0  0  0  0  0  0  0
    0.1409    3.3772   -0.2966 H   0  0  0  0  0  0  0  0  0  0  0  0
   -1.2438    1.9727   -3.3104 H   0  0  0  0  0  0  0  0  0  0  0  0
   -2.5637    3.9316   -3.9649 H   0  0  0  0  0  0  0  0  0  0  0  0
   -0.7401    7.9932   -2.6733 H   0  0  0  0  0  0  0  0  0  0  0  0
   -0.1919    8.2729   -4.3602 H   0  0  0  0  0  0  0  0  0  0  0  0
   -1.7327    8.9499   -3.7966 H   0  0  0  0  0  0  0  0  0  0  0  0
    0.8962    6.4066   -3.5436 H   0  0  0  0  0  0  0  0  0  0  0  0
    2.1882    4.4781   -2.8130 H   0  0  0  0  0  0  0  0  0  0  0  0
    2.4451    2.4829   -4.9264 H   0  0  0  0  0  0  0  0  0  0  0  0
    4.8090    2.2686   -5.4953 H   0  0  0  0  0  0  0  0  0  0  0  0
    6.5647    0.7814   -6.0381 H   0  0  0  0  0  0  0  0  0  0  0  0
    8.2794    1.2081   -5.8393 H   0  0  0  0  0  0  0  0  0  0  0  0
    7.0738    2.5022   -5.9913 H   0  0  0  0  0  0  0  0  0  0  0  0
    5.7045    1.3046   -1.4250 H   0  0  0  0  0  0  0  0  0  0  0  0
    3.3089    1.5256   -0.8559 H   0  0  0  0  0  0  0  0  0  0  0  0
    0.1461   -6.3101   -0.6383 H   0  0  0  0  0  0  0  0  0  0  0  0
    1.5131   -8.0246    0.4720 H   0  0  0  0  0  0  0  0  0  0  0  0
    6.0637   -6.7130    1.8920 H   0  0  0  0  0  0  0  0  0  0  0  0
    6.0763   -7.3730    0.2151 H   0  0  0  0  0  0  0  0  0  0  0  0
    6.4503   -8.4236    1.6053 H   0  0  0  0  0  0  0  0  0  0  0  0
    4.8173   -5.3098    0.5802 H   0  0  0  0  0  0  0  0  0  0  0  0
    3.4489   -3.5929   -0.4485 H   0  0  0  0  0  0  0  0  0  0  0  0
   -0.9324   -3.6861   -3.1083 H   0  0  0  0  0  0  0  0  0  0  0  0
   -3.3822   -3.6162   -2.7621 H   0  0  0  0  0  0  0  0  0  0  0  0
   -6.3922   -3.6823    1.3768 H   0  0  0  0  0  0  0  0  0  0  0  0
   -4.8457   -2.8804    1.7447 H   0  0  0  0  0  0  0  0  0  0  0  0
   -4.9585   -4.6742    1.7033 H   0  0  0  0  0  0  0  0  0  0  0  0
   -2.7785   -4.0607    1.4520 H   0  0  0  0  0  0  0  0  0  0  0  0
   -0.3662   -4.1398    1.0997 H   0  0  0  0  0  0  0  0  0  0  0  0
    7.4797   -5.8024   -4.8756 H   0  0  0  0  0  0  0  0  0  0  0  0
  1  2  2  0  0  0  0
  2  3  1  0  0  0  0
  3  4  2  0  0  0  0
  3  5  1  0  0  0  0
  5  6  2  0  0  0  0
  6  7  1  0  0  0  0
  7  8  2  0  0  0  0
  8  9  1  0  0  0  0
  8 10  1  0  0  0  0
 10 11  2  0  0  0  0
 11 12  1  0  0  0  0
 12 13  2  0  0  0  0
 13 14  1  0  0  0  0
 14 15  3  0  0  0  0
 13 16  1  0  0  0  0
 16 17  3  0  0  0  0
  1 18  1  0  0  0  0
 18 19  2  0  0  0  0
 19 20  1  0  0  0  0
 20 21  2  0  0  0  0
 21 22  1  0  0  0  0
 22 23  2  0  0  0  0
 23 24  1  0  0  0  0
 24 25  1  0  0  0  0
 24 26  2  0  0  0  0
 26 27  1  0  0  0  0
 27 28  1  0  0  0  0
 26 29  1  0  0  0  0
 21 30  1  0  0  0  0
 30 31  2  0  0  0  0
 31 32  1  0  0  0  0
 32 33  1  0  0  0  0
 33 34  2  0  0  0  0
 34 35  1  0  0  0  0
 35 36  2  0  0  0  0
 36 37  1  0  0  0  0
 37 38  1  0  0  0  0
 36 39  1  0  0  0  0
 32 40  2  0  0  0  0
 40 41  1  0  0  0  0
 31 42  1  0  0  0  0
 42 43  2  0  0  0  0
 43 44  1  0  0  0  0
 43 45  1  0  0  0  0
 45 46  2  0  0  0  0
 46 47  1  0  0  0  0
 47 48  1  0  0  0  0
 48 49  2  0  0  0  0
 49 50  1  0  0  0  0
 50 51  2  0  0  0  0
 51 52  1  0  0  0  0
 52 53  1  0  0  0  0
 51 54  1  0  0  0  0
 54 55  2  0  0  0  0
 47 56  1  0  0  0  0
 56 57  2  0  0  0  0
 57 58  1  0  0  0  0
 58 59  2  0  0  0  0
 59 60  1  0  0  0  0
 60 61  1  0  0  0  0
 59 62  1  0  0  0  0
 62 63  2  0  0  0  0
 46 64  1  0  0  0  0
 64 65  1  0  0  0  0
 65 66  1  0  0  0  0
 66 67  2  0  0  0  0
 67 68  1  0  0  0  0
 68 69  1  0  0  0  0
 69 70  2  0  0  0  0
 70 71  1  0  0  0  0
 71 72  2  0  0  0  0
 72 73  1  0  0  0  0
 73 74  1  0  0  0  0
 72 75  1  0  0  0  0
 75 76  2  0  0  0  0
 68 77  1  0  0  0  0
 77 78  2  0  0  0  0
 78 79  1  0  0  0  0
 79 80  2  0  0  0  0
 80 81  1  0  0  0  0
 81 82  1  0  0  0  0
 80 83  1  0  0  0  0
 83 84  2  0  0  0  0
 67 85  1  0  0  0  0
 85 86  1  0  0  0  0
 66 87  1  0  0  0  0
 87 88  2  0  0  0  0
 88 89  1  0  0  0  0
 89 90  1  0  0  0  0
 90 91  2  0  0  0  0
 91 92  2  0  0  0  0
 89 93  2  0  0  0  0
 93 94  1  0  0  0  0
 94 95  2  0  0  0  0
 95 96  1  0  0  0  0
 96 97  1  0  0  0  0
 97 98  2  0  0  0  0
 93 99  1  0  0  0  0
 99100  2  0  0  0  0
100101  1  0  0  0  0
101102  2  0  0  0  0
101103  1  0  0  0  0
103104  2  0  0  0  0
104105  1  0  0  0  0
104106  1  0  0  0  0
106107  1  0  0  0  0
106108  2  0  0  0  0
108109  1  0  0  0  0
108110  1  0  0  0  0
110111  1  0  0  0  0
110112  2  0  0  0  0
112113  1  0  0  0  0
113114  2  0  0  0  0
114115  1  0  0  0  0
115116  3  0  0  0  0
114117  1  0  0  0  0
117118  3  0  0  0  0
 12  2  1  0  0  0  0
 41 18  1  0  0  0  0
 86 45  1  0  0  0  0
 98 87  1  0  0  0  0
113100  1  0  0  0  0
 11  5  1  0  0  0  0
 40 20  1  0  0  0  0
 55 48  1  0  0  0  0
 63 56  1  0  0  0  0
 85 64  2  0  0  0  0
 92 88  1  0  0  0  0
 98 94  1  0  0  0  0
112103  1  0  0  0  0
 29 22  1  0  0  0  0
 44 30  1  0  0  0  0
 76 69  1  0  0  0  0
 84 77  1  0  0  0  0
 39 33  1  0  0  0  0
  1119  1  0  0  0  0
  6120  1  0  0  0  0
  7121  1  0  0  0  0
  9122  1  0  0  0  0
  9123  1  0  0  0  0
  9124  1  0  0  0  0
 10125  1  0  0  0  0
 19126  1  0  0  0  0
 23127  1  0  0  0  0
 27128  1  0  0  0  0
 27129  1  0  0  0  0
 28130  1  0  0  0  0
 28131  1  0  0  0  0
 28132  1  0  0  0  0
 34133  1  0  0  0  0
 35134  1  0  0  0  0
 37135  1  0  0  0  0
 37136  1  0  0  0  0
 38137  1  0  0  0  0
 38138  1  0  0  0  0
 38139  1  0  0  0  0
 42140  1  0  0  0  0
 49141  1  0  0  0  0
 50142  1  0  0  0  0
 53143  1  0  0  0  0
 53144  1  0  0  0  0
 53145  1  0  0  0  0
 54146  1  0  0  0  0
 55147  1  0  0  0  0
 57148  1  0  0  0  0
 58149  1  0  0  0  0
 61150  1  0  0  0  0
 61151  1  0  0  0  0
 61152  1  0  0  0  0
 62153  1  0  0  0  0
 63154  1  0  0  0  0
 70155  1  0  0  0  0
 71156  1  0  0  0  0
 74157  1  0  0  0  0
 74158  1  0  0  0  0
 74159  1  0  0  0  0
 75160  1  0  0  0  0
 76161  1  0  0  0  0
 78162  1  0  0  0  0
 79163  1  0  0  0  0
 82164  1  0  0  0  0
 82165  1  0  0  0  0
 82166  1  0  0  0  0
 83167  1  0  0  0  0
 84168  1  0  0  0  0
 99169  1  0  0  0  0
M  END
