
  xtb     02042203023D
 energy: -328.625063415997 gnorm: 0.000712319984 xtb: 6.4.1 (unknown)
181196  0     0  0            999 V2000
    5.1395   -2.0923   -0.6394 C   0  0  0  0  0  0  0  0  0  0  0  0
    5.9451   -3.1200   -0.2895 C   0  0  0  0  0  0  0  0  0  0  0  0
    6.3652   -3.3636    1.1149 C   0  0  0  0  0  0  0  0  0  0  0  0
    5.9575   -2.8002    2.1091 O   0  0  0  0  0  0  0  0  0  0  0  0
    7.4050   -4.4024    1.0308 C   0  0  0  0  0  0  0  0  0  0  0  0
    8.1511   -4.9754    2.0439 C   0  0  0  0  0  0  0  0  0  0  0  0
    9.0904   -5.9358    1.7093 C   0  0  0  0  0  0  0  0  0  0  0  0
    9.2930   -6.3235    0.3845 C   0  0  0  0  0  0  0  0  0  0  0  0
   10.3248   -7.3580    0.0639 C   0  0  0  0  0  0  0  0  0  0  0  0
    8.5377   -5.7435   -0.6314 C   0  0  0  0  0  0  0  0  0  0  0  0
    7.5909   -4.7841   -0.3110 C   0  0  0  0  0  0  0  0  0  0  0  0
    6.6590   -4.0411   -1.1520 C   0  0  0  0  0  0  0  0  0  0  0  0
    6.4265   -4.2409   -2.4852 C   0  0  0  0  0  0  0  0  0  0  0  0
    7.1375   -5.1561   -3.2885 C   0  0  0  0  0  0  0  0  0  0  0  0
    7.6869   -5.8788   -3.9911 N   0  0  0  0  0  0  0  0  0  0  0  0
    5.4035   -3.5936   -3.2085 C   0  0  0  0  0  0  0  0  0  0  0  0
    4.5586   -3.1327   -3.8351 N   0  0  0  0  0  0  0  0  0  0  0  0
    4.3713   -1.3424    0.3487 C   0  0  0  0  0  0  0  0  0  0  0  0
    3.3209   -1.9542    1.0579 C   0  0  0  0  0  0  0  0  0  0  0  0
    3.0489   -3.6911    0.8219 S   0  0  0  0  0  0  0  0  0  0  0  0
    1.2695   -3.7678    0.3504 C   0  0  0  0  0  0  0  0  0  0  0  0
    0.5392   -4.8325    1.1416 C   0  0  0  0  0  0  0  0  0  0  0  0
    2.5603   -1.1981    1.9283 C   0  0  0  0  0  0  0  0  0  0  0  0
    1.4544   -2.0298    3.0522 S   0  0  0  0  0  0  0  0  0  0  0  0
    2.7029   -2.3517    4.3545 C   0  0  0  0  0  0  0  0  0  0  0  0
    3.0166   -1.1083    5.1582 C   0  0  0  0  0  0  0  0  0  0  0  0
    2.7103    0.2104    1.9994 C   0  0  0  0  0  0  0  0  0  0  0  0
    3.9105    0.7700    1.4819 C   0  0  0  0  0  0  0  0  0  0  0  0
    4.7046   -0.0207    0.6347 C   0  0  0  0  0  0  0  0  0  0  0  0
    5.9257    0.4627   -0.0214 C   0  0  0  0  0  0  0  0  0  0  0  0
    6.5330   -0.2403   -0.8178 O   0  0  0  0  0  0  0  0  0  0  0  0
    6.3361    1.8002    0.3712 C   0  0  0  0  0  0  0  0  0  0  0  0
    5.6297    2.5349    1.3702 C   0  0  0  0  0  0  0  0  0  0  0  0
    4.3859    2.0589    1.9922 C   0  0  0  0  0  0  0  0  0  0  0  0
    3.8380    2.6736    2.8973 O   0  0  0  0  0  0  0  0  0  0  0  0
    6.2186    3.7371    1.6285 C   0  0  0  0  0  0  0  0  0  0  0  0
    7.6073    4.0003    0.6547 S   0  0  0  0  0  0  0  0  0  0  0  0
    7.4243    2.4781   -0.1044 C   0  0  0  0  0  0  0  0  0  0  0  0
    1.6604    1.0093    2.4912 C   0  0  0  0  0  0  0  0  0  0  0  0
    1.1502    2.2681    2.2113 C   0  0  0  0  0  0  0  0  0  0  0  0
    1.5676    3.4090    1.6032 N   0  0  0  0  0  0  0  0  0  0  0  0
    0.9242    4.5916    2.0210 C   0  0  0  0  0  0  0  0  0  0  0  0
    0.6703    4.7909    3.3775 C   0  0  0  0  0  0  0  0  0  0  0  0
   -0.0028    5.9157    3.7961 C   0  0  0  0  0  0  0  0  0  0  0  0
   -0.4328    6.8675    2.8717 C   0  0  0  0  0  0  0  0  0  0  0  0
   -1.2890    8.2619    3.5272 S   0  0  0  0  0  0  0  0  0  0  0  0
   -1.7717    9.2140    2.0592 C   0  0  0  0  0  0  0  0  0  0  0  0
   -0.1668    6.6779    1.5218 C   0  0  0  0  0  0  0  0  0  0  0  0
    0.5032    5.5459    1.1004 C   0  0  0  0  0  0  0  0  0  0  0  0
    2.4686    3.4448    0.5426 C   0  0  0  0  0  0  0  0  0  0  0  0
    3.2855    4.5595    0.3484 C   0  0  0  0  0  0  0  0  0  0  0  0
    4.1997    4.5921   -0.6821 C   0  0  0  0  0  0  0  0  0  0  0  0
    4.3256    3.5030   -1.5401 C   0  0  0  0  0  0  0  0  0  0  0  0
    5.5079    3.4039   -2.8427 S   0  0  0  0  0  0  0  0  0  0  0  0
    6.2699    5.0527   -2.8754 C   0  0  0  0  0  0  0  0  0  0  0  0
    3.4917    2.4013   -1.3695 C   0  0  0  0  0  0  0  0  0  0  0  0
    2.5732    2.3685   -0.3412 C   0  0  0  0  0  0  0  0  0  0  0  0
   -0.2187    2.0023    2.6223 C   0  0  0  0  0  0  0  0  0  0  0  0
   -1.6074    3.3078    0.5422 S   0  0  0  0  0  0  0  0  0  0  0  0
   -2.6855    1.8600    0.4421 C   0  0  0  0  0  0  0  0  0  0  0  0
   -2.4662    1.4143    1.7123 C   0  0  0  0  0  0  0  0  0  0  0  0
   -2.8974    0.2978    2.3735 N   0  0  0  0  0  0  0  0  0  0  0  0
   -3.1074   -0.8634    1.5872 C   0  0  0  0  0  0  0  0  0  0  0  0
   -4.3697   -1.4239    1.4526 C   0  0  0  0  0  0  0  0  0  0  0  0
   -4.5710   -2.4904    0.5936 C   0  0  0  0  0  0  0  0  0  0  0  0
   -3.5156   -2.9813   -0.1647 C   0  0  0  0  0  0  0  0  0  0  0  0
   -3.6635   -4.2398   -1.3895 S   0  0  0  0  0  0  0  0  0  0  0  0
   -5.4116   -4.7251   -1.3391 C   0  0  0  0  0  0  0  0  0  0  0  0
   -2.2360   -2.4607    0.0228 C   0  0  0  0  0  0  0  0  0  0  0  0
   -2.0302   -1.4247    0.9051 C   0  0  0  0  0  0  0  0  0  0  0  0
   -2.9504    0.2562    3.7638 C   0  0  0  0  0  0  0  0  0  0  0  0
   -3.0533    1.4318    4.5043 C   0  0  0  0  0  0  0  0  0  0  0  0
   -3.0888    1.3952    5.8840 C   0  0  0  0  0  0  0  0  0  0  0  0
   -3.0351    0.1788    6.5497 C   0  0  0  0  0  0  0  0  0  0  0  0
   -3.0838    0.0039    8.3068 S   0  0  0  0  0  0  0  0  0  0  0  0
   -3.1026    1.7132    8.9181 C   0  0  0  0  0  0  0  0  0  0  0  0
   -2.9466   -1.0001    5.8118 C   0  0  0  0  0  0  0  0  0  0  0  0
   -2.9021   -0.9657    4.4373 C   0  0  0  0  0  0  0  0  0  0  0  0
   -1.3680    2.3234    2.0309 C   0  0  0  0  0  0  0  0  0  0  0  0
    0.1720    0.3811    3.3017 S   0  0  0  0  0  0  0  0  0  0  0  0
   -3.2063    1.2077   -0.7460 C   0  0  0  0  0  0  0  0  0  0  0  0
   -4.5538    1.3987   -1.0883 C   0  0  0  0  0  0  0  0  0  0  0  0
   -5.4234    2.5725   -0.0860 S   0  0  0  0  0  0  0  0  0  0  0  0
   -6.0274    3.7779   -1.3301 C   0  0  0  0  0  0  0  0  0  0  0  0
   -4.9321    4.2077   -2.2832 C   0  0  0  0  0  0  0  0  0  0  0  0
   -5.1196    0.7166   -2.1656 C   0  0  0  0  0  0  0  0  0  0  0  0
   -6.8121    0.8893   -2.6745 S   0  0  0  0  0  0  0  0  0  0  0  0
   -7.7239    0.3710   -1.1722 C   0  0  0  0  0  0  0  0  0  0  0  0
   -7.5018   -1.1008   -0.9005 C   0  0  0  0  0  0  0  0  0  0  0  0
   -4.3035   -0.1291   -2.9250 C   0  0  0  0  0  0  0  0  0  0  0  0
   -2.9479   -0.2644   -2.6280 C   0  0  0  0  0  0  0  0  0  0  0  0
   -2.3722    0.4092   -1.5407 C   0  0  0  0  0  0  0  0  0  0  0  0
   -0.9298    0.2674   -1.2474 C   0  0  0  0  0  0  0  0  0  0  0  0
   -0.3531    0.8816   -0.3627 O   0  0  0  0  0  0  0  0  0  0  0  0
   -0.2207   -0.6940   -2.0941 C   0  0  0  0  0  0  0  0  0  0  0  0
   -0.8323   -1.3926   -3.1784 C   0  0  0  0  0  0  0  0  0  0  0  0
   -2.2253   -1.1762   -3.5195 C   0  0  0  0  0  0  0  0  0  0  0  0
   -2.8110   -1.7099   -4.4551 O   0  0  0  0  0  0  0  0  0  0  0  0
    0.0434   -2.2388   -3.8068 C   0  0  0  0  0  0  0  0  0  0  0  0
    1.5997   -2.2004   -3.1030 S   0  0  0  0  0  0  0  0  0  0  0  0
    1.0954   -1.0399   -1.9488 C   0  0  0  0  0  0  0  0  0  0  0  0
   -4.8681   -0.9341   -4.0071 C   0  0  0  0  0  0  0  0  0  0  0  0
   -5.3467   -0.3738   -5.1442 C   0  0  0  0  0  0  0  0  0  0  0  0
   -5.0078    1.0047   -5.5462 C   0  0  0  0  0  0  0  0  0  0  0  0
   -4.4418    1.8444   -4.8828 O   0  0  0  0  0  0  0  0  0  0  0  0
   -5.4624    1.1151   -6.9518 C   0  0  0  0  0  0  0  0  0  0  0  0
   -5.2999    2.1741   -7.8275 C   0  0  0  0  0  0  0  0  0  0  0  0
   -4.6255    3.6535   -7.3118 Cl  0  0  0  0  0  0  0  0  0  0  0  0
   -5.6993    2.0040   -9.1603 C   0  0  0  0  0  0  0  0  0  0  0  0
   -5.5454    3.2955  -10.2691 Cl  0  0  0  0  0  0  0  0  0  0  0  0
   -6.1868    0.7706   -9.5912 C   0  0  0  0  0  0  0  0  0  0  0  0
   -6.5832    0.5587  -11.2410 Cl  0  0  0  0  0  0  0  0  0  0  0  0
   -6.3475   -0.3023   -8.7001 C   0  0  0  0  0  0  0  0  0  0  0  0
   -6.8052   -1.8282   -9.3327 Cl  0  0  0  0  0  0  0  0  0  0  0  0
   -6.0414   -0.1074   -7.3586 C   0  0  0  0  0  0  0  0  0  0  0  0
   -6.1466   -0.9786   -6.1929 C   0  0  0  0  0  0  0  0  0  0  0  0
   -7.0182   -2.0108   -5.9767 C   0  0  0  0  0  0  0  0  0  0  0  0
   -7.1166   -2.6628   -4.7272 C   0  0  0  0  0  0  0  0  0  0  0  0
   -7.2693   -3.2060   -3.7270 N   0  0  0  0  0  0  0  0  0  0  0  0
   -8.0512   -2.4604   -6.8274 C   0  0  0  0  0  0  0  0  0  0  0  0
   -8.9703   -2.8554   -7.3893 N   0  0  0  0  0  0  0  0  0  0  0  0
    4.9438   -1.8623   -1.6785 H   0  0  0  0  0  0  0  0  0  0  0  0
    7.9939   -4.6734    3.0681 H   0  0  0  0  0  0  0  0  0  0  0  0
    9.6834   -6.3983    2.4851 H   0  0  0  0  0  0  0  0  0  0  0  0
   10.3142   -7.6059   -0.9938 H   0  0  0  0  0  0  0  0  0  0  0  0
   11.3172   -6.9922    0.3259 H   0  0  0  0  0  0  0  0  0  0  0  0
   10.1445   -8.2644    0.6396 H   0  0  0  0  0  0  0  0  0  0  0  0
    8.7016   -6.0445   -1.6540 H   0  0  0  0  0  0  0  0  0  0  0  0
    1.2608   -3.9975   -0.7163 H   0  0  0  0  0  0  0  0  0  0  0  0
    0.8434   -2.7823    0.5206 H   0  0  0  0  0  0  0  0  0  0  0  0
   -0.4937   -4.8963    0.8056 H   0  0  0  0  0  0  0  0  0  0  0  0
    0.5473   -4.5859    2.1997 H   0  0  0  0  0  0  0  0  0  0  0  0
    1.0133   -5.8008    1.0011 H   0  0  0  0  0  0  0  0  0  0  0  0
    2.2444   -3.1216    4.9739 H   0  0  0  0  0  0  0  0  0  0  0  0
    3.5864   -2.7540    3.8588 H   0  0  0  0  0  0  0  0  0  0  0  0
    3.4763   -0.3450    4.5326 H   0  0  0  0  0  0  0  0  0  0  0  0
    3.7112   -1.3572    5.9579 H   0  0  0  0  0  0  0  0  0  0  0  0
    2.1083   -0.6982    5.5953 H   0  0  0  0  0  0  0  0  0  0  0  0
    5.8973    4.4809    2.3299 H   0  0  0  0  0  0  0  0  0  0  0  0
    8.1135    2.1524   -0.8580 H   0  0  0  0  0  0  0  0  0  0  0  0
    1.0203    4.0642    4.0945 H   0  0  0  0  0  0  0  0  0  0  0  0
   -0.2011    6.0764    4.8446 H   0  0  0  0  0  0  0  0  0  0  0  0
   -0.8883    9.5705    1.5376 H   0  0  0  0  0  0  0  0  0  0  0  0
   -2.3955    8.6042    1.4125 H   0  0  0  0  0  0  0  0  0  0  0  0
   -2.3422   10.0580    2.4342 H   0  0  0  0  0  0  0  0  0  0  0  0
   -0.4861    7.3951    0.7836 H   0  0  0  0  0  0  0  0  0  0  0  0
    0.6855    5.3927    0.0475 H   0  0  0  0  0  0  0  0  0  0  0  0
    3.2150    5.3953    1.0278 H   0  0  0  0  0  0  0  0  0  0  0  0
    4.8222    5.4645   -0.7986 H   0  0  0  0  0  0  0  0  0  0  0  0
    6.8222    5.2332   -1.9572 H   0  0  0  0  0  0  0  0  0  0  0  0
    5.5073    5.8088   -3.0356 H   0  0  0  0  0  0  0  0  0  0  0  0
    6.9545    5.0368   -3.7177 H   0  0  0  0  0  0  0  0  0  0  0  0
    3.5761    1.5708   -2.0547 H   0  0  0  0  0  0  0  0  0  0  0  0
    1.8786    1.5486   -0.2498 H   0  0  0  0  0  0  0  0  0  0  0  0
   -5.1965   -1.0187    2.0168 H   0  0  0  0  0  0  0  0  0  0  0  0
   -5.5523   -2.9300    0.5192 H   0  0  0  0  0  0  0  0  0  0  0  0
   -5.6688   -5.0758   -0.3441 H   0  0  0  0  0  0  0  0  0  0  0  0
   -5.5025   -5.5402   -2.0504 H   0  0  0  0  0  0  0  0  0  0  0  0
   -6.0452   -3.9012   -1.6533 H   0  0  0  0  0  0  0  0  0  0  0  0
   -1.4147   -2.8845   -0.5347 H   0  0  0  0  0  0  0  0  0  0  0  0
   -1.0396   -1.0385    1.0865 H   0  0  0  0  0  0  0  0  0  0  0  0
   -3.1110    2.3838    3.9985 H   0  0  0  0  0  0  0  0  0  0  0  0
   -3.1665    2.3252    6.4236 H   0  0  0  0  0  0  0  0  0  0  0  0
   -2.2161    2.2382    8.5750 H   0  0  0  0  0  0  0  0  0  0  0  0
   -3.0906    1.6363   10.0008 H   0  0  0  0  0  0  0  0  0  0  0  0
   -4.0101    2.2153    8.5951 H   0  0  0  0  0  0  0  0  0  0  0  0
   -2.9029   -1.9435    6.3339 H   0  0  0  0  0  0  0  0  0  0  0  0
   -2.8109   -1.8828    3.8759 H   0  0  0  0  0  0  0  0  0  0  0  0
   -6.3658    4.6068   -0.7082 H   0  0  0  0  0  0  0  0  0  0  0  0
   -6.8784    3.3521   -1.8588 H   0  0  0  0  0  0  0  0  0  0  0  0
   -4.6733    3.4066   -2.9733 H   0  0  0  0  0  0  0  0  0  0  0  0
   -5.2791    5.0575   -2.8674 H   0  0  0  0  0  0  0  0  0  0  0  0
   -4.0383    4.5021   -1.7355 H   0  0  0  0  0  0  0  0  0  0  0  0
   -7.4089    0.9917   -0.3350 H   0  0  0  0  0  0  0  0  0  0  0  0
   -8.7642    0.5843   -1.4141 H   0  0  0  0  0  0  0  0  0  0  0  0
   -8.0773   -1.4065   -0.0290 H   0  0  0  0  0  0  0  0  0  0  0  0
   -7.8097   -1.7023   -1.7539 H   0  0  0  0  0  0  0  0  0  0  0  0
   -6.4467   -1.2819   -0.7057 H   0  0  0  0  0  0  0  0  0  0  0  0
   -0.1652   -2.8752   -4.6443 H   0  0  0  0  0  0  0  0  0  0  0  0
    1.7872   -0.6690   -1.2172 H   0  0  0  0  0  0  0  0  0  0  0  0
   -5.0424   -1.9779   -3.7819 H   0  0  0  0  0  0  0  0  0  0  0  0
  1  2  2  0  0  0  0
  2  3  1  0  0  0  0
  3  4  2  0  0  0  0
  3  5  1  0  0  0  0
  5  6  2  0  0  0  0
  6  7  1  0  0  0  0
  7  8  2  0  0  0  0
  8  9  1  0  0  0  0
  8 10  1  0  0  0  0
 10 11  2  0  0  0  0
 11 12  1  0  0  0  0
 12 13  2  0  0  0  0
 13 14  1  0  0  0  0
 14 15  3  0  0  0  0
 13 16  1  0  0  0  0
 16 17  3  0  0  0  0
  1 18  1  0  0  0  0
 18 19  2  0  0  0  0
 19 20  1  0  0  0  0
 20 21  1  0  0  0  0
 21 22  1  0  0  0  0
 19 23  1  0  0  0  0
 23 24  1  0  0  0  0
 24 25  1  0  0  0  0
 25 26  1  0  0  0  0
 23 27  2  0  0  0  0
 27 28  1  0  0  0  0
 28 29  2  0  0  0  0
 29 30  1  0  0  0  0
 30 31  2  0  0  0  0
 30 32  1  0  0  0  0
 32 33  1  0  0  0  0
 33 34  1  0  0  0  0
 34 35  2  0  0  0  0
 33 36  2  0  0  0  0
 36 37  1  0  0  0  0
 37 38  1  0  0  0  0
 27 39  1  0  0  0  0
 39 40  2  0  0  0  0
 40 41  1  0  0  0  0
 41 42  1  0  0  0  0
 42 43  2  0  0  0  0
 43 44  1  0  0  0  0
 44 45  2  0  0  0  0
 45 46  1  0  0  0  0
 46 47  1  0  0  0  0
 45 48  1  0  0  0  0
 48 49  2  0  0  0  0
 41 50  1  0  0  0  0
 50 51  2  0  0  0  0
 51 52  1  0  0  0  0
 52 53  2  0  0  0  0
 53 54  1  0  0  0  0
 54 55  1  0  0  0  0
 53 56  1  0  0  0  0
 56 57  2  0  0  0  0
 40 58  1  0  0  0  0
 58 59  1  0  0  0  0
 59 60  1  0  0  0  0
 60 61  2  0  0  0  0
 61 62  1  0  0  0  0
 62 63  1  0  0  0  0
 63 64  2  0  0  0  0
 64 65  1  0  0  0  0
 65 66  2  0  0  0  0
 66 67  1  0  0  0  0
 67 68  1  0  0  0  0
 66 69  1  0  0  0  0
 69 70  2  0  0  0  0
 62 71  1  0  0  0  0
 71 72  2  0  0  0  0
 72 73  1  0  0  0  0
 73 74  2  0  0  0  0
 74 75  1  0  0  0  0
 75 76  1  0  0  0  0
 74 77  1  0  0  0  0
 77 78  2  0  0  0  0
 61 79  1  0  0  0  0
 79 80  1  0  0  0  0
 60 81  1  0  0  0  0
 81 82  2  0  0  0  0
 82 83  1  0  0  0  0
 83 84  1  0  0  0  0
 84 85  1  0  0  0  0
 82 86  1  0  0  0  0
 86 87  1  0  0  0  0
 87 88  1  0  0  0  0
 88 89  1  0  0  0  0
 86 90  2  0  0  0  0
 90 91  1  0  0  0  0
 91 92  2  0  0  0  0
 92 93  1  0  0  0  0
 93 94  2  0  0  0  0
 93 95  1  0  0  0  0
 95 96  1  0  0  0  0
 96 97  1  0  0  0  0
 97 98  2  0  0  0  0
 96 99  2  0  0  0  0
 99100  1  0  0  0  0
100101  1  0  0  0  0
 90102  1  0  0  0  0
102103  2  0  0  0  0
103104  1  0  0  0  0
104105  2  0  0  0  0
104106  1  0  0  0  0
106107  2  0  0  0  0
107108  1  0  0  0  0
107109  1  0  0  0  0
109110  1  0  0  0  0
109111  2  0  0  0  0
111112  1  0  0  0  0
111113  1  0  0  0  0
113114  1  0  0  0  0
113115  2  0  0  0  0
115116  1  0  0  0  0
116117  2  0  0  0  0
117118  1  0  0  0  0
118119  3  0  0  0  0
117120  1  0  0  0  0
120121  3  0  0  0  0
 12  2  1  0  0  0  0
 29 18  1  0  0  0  0
 38 32  2  0  0  0  0
 80 39  1  0  0  0  0
 92 81  1  0  0  0  0
101 95  2  0  0  0  0
116103  1  0  0  0  0
 11  5  1  0  0  0  0
 34 28  1  0  0  0  0
 49 42  1  0  0  0  0
 57 50  1  0  0  0  0
 79 58  2  0  0  0  0
 97 91  1  0  0  0  0
115106  1  0  0  0  0
 70 63  1  0  0  0  0
 78 71  1  0  0  0  0
  1122  1  0  0  0  0
  6123  1  0  0  0  0
  7124  1  0  0  0  0
  9125  1  0  0  0  0
  9126  1  0  0  0  0
  9127  1  0  0  0  0
 10128  1  0  0  0  0
 21129  1  0  0  0  0
 21130  1  0  0  0  0
 22131  1  0  0  0  0
 22132  1  0  0  0  0
 22133  1  0  0  0  0
 25134  1  0  0  0  0
 25135  1  0  0  0  0
 26136  1  0  0  0  0
 26137  1  0  0  0  0
 26138  1  0  0  0  0
 36139  1  0  0  0  0
 38140  1  0  0  0  0
 43141  1  0  0  0  0
 44142  1  0  0  0  0
 47143  1  0  0  0  0
 47144  1  0  0  0  0
 47145  1  0  0  0  0
 48146  1  0  0  0  0
 49147  1  0  0  0  0
 51148  1  0  0  0  0
 52149  1  0  0  0  0
 55150  1  0  0  0  0
 55151  1  0  0  0  0
 55152  1  0  0  0  0
 56153  1  0  0  0  0
 57154  1  0  0  0  0
 64155  1  0  0  0  0
 65156  1  0  0  0  0
 68157  1  0  0  0  0
 68158  1  0  0  0  0
 68159  1  0  0  0  0
 69160  1  0  0  0  0
 70161  1  0  0  0  0
 72162  1  0  0  0  0
 73163  1  0  0  0  0
 76164  1  0  0  0  0
 76165  1  0  0  0  0
 76166  1  0  0  0  0
 77167  1  0  0  0  0
 78168  1  0  0  0  0
 84169  1  0  0  0  0
 84170  1  0  0  0  0
 85171  1  0  0  0  0
 85172  1  0  0  0  0
 85173  1  0  0  0  0
 88174  1  0  0  0  0
 88175  1  0  0  0  0
 89176  1  0  0  0  0
 89177  1  0  0  0  0
 89178  1  0  0  0  0
 99179  1  0  0  0  0
101180  1  0  0  0  0
102181  1  0  0  0  0
M  END
