165

C          5.17990        2.93050       -3.86140
C          6.41450        2.37470       -3.80170
C          6.65380        1.04570       -3.18340
O          5.84640        0.36660       -2.58480
C          8.05600        0.72230       -3.49240
C          8.78320       -0.40630       -3.16370
C         10.09890       -0.48900       -3.58760
C         10.68750        0.53320       -4.33200
C         12.10400        0.39990       -4.79290
C          9.94880        1.66790       -4.65950
C          8.63230        1.76630       -4.23940
C          7.64530        2.82620       -4.42360
C          7.86080        4.03880       -5.01980
C          6.90570        5.07530       -5.07650
N          6.18390        5.96840       -5.10180
C          9.08010        4.43080       -5.61110
N         10.04250        4.80710       -6.11080
C          4.06210        2.36200       -3.09820
C          3.90840        2.57230       -1.72550
S          5.07390        3.48410       -0.75870
C          5.44160        5.00980       -1.70310
C          4.20300        5.75900       -2.14820
C          2.86070        1.93200       -1.05260
S          2.60680        2.09490        0.69160
C          2.43550        3.91130        0.94860
C          3.29590        4.38360        2.10170
C          2.01230        1.03990       -1.72350
C          2.15660        0.83240       -3.09830
C          3.16400        1.53260       -3.78010
C          3.40180        1.42540       -5.22200
O          4.32420        2.02840       -5.75470
C          2.47120        0.57060       -5.94080
C          1.45530       -0.16270       -5.25990
C          1.24890       -0.09650       -3.80860
O          0.39360       -0.76030       -3.25400
C          0.70510       -0.91370       -6.11940
S          1.21200       -0.73390       -7.74810
C          2.45290        0.35450       -7.29080
C          0.95480        0.37800       -0.95430
C         -0.22130        0.96500       -0.54300
N         -0.56530        2.28100       -0.84540
C         -1.06710        3.13550        0.12940
C         -0.85970        2.87880        1.48460
C         -1.37950        3.71880        2.45010
C         -2.11120        4.83790        2.08060
S         -2.80090        5.98420        3.23730
C         -2.86700        5.02550        4.77910
C         -2.30320        5.11120        0.72860
C         -1.79420        4.27080       -0.23550
C         -0.30610        2.71370       -2.15740
C         -0.80340        1.97560       -3.22630
C         -0.47130        2.30370       -4.52630
C          0.36150        3.38630       -4.77450
S          0.93620        3.83010       -6.38440
C         -0.25920        3.03170       -7.49500
C          0.81340        4.16360       -3.70950
C          0.47960        3.83710       -2.41380
C         -1.01240        0.04850        0.18920
S         -2.53480        0.15270        0.99510
C         -2.41550       -1.54240        1.45460
C         -1.20380       -2.12470        1.07080
N         -0.75020       -3.36070        1.46340
C          0.12330       -4.07370        0.62520
C          1.18350       -4.79000        1.16990
C          2.05880       -5.47930        0.35280
C          1.88800       -5.45240       -1.02470
S          2.94740       -6.27910       -2.16910
C          4.31080       -6.89500       -1.13970
C          0.81520       -4.74950       -1.57030
C         -0.06180       -4.06920       -0.75700
C         -1.15710       -3.91010        2.68680
C         -1.29860       -3.09380        3.81240
C         -1.84910       -3.59210        4.96870
C         -2.26150       -4.92410        5.04130
S         -3.05410       -5.42080        6.53340
C         -3.85930       -6.98970        6.10370
C         -2.01880       -5.76550        3.96420
C         -1.47020       -5.26280        2.79790
C         -0.43040       -1.20320        0.32180
S          1.11290       -1.27860       -0.45330
C         -3.47430       -2.17700        2.14330
C         -3.88180       -3.49070        2.04920
C         -3.65260       -4.62350        1.15100
O         -2.99970       -4.71280        0.14070
N         -4.42320       -5.65910        1.68760
C         -4.46290       -6.98000        1.11380
C         -5.12490       -5.30380        2.82720
O         -5.79150       -6.06030        3.49180
C         -4.82190       -3.87680        3.02440
C         -5.24420       -2.86340        3.84990
S         -4.38130       -1.38720        3.42010
C         -6.15570       -2.96490        4.93090
C         -6.90580       -1.99070        5.50190
C         -7.46730       -2.17190        6.87500
O         -7.55280       -3.20710        7.49090
C         -7.83200       -0.81200        7.31380
C         -8.29290       -0.38270        8.54430
C         -8.56180        0.96580        8.71360
C         -8.36910        1.88200        7.68010
C         -8.64220        3.33530        7.90340
C         -7.90590        1.44330        6.44100
C         -7.64480        0.09750        6.25530
C         -7.22340       -0.64430        5.07040
C         -7.37670       -0.23260        3.77380
C         -7.26380       -1.10190        2.66760
N         -7.24200       -1.79440        1.75250
C         -7.76860        1.07070        3.40660
N         -8.07510        2.12110        3.06000
H          4.99680        3.85590       -4.39190
H          8.32380       -1.19570       -2.58880
H         10.68660       -1.36140       -3.34100
H         12.15420       -0.28670       -5.63830
H         12.73100       -0.00360       -4.00050
H         12.50360        1.35950       -5.10960
H         10.41060        2.45200       -5.23810
H          6.08140        4.75850       -2.54530
H          6.01920        5.59790       -0.98950
H          3.53770        5.11180       -2.71700
H          4.50110        6.58690       -2.78790
H          3.65940        6.15610       -1.29330
H          2.70690        4.39870        0.01720
H          1.37730        4.07630        1.15560
H          3.14220        5.44900        2.26050
H          3.02920        3.85410        3.01270
H          4.34710        4.20490        1.89080
H         -0.11660       -1.55570       -5.86960
H          3.10090        0.78890       -8.02610
H         -0.26900        2.02740        1.78670
H         -1.19370        3.49340        3.48810
H         -1.87180        4.91390        5.20050
H         -3.48840        5.60130        5.45780
H         -3.32320        4.05980        4.58380
H         -2.86840        5.98540        0.44440
H         -1.96720        4.48170       -1.28000
H         -1.43530        1.12250       -3.03190
H         -0.86760        1.70970       -5.33420
H         -0.10770        1.95620       -7.51280
H         -0.06410        3.44450       -8.47970
H         -1.26770        3.28170       -7.18050
H          1.43040        5.02440       -3.91880
H          0.82770        4.44300       -1.59060
H          1.32670       -4.80310        2.24070
H          2.87090       -6.02550        0.80510
H          4.77340       -6.06770       -0.60940
H          3.95000       -7.65470       -0.45220
H          5.02260       -7.33560       -1.83090
H          0.67730       -4.74760       -2.64020
H         -0.90590       -3.55050       -1.18110
H         -0.99610       -2.05840        3.76180
H         -1.98230       -2.95570        5.83000
H         -3.11540       -7.76410        5.94000
H         -4.46800       -7.24390        6.96590
H         -4.49590       -6.85190        5.23460
H         -2.27410       -6.81200        4.01580
H         -1.30180       -5.91600        1.95480
H         -3.74220       -7.63660        1.60710
H         -4.21140       -6.89970        0.05740
H         -5.46320       -7.39200        1.23830
H         -6.20870       -3.94650        5.39290
H         -8.44150       -1.09160        9.34420
H         -8.92980        1.32060        9.66520
H         -9.49700        3.47250        8.56140
H         -7.77850        3.80480        8.37540
H         -8.83120        3.84400        6.96170
H         -7.75140        2.15530        5.64540
