159

C         -5.40330        3.13290        3.34700
C         -5.07000        4.22180        4.08980
C         -3.73400        4.57710        4.62740
O         -2.71350        3.90680        4.62520
C         -3.86740        5.93190        5.17460
C         -2.91250        6.71320        5.79730
C         -3.27520        7.97940        6.22830
C         -4.56640        8.46460        6.03790
C         -4.94520        9.83330        6.50530
C         -5.52890        7.66170        5.42400
C         -5.18450        6.39170        4.99860
C         -5.96600        5.33720        4.36160
C         -7.31590        5.37940        4.14470
C         -8.13520        6.48450        4.46340
N         -8.86110        7.34370        4.69240
C         -8.10450        4.33750        3.61290
N         -8.83070        3.54610        3.20530
C         -4.57280        2.02430        2.96940
C         -4.79040        1.40010        1.72320
S         -6.30330        1.64570        0.82940
C         -7.48800        0.83650        1.99630
C         -8.85150        0.77750        1.34080
C         -3.80560        0.59640        1.16630
S         -4.04300       -0.20160       -0.40930
C         -5.30250       -1.46180        0.01070
C         -4.87190       -2.33620        1.17060
C         -2.57440        0.42310        1.81800
C         -2.43630        0.87590        3.14350
C         -3.48100        1.58350        3.74700
C         -3.54990        1.78560        5.22300
O         -4.59420        2.04260        5.79100
C         -2.31430        1.46850        5.93960
C         -1.15890        0.97950        5.26680
C         -1.11710        0.78780        3.82200
O         -0.07240        0.64950        3.21210
C         -0.12350        0.74450        6.12520
S         -0.53730        1.10300        7.74650
C         -2.11480        1.59020        7.28390
C         -1.51000       -0.28370        1.13270
C         -0.97560        0.03710       -0.10430
N         -1.32280        1.14990       -0.84440
C         -1.78200        2.30780       -0.20200
C         -2.89460        2.99200       -0.69000
C         -3.37590        4.09740       -0.02090
C         -2.74910        4.53860        1.13880
S         -3.43000        5.94600        1.97560
C         -1.93090        6.79060        2.55900
C         -1.63210        3.87120        1.62270
C         -1.14740        2.76940        0.95010
C         -1.24000        1.11170       -2.24230
C         -0.83470        2.24380       -2.94950
C         -0.71100        2.19690       -4.31920
C         -0.98260        1.01960       -5.01400
S         -0.76690        1.06100       -6.76440
C         -0.71430       -0.69620       -7.22140
C         -1.41850       -0.09870       -4.31710
C         -1.54810       -0.05050       -2.94340
C          0.04030       -0.88500       -0.46620
S          1.07590       -1.08200       -1.83650
C          1.84610       -2.47190       -1.07590
C          1.28470       -2.78800        0.16190
N          1.63840       -3.82130        1.00640
C          1.79210       -5.13320        0.55550
C          2.59330       -6.03240        1.26360
C          2.74330       -7.32520        0.82010
C          2.10780       -7.75590       -0.34450
S          2.37330       -9.43540       -0.80780
C          1.59300       -9.56840       -2.44170
C          1.31040       -6.86580       -1.05150
C          1.15210       -5.57000       -0.60210
C          1.65320       -3.51920        2.38150
C          2.27880       -2.35070        2.80980
C          2.27690       -1.99950        4.14350
C          1.65530       -2.82180        5.07360
S          1.58300       -2.43960        6.79950
C          3.09040       -1.45210        7.05670
C          1.03130       -3.99250        4.65050
C          1.02780       -4.34060        3.31700
C          0.26560       -1.86450        0.48880
S         -0.78240       -1.70120        1.85040
C          2.95690       -2.99990       -1.75880
S          4.09260       -4.17510       -1.03180
C          5.02870       -4.04450       -2.47180
N          6.15120       -4.59810       -2.87450
C          6.49200       -4.17790       -4.07710
S          5.34610       -3.01290       -4.80220
C          4.41230       -3.14100       -3.37360
N          3.28220       -2.58360       -2.95370
C          7.68240       -4.65830       -4.64680
C          8.27660       -4.34960       -5.84000
C          7.76980       -3.38660       -6.83280
O          6.72320       -2.76480       -6.79420
C          8.78620       -3.32140       -7.89240
C          8.80290       -2.54920       -9.03800
C          9.88960       -2.66150       -9.89020
C         10.94410       -3.52750       -9.60770
C         12.11790       -3.61140      -10.53060
C         10.91770       -4.30350       -8.44900
C          9.83810       -4.20370       -7.58880
C          9.53750       -4.88040       -6.32680
C         10.31340       -5.84790       -5.74560
C         11.53080       -6.31530       -6.28540
N         12.52810       -6.73990       -6.66380
C         10.02780       -6.53740       -4.54720
N          9.88530       -7.16010       -3.59290
H         -6.36290        3.17730        2.85200
H         -1.91220        6.33540        5.94800
H         -2.54390        8.60470        6.71970
H         -5.54170       10.34330        5.75190
H         -4.06570       10.43140        6.72890
H         -5.55000        9.76040        7.40930
H         -6.52550        8.04930        5.28870
H         -7.53350        1.40780        2.92080
H         -7.09620       -0.15980        2.20380
H         -9.23310        1.78290        1.18570
H         -8.80180        0.26670        0.38130
H         -9.54090        0.24340        1.99040
H         -5.39230       -2.04050       -0.90810
H         -6.24600       -0.95570        0.20190
H         -3.91370       -2.80690        0.96050
H         -5.61360       -3.11460        1.33960
H         -4.77060       -1.75170        2.08430
H          0.84340        0.35900        5.87490
H         -2.81390        1.94440        8.01530
H         -3.38720        2.63770       -1.58230
H         -4.24790        4.61810       -0.38430
H         -2.24700        7.77690        2.88390
H         -1.49620        6.24870        3.39300
H         -1.22770        6.87000        1.73590
H         -1.14460        4.19320        2.52870
H         -0.28090        2.24910        1.32960
H         -0.60520        3.15330       -2.41480
H         -0.38700        3.06740       -4.86860
H         -1.70610       -1.13450       -7.15450
H         -0.00730       -1.21430       -6.58060
H         -0.37150       -0.72260       -8.25100
H         -1.67010       -1.01140       -4.83240
H         -1.91380       -0.91300       -2.40850
H          3.10660       -5.70270        2.15360
H          3.36650       -8.01860        1.36310
H          1.81630      -10.57200       -2.79010
H          2.02780       -8.83790       -3.11730
H          0.51760       -9.44050       -2.35690
H          0.79810       -7.16840       -1.95050
H          0.52080       -4.88990       -1.15490
H          2.76220       -1.70990        2.08750
H          2.76000       -1.08360        4.44340
H          3.24550       -1.42590        8.13060
H          2.96420       -0.43950        6.68440
H          3.92710       -1.94340        6.57030
H          0.54320       -4.62130        5.37900
H          0.53630       -5.24510        2.99230
H          8.17930       -5.36540       -3.99350
H          7.98380       -1.88000       -9.25180
H          9.92480       -2.06800      -10.79200
H         12.84750       -2.84500      -10.26670
H         11.81560       -3.44460      -11.56170
H         12.60570       -4.57950      -10.45220
H         11.74110       -4.96770       -8.24230
