
  xtb     02102217553D
 energy: -274.775906911454 gnorm: 0.000990985731 xtb: 6.4.1 (unknown)
162179  0     0  0            999 V2000
    8.1402    5.4291   -6.3683 C   0  0  0  0  0  0  0  0  0  0  0  0
    9.4365    5.2660   -6.0082 C   0  0  0  0  0  0  0  0  0  0  0  0
   10.4476    6.3103   -6.3491 C   0  0  0  0  0  0  0  0  0  0  0  0
   10.3183    7.2050   -7.1522 O   0  0  0  0  0  0  0  0  0  0  0  0
   11.5859    6.0398   -5.4532 C   0  0  0  0  0  0  0  0  0  0  0  0
   12.7442    6.7694   -5.2625 C   0  0  0  0  0  0  0  0  0  0  0  0
   13.6696    6.3081   -4.3401 C   0  0  0  0  0  0  0  0  0  0  0  0
   13.4495    5.1417   -3.6091 C   0  0  0  0  0  0  0  0  0  0  0  0
   14.4511    4.6835   -2.5978 C   0  0  0  0  0  0  0  0  0  0  0  0
   12.2811    4.4076   -3.8082 C   0  0  0  0  0  0  0  0  0  0  0  0
   11.3532    4.8524   -4.7322 C   0  0  0  0  0  0  0  0  0  0  0  0
   10.0947    4.2692   -5.1868 C   0  0  0  0  0  0  0  0  0  0  0  0
    9.7459    2.9494   -5.0942 C   0  0  0  0  0  0  0  0  0  0  0  0
    8.6894    2.3770   -5.8356 C   0  0  0  0  0  0  0  0  0  0  0  0
    7.8851    1.8617   -6.4720 N   0  0  0  0  0  0  0  0  0  0  0  0
   10.4530    2.0013   -4.3283 C   0  0  0  0  0  0  0  0  0  0  0  0
   10.9787    1.1937   -3.7046 N   0  0  0  0  0  0  0  0  0  0  0  0
    6.9846    4.7923   -5.8368 C   0  0  0  0  0  0  0  0  0  0  0  0
    5.7726    4.6705   -6.4594 C   0  0  0  0  0  0  0  0  0  0  0  0
    4.7968    3.9988   -5.6877 C   0  0  0  0  0  0  0  0  0  0  0  0
    3.4717    3.7012   -6.0551 C   0  0  0  0  0  0  0  0  0  0  0  0
    2.9123    4.1400   -7.3393 C   0  0  0  0  0  0  0  0  0  0  0  0
    2.2811    3.2050   -8.1878 C   0  0  0  0  0  0  0  0  0  0  0  0
    1.7438    3.6000   -9.3779 C   0  0  0  0  0  0  0  0  0  0  0  0
    1.7969    4.9492   -9.7874 C   0  0  0  0  0  0  0  0  0  0  0  0
    1.2454    5.3884  -11.0080 C   0  0  0  0  0  0  0  0  0  0  0  0
    1.3146    6.7043  -11.3715 C   0  0  0  0  0  0  0  0  0  0  0  0
    1.9392    7.6405  -10.5321 C   0  0  0  0  0  0  0  0  0  0  0  0
    2.4839    7.2465   -9.3426 C   0  0  0  0  0  0  0  0  0  0  0  0
    2.4283    5.8957   -8.9383 C   0  0  0  0  0  0  0  0  0  0  0  0
    2.9801    5.4595   -7.7190 C   0  0  0  0  0  0  0  0  0  0  0  0
    2.7218    2.9947   -5.1306 C   0  0  0  0  0  0  0  0  0  0  0  0
    3.2174    2.6049   -3.8602 C   0  0  0  0  0  0  0  0  0  0  0  0
    4.5385    2.9225   -3.4765 C   0  0  0  0  0  0  0  0  0  0  0  0
    5.0837    2.5550   -2.1879 C   0  0  0  0  0  0  0  0  0  0  0  0
    6.3586    2.1528   -1.8878 C   0  0  0  0  0  0  0  0  0  0  0  0
    6.5592    1.8514   -0.5318 C   0  0  0  0  0  0  0  0  0  0  0  0
    5.4355    2.0338    0.2260 C   0  0  0  0  0  0  0  0  0  0  0  0
    5.3005    1.7597    1.9418 S   0  0  0  0  0  0  0  0  0  0  0  0
    3.4764    1.7099    2.1475 C   0  0  0  0  0  0  0  0  0  0  0  0
    3.1301    1.2547    3.5508 C   0  0  0  0  0  0  0  0  0  0  0  0
    4.1105    2.6034   -0.7377 S   0  0  0  0  0  0  0  0  0  0  0  0
    5.2971    3.6076   -4.4205 C   0  0  0  0  0  0  0  0  0  0  0  0
    6.9456    4.1249   -4.2123 S   0  0  0  0  0  0  0  0  0  0  0  0
    2.2442    1.8947   -3.1244 C   0  0  0  0  0  0  0  0  0  0  0  0
    1.0445    1.7683   -3.7640 C   0  0  0  0  0  0  0  0  0  0  0  0
    1.0555    2.5093   -5.3463 S   0  0  0  0  0  0  0  0  0  0  0  0
   -0.1062    1.1264   -3.2281 C   0  0  0  0  0  0  0  0  0  0  0  0
   -1.3254    0.8384   -3.8040 C   0  0  0  0  0  0  0  0  0  0  0  0
   -2.2139    0.2192   -3.0196 N   0  0  0  0  0  0  0  0  0  0  0  0
   -1.7546    0.0052   -1.8256 C   0  0  0  0  0  0  0  0  0  0  0  0
   -0.1070    0.5760   -1.5806 S   0  0  0  0  0  0  0  0  0  0  0  0
   -2.4429   -0.6272   -0.7541 C   0  0  0  0  0  0  0  0  0  0  0  0
   -3.6497   -1.2672   -0.7765 C   0  0  0  0  0  0  0  0  0  0  0  0
   -4.0202   -1.8028    0.4820 C   0  0  0  0  0  0  0  0  0  0  0  0
   -5.1867   -2.5151    0.8141 C   0  0  0  0  0  0  0  0  0  0  0  0
   -6.2583   -2.7350   -0.1647 C   0  0  0  0  0  0  0  0  0  0  0  0
   -6.7748   -1.6424   -0.8942 C   0  0  0  0  0  0  0  0  0  0  0  0
   -7.7811   -1.8212   -1.7982 C   0  0  0  0  0  0  0  0  0  0  0  0
   -8.3280   -3.1010   -2.0318 C   0  0  0  0  0  0  0  0  0  0  0  0
   -9.3603   -3.3071   -2.9674 C   0  0  0  0  0  0  0  0  0  0  0  0
   -9.8781   -4.5611   -3.1649 C   0  0  0  0  0  0  0  0  0  0  0  0
  -11.1555   -4.9593   -4.3157 S   0  0  0  0  0  0  0  0  0  0  0  0
  -11.8853   -3.3529   -4.7855 C   0  0  0  0  0  0  0  0  0  0  0  0
  -12.6754   -2.7288   -3.6510 C   0  0  0  0  0  0  0  0  0  0  0  0
   -9.3680   -5.6580   -2.4358 C   0  0  0  0  0  0  0  0  0  0  0  0
   -8.3653   -5.4834   -1.5313 C   0  0  0  0  0  0  0  0  0  0  0  0
   -7.8163   -4.2025   -1.2982 C   0  0  0  0  0  0  0  0  0  0  0  0
   -6.7839   -3.9897   -0.3697 C   0  0  0  0  0  0  0  0  0  0  0  0
   -5.2797   -2.9801    2.1180 C   0  0  0  0  0  0  0  0  0  0  0  0
   -4.2941   -2.7218    3.1108 C   0  0  0  0  0  0  0  0  0  0  0  0
   -3.1410   -1.9800    2.7869 C   0  0  0  0  0  0  0  0  0  0  0  0
   -2.1284   -1.6187    3.7846 C   0  0  0  0  0  0  0  0  0  0  0  0
   -2.4888   -1.0233    4.9711 C   0  0  0  0  0  0  0  0  0  0  0  0
   -1.5157   -0.5874    5.8872 C   0  0  0  0  0  0  0  0  0  0  0  0
   -1.8582    0.0438    7.1004 C   0  0  0  0  0  0  0  0  0  0  0  0
   -0.8993    0.4921    7.9638 C   0  0  0  0  0  0  0  0  0  0  0  0
    0.4631    0.3289    7.6522 C   0  0  0  0  0  0  0  0  0  0  0  0
    1.7787    0.8939    8.6844 S   0  0  0  0  0  0  0  0  0  0  0  0
    0.9467    1.6147   10.1501 C   0  0  0  0  0  0  0  0  0  0  0  0
    2.0052    2.1046   11.1206 C   0  0  0  0  0  0  0  0  0  0  0  0
    0.8286   -0.2960    6.4811 C   0  0  0  0  0  0  0  0  0  0  0  0
   -0.1400   -0.7665    5.5814 C   0  0  0  0  0  0  0  0  0  0  0  0
    0.2046   -1.4136    4.3742 C   0  0  0  0  0  0  0  0  0  0  0  0
   -0.7589   -1.8251    3.5024 C   0  0  0  0  0  0  0  0  0  0  0  0
   -3.0285   -1.5658    1.4711 C   0  0  0  0  0  0  0  0  0  0  0  0
   -1.6952   -0.6477    0.8254 S   0  0  0  0  0  0  0  0  0  0  0  0
   -4.6178   -3.2976    4.3545 C   0  0  0  0  0  0  0  0  0  0  0  0
   -5.8182   -3.9651    4.3586 C   0  0  0  0  0  0  0  0  0  0  0  0
   -6.6007   -3.8978    2.7760 S   0  0  0  0  0  0  0  0  0  0  0  0
   -6.5016   -4.7029    5.3526 C   0  0  0  0  0  0  0  0  0  0  0  0
   -6.2029   -4.9647    6.6595 C   0  0  0  0  0  0  0  0  0  0  0  0
   -5.0467   -4.4952    7.4661 C   0  0  0  0  0  0  0  0  0  0  0  0
   -4.1804   -3.6996    7.1640 O   0  0  0  0  0  0  0  0  0  0  0  0
   -5.1637   -5.1778    8.7642 C   0  0  0  0  0  0  0  0  0  0  0  0
   -4.3111   -5.1165    9.8504 C   0  0  0  0  0  0  0  0  0  0  0  0
   -4.6229   -5.8637   10.9736 C   0  0  0  0  0  0  0  0  0  0  0  0
   -5.7665   -6.6601   11.0176 C   0  0  0  0  0  0  0  0  0  0  0  0
   -6.0651   -7.4788   12.2329 C   0  0  0  0  0  0  0  0  0  0  0  0
   -6.6223   -6.7116    9.9188 C   0  0  0  0  0  0  0  0  0  0  0  0
   -6.3238   -5.9684    8.7889 C   0  0  0  0  0  0  0  0  0  0  0  0
   -7.0172   -5.8237    7.5110 C   0  0  0  0  0  0  0  0  0  0  0  0
   -8.2257   -6.3949    7.2124 C   0  0  0  0  0  0  0  0  0  0  0  0
   -8.9527   -6.2670    6.0086 C   0  0  0  0  0  0  0  0  0  0  0  0
   -9.6313   -6.2224    5.0826 N   0  0  0  0  0  0  0  0  0  0  0  0
   -8.9583   -7.2082    8.1047 C   0  0  0  0  0  0  0  0  0  0  0  0
   -9.6115   -7.8789    8.7691 N   0  0  0  0  0  0  0  0  0  0  0  0
    7.9523    6.1979   -7.1118 H   0  0  0  0  0  0  0  0  0  0  0  0
   12.9146    7.6724   -5.8281 H   0  0  0  0  0  0  0  0  0  0  0  0
   14.5836    6.8615   -4.1807 H   0  0  0  0  0  0  0  0  0  0  0  0
   15.4539    5.0045   -2.8682 H   0  0  0  0  0  0  0  0  0  0  0  0
   14.2117    5.1113   -1.6235 H   0  0  0  0  0  0  0  0  0  0  0  0
   14.4356    3.6009   -2.5005 H   0  0  0  0  0  0  0  0  0  0  0  0
   12.1109    3.5093   -3.2355 H   0  0  0  0  0  0  0  0  0  0  0  0
    5.6014    5.0050   -7.4670 H   0  0  0  0  0  0  0  0  0  0  0  0
    2.2508    2.1672   -7.8917 H   0  0  0  0  0  0  0  0  0  0  0  0
    1.2696    2.8787  -10.0277 H   0  0  0  0  0  0  0  0  0  0  0  0
    0.7662    4.6639  -11.6510 H   0  0  0  0  0  0  0  0  0  0  0  0
    0.8890    7.0346  -12.3077 H   0  0  0  0  0  0  0  0  0  0  0  0
    1.9848    8.6760  -10.8360 H   0  0  0  0  0  0  0  0  0  0  0  0
    2.9664    7.9633   -8.6932 H   0  0  0  0  0  0  0  0  0  0  0  0
    3.4383    6.1884   -7.0646 H   0  0  0  0  0  0  0  0  0  0  0  0
    7.1223    2.0155   -2.6319 H   0  0  0  0  0  0  0  0  0  0  0  0
    7.4874    1.4968   -0.1240 H   0  0  0  0  0  0  0  0  0  0  0  0
    3.0877    1.0172    1.4005 H   0  0  0  0  0  0  0  0  0  0  0  0
    3.0957    2.7120    1.9476 H   0  0  0  0  0  0  0  0  0  0  0  0
    3.5238    1.9495    4.2888 H   0  0  0  0  0  0  0  0  0  0  0  0
    3.5535    0.2717    3.7442 H   0  0  0  0  0  0  0  0  0  0  0  0
    2.0493    1.1997    3.6630 H   0  0  0  0  0  0  0  0  0  0  0  0
    2.4094    1.4679   -2.1526 H   0  0  0  0  0  0  0  0  0  0  0  0
   -1.5893    1.0758   -4.8191 H   0  0  0  0  0  0  0  0  0  0  0  0
   -4.2320   -1.3655   -1.6738 H   0  0  0  0  0  0  0  0  0  0  0  0
   -6.3787   -0.6549   -0.7071 H   0  0  0  0  0  0  0  0  0  0  0  0
   -8.1753   -0.9775   -2.3468 H   0  0  0  0  0  0  0  0  0  0  0  0
   -9.7166   -2.4511   -3.5195 H   0  0  0  0  0  0  0  0  0  0  0  0
  -12.5370   -3.5997   -5.6237 H   0  0  0  0  0  0  0  0  0  0  0  0
  -11.0882   -2.7035   -5.1457 H   0  0  0  0  0  0  0  0  0  0  0  0
  -12.0376   -2.5368   -2.7907 H   0  0  0  0  0  0  0  0  0  0  0  0
  -13.4758   -3.3962   -3.3406 H   0  0  0  0  0  0  0  0  0  0  0  0
  -13.1131   -1.7874   -3.9780 H   0  0  0  0  0  0  0  0  0  0  0  0
   -9.7945   -6.6334   -2.6148 H   0  0  0  0  0  0  0  0  0  0  0  0
   -7.9805   -6.3240   -0.9729 H   0  0  0  0  0  0  0  0  0  0  0  0
   -6.3883   -4.8400    0.1667 H   0  0  0  0  0  0  0  0  0  0  0  0
   -3.5304   -0.8483    5.1979 H   0  0  0  0  0  0  0  0  0  0  0  0
   -2.9033    0.1699    7.3430 H   0  0  0  0  0  0  0  0  0  0  0  0
   -1.1964    0.9729    8.8820 H   0  0  0  0  0  0  0  0  0  0  0  0
    0.3334    0.8361   10.6043 H   0  0  0  0  0  0  0  0  0  0  0  0
    0.3203    2.4400    9.8102 H   0  0  0  0  0  0  0  0  0  0  0  0
    2.6415    1.2811   11.4364 H   0  0  0  0  0  0  0  0  0  0  0  0
    1.5301    2.5373   11.9986 H   0  0  0  0  0  0  0  0  0  0  0  0
    2.6296    2.8614   10.6515 H   0  0  0  0  0  0  0  0  0  0  0  0
    1.8760   -0.4222    6.2498 H   0  0  0  0  0  0  0  0  0  0  0  0
    1.2490   -1.5779    4.1532 H   0  0  0  0  0  0  0  0  0  0  0  0
   -0.4835   -2.3360    2.5920 H   0  0  0  0  0  0  0  0  0  0  0  0
   -3.9823   -3.2365    5.2183 H   0  0  0  0  0  0  0  0  0  0  0  0
   -7.4158   -5.1483    4.9778 H   0  0  0  0  0  0  0  0  0  0  0  0
   -3.4265   -4.4996    9.8081 H   0  0  0  0  0  0  0  0  0  0  0  0
   -3.9707   -5.8345   11.8342 H   0  0  0  0  0  0  0  0  0  0  0  0
   -5.7659   -6.9551   13.1379 H   0  0  0  0  0  0  0  0  0  0  0  0
   -7.1237   -7.7178   12.2910 H   0  0  0  0  0  0  0  0  0  0  0  0
   -5.5092   -8.4161   12.1898 H   0  0  0  0  0  0  0  0  0  0  0  0
   -7.5016   -7.3329    9.9671 H   0  0  0  0  0  0  0  0  0  0  0  0
  1  2  2  0  0  0  0
  2  3  1  0  0  0  0
  3  4  2  0  0  0  0
  3  5  1  0  0  0  0
  5  6  2  0  0  0  0
  6  7  1  0  0  0  0
  7  8  2  0  0  0  0
  8  9  1  0  0  0  0
  8 10  1  0  0  0  0
 10 11  2  0  0  0  0
 11 12  1  0  0  0  0
 12 13  2  0  0  0  0
 13 14  1  0  0  0  0
 14 15  3  0  0  0  0
 13 16  1  0  0  0  0
 16 17  3  0  0  0  0
  1 18  1  0  0  0  0
 18 19  2  0  0  0  0
 19 20  1  0  0  0  0
 20 21  2  0  0  0  0
 21 22  1  0  0  0  0
 22 23  2  0  0  0  0
 23 24  1  0  0  0  0
 24 25  2  0  0  0  0
 25 26  1  0  0  0  0
 26 27  2  0  0  0  0
 27 28  1  0  0  0  0
 28 29  2  0  0  0  0
 29 30  1  0  0  0  0
 30 31  2  0  0  0  0
 21 32  1  0  0  0  0
 32 33  2  0  0  0  0
 33 34  1  0  0  0  0
 34 35  1  0  0  0  0
 35 36  2  0  0  0  0
 36 37  1  0  0  0  0
 37 38  2  0  0  0  0
 38 39  1  0  0  0  0
 39 40  1  0  0  0  0
 40 41  1  0  0  0  0
 38 42  1  0  0  0  0
 34 43  2  0  0  0  0
 43 44  1  0  0  0  0
 33 45  1  0  0  0  0
 45 46  2  0  0  0  0
 46 47  1  0  0  0  0
 46 48  1  0  0  0  0
 48 49  2  0  0  0  0
 49 50  1  0  0  0  0
 50 51  2  0  0  0  0
 51 52  1  0  0  0  0
 51 53  1  0  0  0  0
 53 54  2  0  0  0  0
 54 55  1  0  0  0  0
 55 56  2  0  0  0  0
 56 57  1  0  0  0  0
 57 58  2  0  0  0  0
 58 59  1  0  0  0  0
 59 60  2  0  0  0  0
 60 61  1  0  0  0  0
 61 62  2  0  0  0  0
 62 63  1  0  0  0  0
 63 64  1  0  0  0  0
 64 65  1  0  0  0  0
 62 66  1  0  0  0  0
 66 67  2  0  0  0  0
 67 68  1  0  0  0  0
 68 69  2  0  0  0  0
 56 70  1  0  0  0  0
 70 71  2  0  0  0  0
 71 72  1  0  0  0  0
 72 73  1  0  0  0  0
 73 74  2  0  0  0  0
 74 75  1  0  0  0  0
 75 76  2  0  0  0  0
 76 77  1  0  0  0  0
 77 78  2  0  0  0  0
 78 79  1  0  0  0  0
 79 80  1  0  0  0  0
 80 81  1  0  0  0  0
 78 82  1  0  0  0  0
 82 83  2  0  0  0  0
 83 84  1  0  0  0  0
 84 85  2  0  0  0  0
 72 86  2  0  0  0  0
 86 87  1  0  0  0  0
 71 88  1  0  0  0  0
 88 89  2  0  0  0  0
 89 90  1  0  0  0  0
 89 91  1  0  0  0  0
 91 92  2  0  0  0  0
 92 93  1  0  0  0  0
 93 94  2  0  0  0  0
 93 95  1  0  0  0  0
 95 96  2  0  0  0  0
 96 97  1  0  0  0  0
 97 98  2  0  0  0  0
 98 99  1  0  0  0  0
 98100  1  0  0  0  0
100101  2  0  0  0  0
101102  1  0  0  0  0
102103  2  0  0  0  0
103104  1  0  0  0  0
104105  3  0  0  0  0
103106  1  0  0  0  0
106107  3  0  0  0  0
 12  2  1  0  0  0  0
 44 18  1  0  0  0  0
 52 48  1  0  0  0  0
 87 53  1  0  0  0  0
102 92  1  0  0  0  0
 11  5  1  0  0  0  0
 43 20  1  0  0  0  0
 86 55  1  0  0  0  0
101 95  1  0  0  0  0
 31 22  1  0  0  0  0
 47 32  1  0  0  0  0
 69 57  1  0  0  0  0
 90 70  1  0  0  0  0
 30 25  1  0  0  0  0
 42 35  1  0  0  0  0
 68 60  1  0  0  0  0
 85 73  1  0  0  0  0
 83 75  1  0  0  0  0
  1108  1  0  0  0  0
  6109  1  0  0  0  0
  7110  1  0  0  0  0
  9111  1  0  0  0  0
  9112  1  0  0  0  0
  9113  1  0  0  0  0
 10114  1  0  0  0  0
 19115  1  0  0  0  0
 23116  1  0  0  0  0
 24117  1  0  0  0  0
 26118  1  0  0  0  0
 27119  1  0  0  0  0
 28120  1  0  0  0  0
 29121  1  0  0  0  0
 31122  1  0  0  0  0
 36123  1  0  0  0  0
 37124  1  0  0  0  0
 40125  1  0  0  0  0
 40126  1  0  0  0  0
 41127  1  0  0  0  0
 41128  1  0  0  0  0
 41129  1  0  0  0  0
 45130  1  0  0  0  0
 49131  1  0  0  0  0
 54132  1  0  0  0  0
 58133  1  0  0  0  0
 59134  1  0  0  0  0
 61135  1  0  0  0  0
 64136  1  0  0  0  0
 64137  1  0  0  0  0
 65138  1  0  0  0  0
 65139  1  0  0  0  0
 65140  1  0  0  0  0
 66141  1  0  0  0  0
 67142  1  0  0  0  0
 69143  1  0  0  0  0
 74144  1  0  0  0  0
 76145  1  0  0  0  0
 77146  1  0  0  0  0
 80147  1  0  0  0  0
 80148  1  0  0  0  0
 81149  1  0  0  0  0
 81150  1  0  0  0  0
 81151  1  0  0  0  0
 82152  1  0  0  0  0
 84153  1  0  0  0  0
 85154  1  0  0  0  0
 88155  1  0  0  0  0
 91156  1  0  0  0  0
 96157  1  0  0  0  0
 97158  1  0  0  0  0
 99159  1  0  0  0  0
 99160  1  0  0  0  0
 99161  1  0  0  0  0
100162  1  0  0  0  0
M  END
