
  xtb     02032219213D
 energy: -284.645286465508 gnorm: 0.000867493285 xtb: 6.4.1 (unknown)
167185  0     0  0            999 V2000
    6.4849   -8.4363    0.2144 C   0  0  0  0  0  0  0  0  0  0  0  0
    6.2193   -9.7011   -0.2271 C   0  0  0  0  0  0  0  0  0  0  0  0
    5.0256  -10.1753   -0.9734 C   0  0  0  0  0  0  0  0  0  0  0  0
    3.9700   -9.6060   -1.1582 O   0  0  0  0  0  0  0  0  0  0  0  0
    5.3988  -11.4963   -1.5094 C   0  0  0  0  0  0  0  0  0  0  0  0
    4.6686  -12.3340   -2.3307 C   0  0  0  0  0  0  0  0  0  0  0  0
    5.2389  -13.5347   -2.7206 C   0  0  0  0  0  0  0  0  0  0  0  0
    6.5194  -13.8967   -2.3059 C   0  0  0  0  0  0  0  0  0  0  0  0
    7.1259  -15.1828   -2.7693 C   0  0  0  0  0  0  0  0  0  0  0  0
    7.2481  -13.0469   -1.4751 C   0  0  0  0  0  0  0  0  0  0  0  0
    6.6870  -11.8472   -1.0723 C   0  0  0  0  0  0  0  0  0  0  0  0
    7.1938  -10.7802   -0.2147 C   0  0  0  0  0  0  0  0  0  0  0  0
    8.3416  -10.8380    0.5302 C   0  0  0  0  0  0  0  0  0  0  0  0
    9.2387  -11.9268    0.5135 C   0  0  0  0  0  0  0  0  0  0  0  0
   10.0094  -12.7772    0.5458 N   0  0  0  0  0  0  0  0  0  0  0  0
    8.7735   -9.8576    1.4496 C   0  0  0  0  0  0  0  0  0  0  0  0
    9.1846   -9.1257    2.2335 N   0  0  0  0  0  0  0  0  0  0  0  0
    5.6441   -7.3030    0.2936 C   0  0  0  0  0  0  0  0  0  0  0  0
    4.2769   -7.1755    0.2812 C   0  0  0  0  0  0  0  0  0  0  0  0
    3.8290   -5.8437    0.3931 C   0  0  0  0  0  0  0  0  0  0  0  0
    2.4983   -5.3787    0.3811 C   0  0  0  0  0  0  0  0  0  0  0  0
    1.3624   -6.2829    0.1750 C   0  0  0  0  0  0  0  0  0  0  0  0
    1.3878   -7.2183   -0.8830 C   0  0  0  0  0  0  0  0  0  0  0  0
    0.3234   -8.0405   -1.1112 C   0  0  0  0  0  0  0  0  0  0  0  0
   -0.8311   -7.9776   -0.3023 C   0  0  0  0  0  0  0  0  0  0  0  0
   -1.9439   -8.8107   -0.5291 C   0  0  0  0  0  0  0  0  0  0  0  0
   -3.0585   -8.7113    0.2623 C   0  0  0  0  0  0  0  0  0  0  0  0
   -4.5135   -9.6977    0.0895 S   0  0  0  0  0  0  0  0  0  0  0  0
   -4.3638  -10.4737   -1.5566 C   0  0  0  0  0  0  0  0  0  0  0  0
   -4.5370   -9.4710   -2.6816 C   0  0  0  0  0  0  0  0  0  0  0  0
   -3.0898   -7.7812    1.3246 C   0  0  0  0  0  0  0  0  0  0  0  0
   -2.0214   -6.9731    1.5693 C   0  0  0  0  0  0  0  0  0  0  0  0
   -0.8633   -7.0402    0.7624 C   0  0  0  0  0  0  0  0  0  0  0  0
    0.2470   -6.2077    0.9786 C   0  0  0  0  0  0  0  0  0  0  0  0
    2.3199   -4.0121    0.5275 C   0  0  0  0  0  0  0  0  0  0  0  0
    3.3974   -3.0945    0.6366 C   0  0  0  0  0  0  0  0  0  0  0  0
    4.7260   -3.5553    0.6397 C   0  0  0  0  0  0  0  0  0  0  0  0
    5.8659   -2.6338    0.7317 C   0  0  0  0  0  0  0  0  0  0  0  0
    6.8520   -2.8299    1.6692 C   0  0  0  0  0  0  0  0  0  0  0  0
    7.9509   -1.9577    1.7612 C   0  0  0  0  0  0  0  0  0  0  0  0
    8.9777   -2.1436    2.7103 C   0  0  0  0  0  0  0  0  0  0  0  0
   10.0369   -1.2857    2.7831 C   0  0  0  0  0  0  0  0  0  0  0  0
   10.1129   -0.1811    1.9146 C   0  0  0  0  0  0  0  0  0  0  0  0
   11.4682    0.9564    1.9261 S   0  0  0  0  0  0  0  0  0  0  0  0
   12.0830    0.9077    3.6471 C   0  0  0  0  0  0  0  0  0  0  0  0
   11.0450    1.3930    4.6401 C   0  0  0  0  0  0  0  0  0  0  0  0
    9.1326    0.0211    0.9725 C   0  0  0  0  0  0  0  0  0  0  0  0
    8.0408   -0.8570    0.8687 C   0  0  0  0  0  0  0  0  0  0  0  0
    7.0220   -0.6817   -0.0934 C   0  0  0  0  0  0  0  0  0  0  0  0
    5.9663   -1.5430   -0.1601 C   0  0  0  0  0  0  0  0  0  0  0  0
    4.9052   -4.9250    0.5380 C   0  0  0  0  0  0  0  0  0  0  0  0
    6.4397   -5.7430    0.5083 S   0  0  0  0  0  0  0  0  0  0  0  0
    2.9400   -1.7591    0.7330 C   0  0  0  0  0  0  0  0  0  0  0  0
    1.5788   -1.6407    0.6830 C   0  0  0  0  0  0  0  0  0  0  0  0
    0.7817   -3.1886    0.5497 S   0  0  0  0  0  0  0  0  0  0  0  0
    0.7955   -0.4350    0.7005 C   0  0  0  0  0  0  0  0  0  0  0  0
    1.3262    0.8192    0.4443 C   0  0  0  0  0  0  0  0  0  0  0  0
    0.5404    1.9692    0.4034 C   0  0  0  0  0  0  0  0  0  0  0  0
   -0.8271    1.9641    0.6315 C   0  0  0  0  0  0  0  0  0  0  0  0
   -1.4092    0.7042    0.9328 C   0  0  0  0  0  0  0  0  0  0  0  0
   -2.6856    0.4302    1.2007 N   0  0  0  0  0  0  0  0  0  0  0  0
   -2.8470   -1.1506    1.4438 S   0  0  0  0  0  0  0  0  0  0  0  0
   -1.3135   -1.5723    1.2247 N   0  0  0  0  0  0  0  0  0  0  0  0
   -0.5991   -0.4841    0.9481 C   0  0  0  0  0  0  0  0  0  0  0  0
   -1.6205    3.1571    0.5376 C   0  0  0  0  0  0  0  0  0  0  0  0
   -2.9328    3.3187    0.8735 C   0  0  0  0  0  0  0  0  0  0  0  0
   -3.4289    4.6224    0.6332 C   0  0  0  0  0  0  0  0  0  0  0  0
   -4.7385    5.0890    0.8388 C   0  0  0  0  0  0  0  0  0  0  0  0
   -5.7559    4.2471    1.4795 C   0  0  0  0  0  0  0  0  0  0  0  0
   -5.4503    3.5859    2.6904 C   0  0  0  0  0  0  0  0  0  0  0  0
   -6.3784    2.8012    3.3091 C   0  0  0  0  0  0  0  0  0  0  0  0
   -7.6667    2.6299    2.7596 C   0  0  0  0  0  0  0  0  0  0  0  0
   -8.6463    1.8229    3.3726 C   0  0  0  0  0  0  0  0  0  0  0  0
   -9.8879    1.6897    2.8162 C   0  0  0  0  0  0  0  0  0  0  0  0
  -10.2062    2.3590    1.6238 C   0  0  0  0  0  0  0  0  0  0  0  0
   -9.2772    3.1464    1.0040 C   0  0  0  0  0  0  0  0  0  0  0  0
   -7.9861    3.3021    1.5509 C   0  0  0  0  0  0  0  0  0  0  0  0
   -7.0083    4.1039    0.9326 C   0  0  0  0  0  0  0  0  0  0  0  0
   -5.0111    6.3862    0.4292 C   0  0  0  0  0  0  0  0  0  0  0  0
   -4.0258    7.2334   -0.1476 C   0  0  0  0  0  0  0  0  0  0  0  0
   -2.7059    6.7619   -0.3653 C   0  0  0  0  0  0  0  0  0  0  0  0
   -1.7204    7.5828   -1.0283 C   0  0  0  0  0  0  0  0  0  0  0  0
   -1.9063    8.4276   -2.0904 C   0  0  0  0  0  0  0  0  0  0  0  0
   -0.7366    9.0805   -2.5122 C   0  0  0  0  0  0  0  0  0  0  0  0
    0.3563    8.7329   -1.7686 C   0  0  0  0  0  0  0  0  0  0  0  0
    2.0130    9.2767   -1.8624 S   0  0  0  0  0  0  0  0  0  0  0  0
    2.0715   10.0648   -3.5113 C   0  0  0  0  0  0  0  0  0  0  0  0
    1.9788    9.0511   -4.6349 C   0  0  0  0  0  0  0  0  0  0  0  0
   -0.0441    7.5777   -0.5387 S   0  0  0  0  0  0  0  0  0  0  0  0
   -2.4429    5.4676    0.0599 C   0  0  0  0  0  0  0  0  0  0  0  0
   -0.9221    4.6333   -0.1055 S   0  0  0  0  0  0  0  0  0  0  0  0
   -4.5384    8.5152   -0.3859 C   0  0  0  0  0  0  0  0  0  0  0  0
   -5.8746    8.6650   -0.0548 C   0  0  0  0  0  0  0  0  0  0  0  0
   -6.5482    7.1894    0.6030 S   0  0  0  0  0  0  0  0  0  0  0  0
   -6.5488    9.8826   -0.2799 C   0  0  0  0  0  0  0  0  0  0  0  0
   -7.8522   10.2332   -0.0675 C   0  0  0  0  0  0  0  0  0  0  0  0
   -8.8967    9.3847    0.5398 C   0  0  0  0  0  0  0  0  0  0  0  0
   -8.7961    8.2291    0.9033 O   0  0  0  0  0  0  0  0  0  0  0  0
  -10.1000   10.2272    0.6229 C   0  0  0  0  0  0  0  0  0  0  0  0
  -11.3469    9.9152    1.1298 C   0  0  0  0  0  0  0  0  0  0  0  0
  -12.3322   10.8882    1.0954 C   0  0  0  0  0  0  0  0  0  0  0  0
  -12.0822   12.1535    0.5665 C   0  0  0  0  0  0  0  0  0  0  0  0
  -13.1598   13.1907    0.5616 C   0  0  0  0  0  0  0  0  0  0  0  0
  -10.8204   12.4597    0.0590 C   0  0  0  0  0  0  0  0  0  0  0  0
   -9.8261   11.4965    0.0843 C   0  0  0  0  0  0  0  0  0  0  0  0
   -8.4394   11.5241   -0.3782 C   0  0  0  0  0  0  0  0  0  0  0  0
   -7.8413   12.5778   -1.0200 C   0  0  0  0  0  0  0  0  0  0  0  0
   -6.5225   12.6052   -1.5195 C   0  0  0  0  0  0  0  0  0  0  0  0
   -5.4710   12.7109   -1.9713 N   0  0  0  0  0  0  0  0  0  0  0  0
   -8.4827   13.8033   -1.2985 C   0  0  0  0  0  0  0  0  0  0  0  0
   -8.9376   14.8262   -1.5545 N   0  0  0  0  0  0  0  0  0  0  0  0
    7.5073   -8.2322    0.5128 H   0  0  0  0  0  0  0  0  0  0  0  0
    3.6785  -12.0484   -2.6516 H   0  0  0  0  0  0  0  0  0  0  0  0
    4.6853  -14.2066   -3.3603 H   0  0  0  0  0  0  0  0  0  0  0  0
    6.3644  -15.9480   -2.9009 H   0  0  0  0  0  0  0  0  0  0  0  0
    7.8716  -15.5375   -2.0626 H   0  0  0  0  0  0  0  0  0  0  0  0
    7.6185  -15.0310   -3.7305 H   0  0  0  0  0  0  0  0  0  0  0  0
    8.2399  -13.3341   -1.1647 H   0  0  0  0  0  0  0  0  0  0  0  0
    3.6150   -8.0175    0.2133 H   0  0  0  0  0  0  0  0  0  0  0  0
    2.2521   -7.2637   -1.5273 H   0  0  0  0  0  0  0  0  0  0  0  0
    0.3540   -8.7506   -1.9249 H   0  0  0  0  0  0  0  0  0  0  0  0
   -1.8813   -9.5230   -1.3374 H   0  0  0  0  0  0  0  0  0  0  0  0
   -3.4085  -10.9950   -1.6067 H   0  0  0  0  0  0  0  0  0  0  0  0
   -5.1641  -11.2137   -1.5682 H   0  0  0  0  0  0  0  0  0  0  0  0
   -3.7707   -8.6998   -2.6380 H   0  0  0  0  0  0  0  0  0  0  0  0
   -5.5101   -8.9909   -2.6090 H   0  0  0  0  0  0  0  0  0  0  0  0
   -4.4686   -9.9771   -3.6429 H   0  0  0  0  0  0  0  0  0  0  0  0
   -3.9803   -7.7299    1.9328 H   0  0  0  0  0  0  0  0  0  0  0  0
   -2.0493   -6.2598    2.3799 H   0  0  0  0  0  0  0  0  0  0  0  0
    0.2188   -5.5166    1.8083 H   0  0  0  0  0  0  0  0  0  0  0  0
    6.7837   -3.6527    2.3662 H   0  0  0  0  0  0  0  0  0  0  0  0
    8.9209   -2.9910    3.3782 H   0  0  0  0  0  0  0  0  0  0  0  0
   10.8200   -1.4664    3.5027 H   0  0  0  0  0  0  0  0  0  0  0  0
   12.9469    1.5721    3.6279 H   0  0  0  0  0  0  0  0  0  0  0  0
   12.4277   -0.1016    3.8699 H   0  0  0  0  0  0  0  0  0  0  0  0
   10.1668    0.7502    4.6293 H   0  0  0  0  0  0  0  0  0  0  0  0
   10.7330    2.4052    4.3933 H   0  0  0  0  0  0  0  0  0  0  0  0
   11.4646    1.3917    5.6444 H   0  0  0  0  0  0  0  0  0  0  0  0
    9.2034    0.8640    0.3010 H   0  0  0  0  0  0  0  0  0  0  0  0
    7.0974    0.1473   -0.7824 H   0  0  0  0  0  0  0  0  0  0  0  0
    5.2049   -1.4175   -0.9166 H   0  0  0  0  0  0  0  0  0  0  0  0
    3.6034   -0.9235    0.8626 H   0  0  0  0  0  0  0  0  0  0  0  0
    2.3817    0.9121    0.2419 H   0  0  0  0  0  0  0  0  0  0  0  0
    1.0173    2.9112    0.1744 H   0  0  0  0  0  0  0  0  0  0  0  0
   -3.5294    2.5131    1.2591 H   0  0  0  0  0  0  0  0  0  0  0  0
   -4.4763    3.7326    3.1339 H   0  0  0  0  0  0  0  0  0  0  0  0
   -6.1394    2.3023    4.2378 H   0  0  0  0  0  0  0  0  0  0  0  0
   -8.3976    1.3121    4.2922 H   0  0  0  0  0  0  0  0  0  0  0  0
  -10.6345    1.0696    3.2909 H   0  0  0  0  0  0  0  0  0  0  0  0
  -11.1940    2.2448    1.2014 H   0  0  0  0  0  0  0  0  0  0  0  0
   -9.5172    3.6672    0.0883 H   0  0  0  0  0  0  0  0  0  0  0  0
   -7.2547    4.5931    0.0016 H   0  0  0  0  0  0  0  0  0  0  0  0
   -2.8504    8.5465   -2.5910 H   0  0  0  0  0  0  0  0  0  0  0  0
   -0.7215    9.7790   -3.3282 H   0  0  0  0  0  0  0  0  0  0  0  0
    3.0345   10.5747   -3.5223 H   0  0  0  0  0  0  0  0  0  0  0  0
    1.2786   10.8097   -3.5566 H   0  0  0  0  0  0  0  0  0  0  0  0
    1.0396    8.5043   -4.5880 H   0  0  0  0  0  0  0  0  0  0  0  0
    2.0382    9.5592   -5.5952 H   0  0  0  0  0  0  0  0  0  0  0  0
    2.7961    8.3371   -4.5668 H   0  0  0  0  0  0  0  0  0  0  0  0
   -3.9550    9.3337   -0.7678 H   0  0  0  0  0  0  0  0  0  0  0  0
   -5.9019   10.6441   -0.6992 H   0  0  0  0  0  0  0  0  0  0  0  0
  -11.5345    8.9338    1.5375 H   0  0  0  0  0  0  0  0  0  0  0  0
  -13.3157   10.6675    1.4841 H   0  0  0  0  0  0  0  0  0  0  0  0
  -12.9587   13.9578   -0.1814 H   0  0  0  0  0  0  0  0  0  0  0  0
  -13.2124   13.6715    1.5390 H   0  0  0  0  0  0  0  0  0  0  0  0
  -14.1294   12.7415    0.3588 H   0  0  0  0  0  0  0  0  0  0  0  0
  -10.6396   13.4427   -0.3447 H   0  0  0  0  0  0  0  0  0  0  0  0
  1  2  2  0  0  0  0
  2  3  1  0  0  0  0
  3  4  2  0  0  0  0
  3  5  1  0  0  0  0
  5  6  2  0  0  0  0
  6  7  1  0  0  0  0
  7  8  2  0  0  0  0
  8  9  1  0  0  0  0
  8 10  1  0  0  0  0
 10 11  2  0  0  0  0
 11 12  1  0  0  0  0
 12 13  2  0  0  0  0
 13 14  1  0  0  0  0
 14 15  3  0  0  0  0
 13 16  1  0  0  0  0
 16 17  3  0  0  0  0
  1 18  1  0  0  0  0
 18 19  2  0  0  0  0
 19 20  1  0  0  0  0
 20 21  2  0  0  0  0
 21 22  1  0  0  0  0
 22 23  2  0  0  0  0
 23 24  1  0  0  0  0
 24 25  2  0  0  0  0
 25 26  1  0  0  0  0
 26 27  2  0  0  0  0
 27 28  1  0  0  0  0
 28 29  1  0  0  0  0
 29 30  1  0  0  0  0
 27 31  1  0  0  0  0
 31 32  2  0  0  0  0
 32 33  1  0  0  0  0
 33 34  2  0  0  0  0
 21 35  1  0  0  0  0
 35 36  2  0  0  0  0
 36 37  1  0  0  0  0
 37 38  1  0  0  0  0
 38 39  2  0  0  0  0
 39 40  1  0  0  0  0
 40 41  2  0  0  0  0
 41 42  1  0  0  0  0
 42 43  2  0  0  0  0
 43 44  1  0  0  0  0
 44 45  1  0  0  0  0
 45 46  1  0  0  0  0
 43 47  1  0  0  0  0
 47 48  2  0  0  0  0
 48 49  1  0  0  0  0
 49 50  2  0  0  0  0
 37 51  2  0  0  0  0
 51 52  1  0  0  0  0
 36 53  1  0  0  0  0
 53 54  2  0  0  0  0
 54 55  1  0  0  0  0
 54 56  1  0  0  0  0
 56 57  2  0  0  0  0
 57 58  1  0  0  0  0
 58 59  2  0  0  0  0
 59 60  1  0  0  0  0
 60 61  2  0  0  0  0
 61 62  1  0  0  0  0
 62 63  1  0  0  0  0
 63 64  2  0  0  0  0
 59 65  1  0  0  0  0
 65 66  2  0  0  0  0
 66 67  1  0  0  0  0
 67 68  2  0  0  0  0
 68 69  1  0  0  0  0
 69 70  2  0  0  0  0
 70 71  1  0  0  0  0
 71 72  2  0  0  0  0
 72 73  1  0  0  0  0
 73 74  2  0  0  0  0
 74 75  1  0  0  0  0
 75 76  2  0  0  0  0
 76 77  1  0  0  0  0
 77 78  2  0  0  0  0
 68 79  1  0  0  0  0
 79 80  2  0  0  0  0
 80 81  1  0  0  0  0
 81 82  1  0  0  0  0
 82 83  2  0  0  0  0
 83 84  1  0  0  0  0
 84 85  2  0  0  0  0
 85 86  1  0  0  0  0
 86 87  1  0  0  0  0
 87 88  1  0  0  0  0
 85 89  1  0  0  0  0
 81 90  2  0  0  0  0
 90 91  1  0  0  0  0
 80 92  1  0  0  0  0
 92 93  2  0  0  0  0
 93 94  1  0  0  0  0
 93 95  1  0  0  0  0
 95 96  2  0  0  0  0
 96 97  1  0  0  0  0
 97 98  2  0  0  0  0
 97 99  1  0  0  0  0
 99100  2  0  0  0  0
100101  1  0  0  0  0
101102  2  0  0  0  0
102103  1  0  0  0  0
102104  1  0  0  0  0
104105  2  0  0  0  0
105106  1  0  0  0  0
106107  2  0  0  0  0
107108  1  0  0  0  0
108109  3  0  0  0  0
107110  1  0  0  0  0
110111  3  0  0  0  0
 12  2  1  0  0  0  0
 52 18  1  0  0  0  0
 64 56  1  0  0  0  0
 91 65  1  0  0  0  0
106 96  1  0  0  0  0
 11  5  1  0  0  0  0
 51 20  1  0  0  0  0
 64 60  1  0  0  0  0
 90 67  1  0  0  0  0
105 99  1  0  0  0  0
 34 22  1  0  0  0  0
 55 35  1  0  0  0  0
 78 69  1  0  0  0  0
 94 79  1  0  0  0  0
 33 25  1  0  0  0  0
 50 38  1  0  0  0  0
 77 72  1  0  0  0  0
 89 82  1  0  0  0  0
 48 40  1  0  0  0  0
  1112  1  0  0  0  0
  6113  1  0  0  0  0
  7114  1  0  0  0  0
  9115  1  0  0  0  0
  9116  1  0  0  0  0
  9117  1  0  0  0  0
 10118  1  0  0  0  0
 19119  1  0  0  0  0
 23120  1  0  0  0  0
 24121  1  0  0  0  0
 26122  1  0  0  0  0
 29123  1  0  0  0  0
 29124  1  0  0  0  0
 30125  1  0  0  0  0
 30126  1  0  0  0  0
 30127  1  0  0  0  0
 31128  1  0  0  0  0
 32129  1  0  0  0  0
 34130  1  0  0  0  0
 39131  1  0  0  0  0
 41132  1  0  0  0  0
 42133  1  0  0  0  0
 45134  1  0  0  0  0
 45135  1  0  0  0  0
 46136  1  0  0  0  0
 46137  1  0  0  0  0
 46138  1  0  0  0  0
 47139  1  0  0  0  0
 49140  1  0  0  0  0
 50141  1  0  0  0  0
 53142  1  0  0  0  0
 57143  1  0  0  0  0
 58144  1  0  0  0  0
 66145  1  0  0  0  0
 70146  1  0  0  0  0
 71147  1  0  0  0  0
 73148  1  0  0  0  0
 74149  1  0  0  0  0
 75150  1  0  0  0  0
 76151  1  0  0  0  0
 78152  1  0  0  0  0
 83153  1  0  0  0  0
 84154  1  0  0  0  0
 87155  1  0  0  0  0
 87156  1  0  0  0  0
 88157  1  0  0  0  0
 88158  1  0  0  0  0
 88159  1  0  0  0  0
 92160  1  0  0  0  0
 95161  1  0  0  0  0
100162  1  0  0  0  0
101163  1  0  0  0  0
103164  1  0  0  0  0
103165  1  0  0  0  0
103166  1  0  0  0  0
104167  1  0  0  0  0
M  END
