167

C          8.26330       -7.74840       -1.06120
C          9.12460       -8.05830       -2.07600
C          8.95270       -7.72880       -3.50490
O          8.01270       -7.16710       -4.03420
C         10.16180       -8.22260       -4.18100
C         10.50110       -8.14850       -5.51850
C         11.71140       -8.68840       -5.92040
C         12.57240       -9.29410       -5.00640
C         13.88330       -9.84740       -5.46700
C         12.22090       -9.36520       -3.65950
C         11.01400       -8.82930       -3.24250
C         10.39230       -8.75190       -1.92130
C         10.93520       -9.24910       -0.76530
C         10.36070       -9.18260        0.52170
N          9.97500       -9.17180        1.60410
C         12.17750       -9.91510       -0.69620
N         13.17780      -10.46310       -0.56440
C          7.04050       -7.04640       -1.07570
C          6.34880       -6.76300        0.08810
C          5.18440       -6.00350       -0.10620
C          4.27540       -5.54090        0.87090
C          4.48200       -5.78440        2.30230
C          5.72420       -5.48270        2.90340
C          5.92200       -5.69590        4.23620
C          4.89500       -6.22240        5.04830
C          5.06970       -6.45610        6.42730
C          4.04840       -6.95930        7.18400
C          2.80700       -7.25150        6.59650
C          2.60700       -7.03780        5.26190
C          3.64070       -6.51910        4.45360
C          3.46380       -6.28740        3.07710
C          3.19230       -4.81620        0.40910
C          2.96310       -4.54550       -0.96640
C          3.84130       -5.05360       -1.94840
C          3.57600       -4.88260       -3.35700
C          2.36980       -4.91700       -4.00850
C          2.47190       -4.76890       -5.39960
C          3.76520       -4.61790       -5.82140
S          4.26280       -4.44790       -7.48420
C          6.08620       -4.45690       -7.35280
C          6.64420       -3.09740       -6.98000
S          4.87740       -4.65250       -4.49230
C          4.96150       -5.74030       -1.48430
S          6.22530       -6.39950       -2.48330
C          1.86220       -3.68080       -1.14570
C          1.25680       -3.30030        0.02310
S          2.01120       -4.02200        1.42300
C          0.17230       -2.37340        0.18180
C         -0.52800       -1.82360       -0.88280
C         -1.50450       -0.84580       -0.71240
C         -1.85180       -0.32730        0.52610
C         -1.20630       -0.90500        1.65100
N         -1.40320       -0.63290        2.94090
S         -0.44110       -1.56460        3.83090
N          0.27760       -2.35720        2.63220
C         -0.21150       -1.92790        1.47220
C         -2.77290        0.76450        0.66800
C         -2.97480        1.53130        1.77890
C         -3.88920        2.59280        1.58380
C         -4.25260        3.59190        2.50570
C         -3.78140        3.53350        3.89380
C         -3.21680        4.67020        4.50940
C         -2.76450        4.61470        5.79600
C         -2.84550        3.42120        6.54400
C         -2.37550        3.34040        7.86950
C         -2.45280        2.16050        8.56280
S         -1.91370        1.92360       10.22720
C         -0.92290        3.40550       10.62040
C          0.40770        3.41600        9.89190
C         -3.01860        1.01870        7.95320
C         -3.48970        1.07630        6.67710
C         -3.41540        2.27480        5.93220
C         -3.87970        2.36140        4.61010
C         -5.06870        4.60480        2.02620
C         -5.56930        4.63350        0.69540
C         -5.24220        3.60590       -0.21190
C         -5.76570        3.58740       -1.58220
C         -6.36450        2.44990       -2.07180
C         -6.89260        2.40920       -3.37350
C         -7.53830        1.26430       -3.88490
C         -8.05600        1.24870       -5.14780
C         -7.93600        2.38150       -5.97380
S         -8.61290        2.45320       -7.60730
C         -8.64330        0.71170       -8.16270
C         -7.25280        0.11470       -8.25640
C         -7.31650        3.51430       -5.50180
C         -6.79100        3.55990       -4.19950
C         -6.15570        4.70970       -3.68110
C         -5.66080        4.72770       -2.41010
C         -4.39610        2.61730        0.25950
S         -3.74070        1.30850       -0.69080
C         -6.38850        5.75620        0.45660
C         -6.50390        6.59580        1.53490
S         -5.65030        5.96590        2.94200
C         -7.18830        7.82560        1.68580
C         -7.52890        8.73090        0.72340
C         -7.02580        8.77790       -0.67540
O         -6.42200        7.92540       -1.29150
C         -7.35470       10.12900       -1.16150
C         -7.04290       10.70940       -2.37670
C         -7.45210       12.01200       -2.60700
C         -8.15520       12.73270       -1.64180
C         -8.55710       14.14710       -1.91530
C         -8.46660       12.13950       -0.42020
C         -8.07020       10.83450       -0.17970
C         -8.25360        9.96480        0.97790
C         -9.03880       10.23700        2.06610
C         -9.29440        9.34080        3.12640
N         -9.56990        8.66130        4.01010
C         -9.73860       11.44790        2.25030
N        -10.32460       12.41310        2.45730
H          8.55090       -8.06020       -0.06410
H          9.83010       -7.67940       -6.22160
H         11.99920       -8.64240       -6.96060
H         14.27950      -10.56070       -4.74930
H         14.60630       -9.03830       -5.57580
H         13.78020      -10.33340       -6.43460
H         12.89620       -9.83640       -2.96390
H          6.68400       -7.10440        1.05190
H          6.50750       -5.05190        2.29680
H          6.87310       -5.45840        4.69110
H          6.02700       -6.23010        6.87520
H          4.18840       -7.13640        8.24030
H          2.01170       -7.64810        7.21070
H          1.65380       -7.26000        4.80380
H          2.51290       -6.53410        2.62730
H          1.43790       -5.10500       -3.50570
H          1.63610       -4.78720       -6.07460
H          6.42620       -4.76150       -8.34260
H          6.35830       -5.22130       -6.62470
H          6.27730       -2.78330       -6.00590
H          7.73010       -3.14810       -6.93760
H          6.35610       -2.35250       -7.71830
H          1.56900       -3.30460       -2.10780
H         -0.30170       -2.14700       -1.88640
H         -1.99440       -0.44740       -1.58920
H         -2.44740        1.35560        2.69770
H         -3.12310        5.58360        3.94150
H         -2.32880        5.49000        6.25660
H         -1.96350        4.23450        8.31130
H         -0.77520        3.34080       11.69850
H         -1.52370        4.28850       10.40520
H          0.98510        2.53260       10.15420
H          0.97670        4.30060       10.17200
H          0.26210        3.42170        8.81370
H         -3.06740        0.10500        8.52620
H         -3.92030        0.20120        6.21260
H         -4.33780        1.49020        4.16440
H         -6.46580        1.57590       -1.44410
H         -7.62760        0.39190       -3.25310
H         -8.56690        0.36740       -5.50300
H         -9.29410        0.14210       -7.49980
H         -9.11280        0.76580       -9.14480
H         -7.31240       -0.90590       -8.62990
H         -6.76940        0.10080       -7.28140
H         -6.63780        0.70000       -8.93610
H         -7.23730        4.38350       -6.13770
H         -6.06980        5.58360       -4.30980
H         -5.17200        5.61200       -2.03130
H         -6.89790        5.92480       -0.47240
H         -7.39920        8.09100        2.71570
H         -6.49560       10.14920       -3.11910
H         -7.22350       12.48600       -3.55040
H         -7.68310       14.79690       -1.86490
H         -8.98130       14.24000       -2.91310
H         -9.28420       14.49450       -1.18640
H         -9.00480       12.70650        0.32240
