226

C          7.51150        1.18910        9.57500
C          8.58700        1.96840        9.90110
C          9.18530        3.03030        9.06930
O          8.84020        3.39650        7.96170
C         10.30650        3.57260        9.85220
C         11.18820        4.58390        9.52240
C         12.17520        4.91890       10.43450
C         12.28450        4.25800       11.65690
C         13.34810        4.65570       12.63030
C         11.38970        3.23950       11.98110
C         10.39760        2.89370       11.07930
C          9.33720        1.88850       11.14190
C          9.11390        1.04500       12.19950
C          8.09160        0.07750       12.29290
N          7.29260       -0.73110       12.46150
C          9.89180        1.02720       13.37650
N         10.48000        0.95370       14.36000
C          6.69610        1.18350        8.42620
C          5.61660        0.32700        8.30030
C          4.89830        0.48000        7.10560
C          3.77180       -0.25530        6.67050
C          3.08820       -1.23740        7.51660
C          2.75770       -0.90490        8.84980
C          2.07900       -1.78480        9.64000
C          1.68120       -3.04530        9.14650
C          0.98210       -3.97930        9.93890
C          0.58690       -5.18100        9.41740
C          0.86980       -5.50060        8.07950
C          1.55660       -4.62120        7.29010
C          1.98410       -3.37690        7.80030
C          2.69660       -2.45500        7.01220
C          3.29360        0.05780        5.41350
C          3.81720        1.10060        4.60450
C          4.97510        1.79840        5.01330
C          5.61280        2.75680        4.14450
C          5.70440        2.73900        2.77490
C          6.45100        3.79730        2.23890
C          6.93980        4.63730        3.20270
S          7.94260        6.03170        2.90270
C          8.39590        6.56160        4.59340
C          7.31900        7.40960        5.24130
S          6.47050        4.12820        4.79230
C          5.47590        1.47870        6.27510
S          6.86670        2.21260        7.02000
C          3.00250        1.33720        3.47970
C          1.92200        0.49630        3.37710
S          1.89290       -0.67540        4.67640
C          0.97810        0.51720        2.31630
C         -0.13940       -0.26580        2.04310
N         -0.68250       -1.28250        2.81490
C         -1.18560       -2.39030        2.11060
C         -0.44240       -2.92220        1.05850
C         -0.95920       -3.92640        0.26690
C         -2.23110       -4.42270        0.51960
S         -2.98660       -5.66110       -0.49010
C         -2.21880       -5.34750       -2.10630
C         -2.95070       -3.94030        1.60950
C         -2.43760       -2.93240        2.39690
C         -0.89510       -1.14840        4.18770
C         -1.06800        0.10900        4.76870
C         -1.20340        0.23000        6.13380
C         -1.18470       -0.89850        6.94850
S         -1.31590       -0.63920        8.68970
C         -1.99170       -2.21660        9.28580
C         -1.04110       -2.15470        6.37400
C         -0.89980       -2.27680        5.00760
C         -0.68040        0.06350        0.77360
S         -2.00590       -0.53920       -0.15210
C         -1.63100        0.56430       -1.47070
C         -0.56280        1.39820       -1.17100
N          0.02780        2.34420       -2.00250
C          1.43340        2.42190       -1.92320
C          2.18700        1.25540       -2.01660
C          3.55820        1.28350       -1.85090
C          4.19950        2.48670       -1.59060
S          5.93670        2.64800       -1.32730
C          6.50800        0.93690       -1.12440
C          3.45260        3.66180       -1.52950
C          2.08650        3.63250       -1.69170
C         -0.67750        3.43650       -2.51680
C         -1.82490        3.93180       -1.89590
C         -2.42130        5.08280       -2.36360
C         -1.89140        5.76100       -3.45840
S         -2.63430        7.30120       -3.89410
C         -1.38330        8.08320       -4.95200
C         -0.80250        5.22380       -4.13220
C         -0.20130        4.07470       -3.66150
C         -0.02980        1.08300        0.10500
S          1.29000        1.69470        1.03590
C         -2.36960        0.36220       -2.67370
C         -2.64180        1.18460       -3.72760
C         -3.39460        0.55910       -4.75210
C         -3.82840        1.12690       -5.95960
C         -3.72170        2.57020       -6.21080
C         -4.32080        3.45010       -5.28360
C         -4.36490        4.79060       -5.52560
C         -3.77510        5.33180       -6.68720
C         -3.81700        6.71340       -6.95540
C         -3.19290        7.22360       -8.06430
S         -3.13460        8.93990       -8.47110
C         -4.32770        9.70520       -7.31100
C         -4.47360       11.17600       -7.65140
C         -2.51750        6.36020       -8.95500
C         -2.49180        5.01680       -8.73000
C         -3.12000        4.45930       -7.59380
C         -3.12950        3.07590       -7.34200
C         -4.46040        0.27900       -6.85440
C         -4.73060       -1.08920       -6.57260
C         -4.34510       -1.64330       -5.33450
C         -4.62740       -3.03650       -4.97270
C         -5.20730       -3.32840       -3.75890
C         -5.45110       -4.65440       -3.36730
C         -6.03930       -4.97400       -2.12360
C         -6.21670       -6.27130       -1.74920
C         -5.81910       -7.32200       -2.60200
S         -6.08480       -8.95640       -1.98610
C         -4.80310       -9.95230       -2.82580
C         -3.40350       -9.50870       -2.44790
C         -5.28080       -7.04500       -3.83250
C         -5.07980       -5.71160       -4.23930
C         -4.49990       -5.38890       -5.48550
C         -4.28160       -4.09070       -5.84490
C         -3.68100       -0.79880       -4.46380
S         -3.04510       -1.24750       -2.90350
C         -5.45100       -1.71510       -7.60720
C         -5.71830       -0.89070       -8.67400
S         -5.08820        0.73880       -8.40710
C         -6.42180       -1.09490       -9.88140
C         -6.94140       -2.22600      -10.44690
C         -6.77070       -3.63920      -10.02480
O         -6.23020       -4.07810       -9.02960
C         -7.37190       -4.44900      -11.09760
C         -7.44480       -5.82520      -11.20210
C         -8.05970       -6.36810      -12.31760
C         -8.59000       -5.55550      -13.31880
C         -9.22520       -6.17150      -14.52470
C         -8.51210       -4.16880      -13.20430
C         -7.90630       -3.61220      -12.09020
C         -7.69710       -2.22260      -11.69140
C         -8.19690       -1.13390      -12.35630
C         -8.93590       -1.21150      -13.55640
N         -9.53860       -1.19420      -14.53350
C         -8.09550        0.21590      -11.95480
N         -8.08830        1.33790      -11.70860
H          7.20500        0.45020       10.30600
H         11.09980        5.09080        8.57370
H         12.87700        5.70570       10.19910
H         13.53120        3.86460       13.35250
H         13.03390        5.54630       13.17540
H         14.27660        4.89140       12.11500
H         11.48610        2.73680       12.92970
H          5.37100       -0.39970        9.05500
H          3.02230        0.07200        9.22600
H          1.82490       -1.52080       10.65630
H          0.76620       -3.72800       10.96800
H          0.05130       -5.89170       10.02990
H          0.54210       -6.45030        7.68240
H          1.77990       -4.86210        6.26060
H          2.95340       -2.73350        6.00030
H          5.29180        1.95280        2.16900
H          6.63690        3.93430        1.18950
H          9.31540        7.13150        4.46010
H          8.60670        5.66280        5.17310
H          7.64190        7.71160        6.23530
H          6.39250        6.84900        5.33760
H          7.12780        8.30090        4.64790
H          3.16650        2.14070        2.78460
H          0.54360       -2.52970        0.85430
H         -0.36580       -4.31470       -0.54530
H         -2.84360       -5.84930       -2.83800
H         -2.21910       -4.27870       -2.29820
H         -1.21290       -5.75670       -2.13770
H         -3.92960       -4.34600        1.81250
H         -3.01620       -2.53560        3.21760
H         -1.08540        0.99060        4.14510
H         -1.32450        1.20270        6.58510
H         -2.32240       -2.03040       10.30270
H         -2.83610       -2.50170        8.66590
H         -1.22250       -2.98380        9.28360
H         -1.01230       -3.04280        6.98480
H         -0.76220       -3.25370        4.56950
H          1.68850        0.31600       -2.20800
H          4.11180        0.36130       -1.92640
H          6.44360        0.40310       -2.06820
H          5.92520        0.44490       -0.35130
H          7.54580        1.01040       -0.81440
H          3.95790        4.59400       -1.32920
H          1.51380        4.54400       -1.61280
H         -2.22480        3.42770       -1.02870
H         -3.28760        5.48730       -1.86310
H         -1.36250        7.60670       -5.92830
H         -1.68640        9.12050       -5.05660
H         -0.41470        8.03170       -4.46420
H         -0.41110        5.69270       -5.02040
H          0.65990        3.67100       -4.17270
H         -2.32850        2.20950       -3.78480
H         -4.77790        3.03820       -4.39540
H         -4.85010        5.45810       -4.82880
H         -4.33760        7.34520       -6.25410
H         -5.27590        9.17940       -7.42450
H         -3.94910        9.57630       -6.29660
H         -4.83620       11.29690       -8.66950
H         -5.18080       11.64400       -6.96990
H         -3.51580       11.68430       -7.56520
H         -2.03360        6.79110       -9.81860
H         -1.98900        4.35770       -9.42280
H         -2.65340        2.41220       -8.04980
H         -5.50430       -2.53130       -3.09250
H         -6.32730       -4.16960       -1.46320
H         -6.64780       -6.52320       -0.79280
H         -4.99860      -10.96770       -2.48170
H         -4.97410       -9.91120       -3.90110
H         -3.27060       -9.55970       -1.36990
H         -2.66790      -10.15410       -2.92440
H         -3.22450       -8.48300       -2.76350
H         -4.99690       -7.83240       -4.51470
H         -4.22350       -6.19060       -6.15520
H         -3.81810       -3.85950       -6.79190
H         -5.77800       -2.73720       -7.56870
H         -6.55150       -0.17920      -10.44680
H         -7.03160       -6.44860      -10.42400
H         -8.13270       -7.44110      -12.42020
H         -9.86790       -5.45820      -15.03380
H         -8.45320       -6.49320      -15.22450
H         -9.81010       -7.04640      -14.24960
H         -8.92270       -3.55190      -13.98700
