
  xtb     02032220463D
 energy: -284.646536623789 gnorm: 0.000594583188 xtb: 6.4.1 (unknown)
167185  0     0  0            999 V2000
    8.2633   -7.7484   -1.0612 C   0  0  0  0  0  0  0  0  0  0  0  0
    9.1246   -8.0583   -2.0760 C   0  0  0  0  0  0  0  0  0  0  0  0
    8.9527   -7.7288   -3.5049 C   0  0  0  0  0  0  0  0  0  0  0  0
    8.0127   -7.1671   -4.0342 O   0  0  0  0  0  0  0  0  0  0  0  0
   10.1618   -8.2226   -4.1810 C   0  0  0  0  0  0  0  0  0  0  0  0
   10.5011   -8.1485   -5.5185 C   0  0  0  0  0  0  0  0  0  0  0  0
   11.7114   -8.6884   -5.9204 C   0  0  0  0  0  0  0  0  0  0  0  0
   12.5724   -9.2941   -5.0064 C   0  0  0  0  0  0  0  0  0  0  0  0
   13.8833   -9.8474   -5.4670 C   0  0  0  0  0  0  0  0  0  0  0  0
   12.2209   -9.3652   -3.6595 C   0  0  0  0  0  0  0  0  0  0  0  0
   11.0140   -8.8293   -3.2425 C   0  0  0  0  0  0  0  0  0  0  0  0
   10.3923   -8.7519   -1.9213 C   0  0  0  0  0  0  0  0  0  0  0  0
   10.9352   -9.2491   -0.7653 C   0  0  0  0  0  0  0  0  0  0  0  0
   10.3607   -9.1826    0.5217 C   0  0  0  0  0  0  0  0  0  0  0  0
    9.9750   -9.1718    1.6041 N   0  0  0  0  0  0  0  0  0  0  0  0
   12.1775   -9.9151   -0.6962 C   0  0  0  0  0  0  0  0  0  0  0  0
   13.1778  -10.4631   -0.5644 N   0  0  0  0  0  0  0  0  0  0  0  0
    7.0405   -7.0464   -1.0757 C   0  0  0  0  0  0  0  0  0  0  0  0
    6.3488   -6.7630    0.0881 C   0  0  0  0  0  0  0  0  0  0  0  0
    5.1844   -6.0035   -0.1062 C   0  0  0  0  0  0  0  0  0  0  0  0
    4.2754   -5.5409    0.8709 C   0  0  0  0  0  0  0  0  0  0  0  0
    4.4820   -5.7844    2.3023 C   0  0  0  0  0  0  0  0  0  0  0  0
    5.7242   -5.4827    2.9034 C   0  0  0  0  0  0  0  0  0  0  0  0
    5.9220   -5.6959    4.2362 C   0  0  0  0  0  0  0  0  0  0  0  0
    4.8950   -6.2224    5.0483 C   0  0  0  0  0  0  0  0  0  0  0  0
    5.0697   -6.4561    6.4273 C   0  0  0  0  0  0  0  0  0  0  0  0
    4.0484   -6.9593    7.1840 C   0  0  0  0  0  0  0  0  0  0  0  0
    2.8070   -7.2515    6.5965 C   0  0  0  0  0  0  0  0  0  0  0  0
    2.6070   -7.0378    5.2619 C   0  0  0  0  0  0  0  0  0  0  0  0
    3.6407   -6.5191    4.4536 C   0  0  0  0  0  0  0  0  0  0  0  0
    3.4638   -6.2874    3.0771 C   0  0  0  0  0  0  0  0  0  0  0  0
    3.1923   -4.8162    0.4091 C   0  0  0  0  0  0  0  0  0  0  0  0
    2.9631   -4.5455   -0.9664 C   0  0  0  0  0  0  0  0  0  0  0  0
    3.8413   -5.0536   -1.9484 C   0  0  0  0  0  0  0  0  0  0  0  0
    3.5760   -4.8826   -3.3570 C   0  0  0  0  0  0  0  0  0  0  0  0
    2.3698   -4.9170   -4.0085 C   0  0  0  0  0  0  0  0  0  0  0  0
    2.4719   -4.7689   -5.3996 C   0  0  0  0  0  0  0  0  0  0  0  0
    3.7652   -4.6179   -5.8214 C   0  0  0  0  0  0  0  0  0  0  0  0
    4.2628   -4.4479   -7.4842 S   0  0  0  0  0  0  0  0  0  0  0  0
    6.0862   -4.4569   -7.3528 C   0  0  0  0  0  0  0  0  0  0  0  0
    6.6442   -3.0974   -6.9800 C   0  0  0  0  0  0  0  0  0  0  0  0
    4.8774   -4.6525   -4.4923 S   0  0  0  0  0  0  0  0  0  0  0  0
    4.9615   -5.7403   -1.4843 C   0  0  0  0  0  0  0  0  0  0  0  0
    6.2253   -6.3995   -2.4833 S   0  0  0  0  0  0  0  0  0  0  0  0
    1.8622   -3.6808   -1.1457 C   0  0  0  0  0  0  0  0  0  0  0  0
    1.2568   -3.3003    0.0231 C   0  0  0  0  0  0  0  0  0  0  0  0
    2.0112   -4.0220    1.4230 S   0  0  0  0  0  0  0  0  0  0  0  0
    0.1723   -2.3734    0.1818 C   0  0  0  0  0  0  0  0  0  0  0  0
   -0.5280   -1.8236   -0.8828 C   0  0  0  0  0  0  0  0  0  0  0  0
   -1.5045   -0.8458   -0.7124 C   0  0  0  0  0  0  0  0  0  0  0  0
   -1.8518   -0.3273    0.5261 C   0  0  0  0  0  0  0  0  0  0  0  0
   -1.2063   -0.9050    1.6510 C   0  0  0  0  0  0  0  0  0  0  0  0
   -1.4032   -0.6329    2.9409 N   0  0  0  0  0  0  0  0  0  0  0  0
   -0.4411   -1.5646    3.8309 S   0  0  0  0  0  0  0  0  0  0  0  0
    0.2776   -2.3572    2.6322 N   0  0  0  0  0  0  0  0  0  0  0  0
   -0.2115   -1.9279    1.4722 C   0  0  0  0  0  0  0  0  0  0  0  0
   -2.7729    0.7645    0.6680 C   0  0  0  0  0  0  0  0  0  0  0  0
   -2.9748    1.5313    1.7789 C   0  0  0  0  0  0  0  0  0  0  0  0
   -3.8892    2.5928    1.5838 C   0  0  0  0  0  0  0  0  0  0  0  0
   -4.2526    3.5919    2.5057 C   0  0  0  0  0  0  0  0  0  0  0  0
   -3.7814    3.5335    3.8938 C   0  0  0  0  0  0  0  0  0  0  0  0
   -3.2168    4.6702    4.5094 C   0  0  0  0  0  0  0  0  0  0  0  0
   -2.7645    4.6147    5.7960 C   0  0  0  0  0  0  0  0  0  0  0  0
   -2.8455    3.4212    6.5440 C   0  0  0  0  0  0  0  0  0  0  0  0
   -2.3755    3.3404    7.8695 C   0  0  0  0  0  0  0  0  0  0  0  0
   -2.4528    2.1605    8.5628 C   0  0  0  0  0  0  0  0  0  0  0  0
   -1.9137    1.9236   10.2272 S   0  0  0  0  0  0  0  0  0  0  0  0
   -0.9229    3.4055   10.6204 C   0  0  0  0  0  0  0  0  0  0  0  0
    0.4077    3.4160    9.8919 C   0  0  0  0  0  0  0  0  0  0  0  0
   -3.0186    1.0187    7.9532 C   0  0  0  0  0  0  0  0  0  0  0  0
   -3.4897    1.0763    6.6771 C   0  0  0  0  0  0  0  0  0  0  0  0
   -3.4154    2.2748    5.9322 C   0  0  0  0  0  0  0  0  0  0  0  0
   -3.8797    2.3614    4.6101 C   0  0  0  0  0  0  0  0  0  0  0  0
   -5.0687    4.6048    2.0262 C   0  0  0  0  0  0  0  0  0  0  0  0
   -5.5693    4.6335    0.6954 C   0  0  0  0  0  0  0  0  0  0  0  0
   -5.2422    3.6059   -0.2119 C   0  0  0  0  0  0  0  0  0  0  0  0
   -5.7657    3.5874   -1.5822 C   0  0  0  0  0  0  0  0  0  0  0  0
   -6.3645    2.4499   -2.0718 C   0  0  0  0  0  0  0  0  0  0  0  0
   -6.8926    2.4092   -3.3735 C   0  0  0  0  0  0  0  0  0  0  0  0
   -7.5383    1.2643   -3.8849 C   0  0  0  0  0  0  0  0  0  0  0  0
   -8.0560    1.2487   -5.1478 C   0  0  0  0  0  0  0  0  0  0  0  0
   -7.9360    2.3815   -5.9738 C   0  0  0  0  0  0  0  0  0  0  0  0
   -8.6129    2.4532   -7.6073 S   0  0  0  0  0  0  0  0  0  0  0  0
   -8.6433    0.7117   -8.1627 C   0  0  0  0  0  0  0  0  0  0  0  0
   -7.2528    0.1147   -8.2564 C   0  0  0  0  0  0  0  0  0  0  0  0
   -7.3165    3.5143   -5.5018 C   0  0  0  0  0  0  0  0  0  0  0  0
   -6.7910    3.5599   -4.1995 C   0  0  0  0  0  0  0  0  0  0  0  0
   -6.1557    4.7097   -3.6811 C   0  0  0  0  0  0  0  0  0  0  0  0
   -5.6608    4.7277   -2.4101 C   0  0  0  0  0  0  0  0  0  0  0  0
   -4.3961    2.6173    0.2595 C   0  0  0  0  0  0  0  0  0  0  0  0
   -3.7407    1.3085   -0.6908 S   0  0  0  0  0  0  0  0  0  0  0  0
   -6.3885    5.7562    0.4566 C   0  0  0  0  0  0  0  0  0  0  0  0
   -6.5039    6.5958    1.5349 C   0  0  0  0  0  0  0  0  0  0  0  0
   -5.6503    5.9659    2.9420 S   0  0  0  0  0  0  0  0  0  0  0  0
   -7.1883    7.8256    1.6858 C   0  0  0  0  0  0  0  0  0  0  0  0
   -7.5289    8.7309    0.7234 C   0  0  0  0  0  0  0  0  0  0  0  0
   -7.0258    8.7779   -0.6754 C   0  0  0  0  0  0  0  0  0  0  0  0
   -6.4220    7.9254   -1.2915 O   0  0  0  0  0  0  0  0  0  0  0  0
   -7.3547   10.1290   -1.1615 C   0  0  0  0  0  0  0  0  0  0  0  0
   -7.0429   10.7094   -2.3767 C   0  0  0  0  0  0  0  0  0  0  0  0
   -7.4521   12.0120   -2.6070 C   0  0  0  0  0  0  0  0  0  0  0  0
   -8.1552   12.7327   -1.6418 C   0  0  0  0  0  0  0  0  0  0  0  0
   -8.5571   14.1471   -1.9153 C   0  0  0  0  0  0  0  0  0  0  0  0
   -8.4666   12.1395   -0.4202 C   0  0  0  0  0  0  0  0  0  0  0  0
   -8.0702   10.8345   -0.1797 C   0  0  0  0  0  0  0  0  0  0  0  0
   -8.2536    9.9648    0.9779 C   0  0  0  0  0  0  0  0  0  0  0  0
   -9.0388   10.2370    2.0661 C   0  0  0  0  0  0  0  0  0  0  0  0
   -9.2944    9.3408    3.1264 C   0  0  0  0  0  0  0  0  0  0  0  0
   -9.5699    8.6613    4.0101 N   0  0  0  0  0  0  0  0  0  0  0  0
   -9.7386   11.4479    2.2503 C   0  0  0  0  0  0  0  0  0  0  0  0
  -10.3246   12.4131    2.4573 N   0  0  0  0  0  0  0  0  0  0  0  0
    8.5509   -8.0602   -0.0641 H   0  0  0  0  0  0  0  0  0  0  0  0
    9.8301   -7.6794   -6.2216 H   0  0  0  0  0  0  0  0  0  0  0  0
   11.9992   -8.6424   -6.9606 H   0  0  0  0  0  0  0  0  0  0  0  0
   14.2795  -10.5607   -4.7493 H   0  0  0  0  0  0  0  0  0  0  0  0
   14.6063   -9.0383   -5.5758 H   0  0  0  0  0  0  0  0  0  0  0  0
   13.7802  -10.3334   -6.4346 H   0  0  0  0  0  0  0  0  0  0  0  0
   12.8962   -9.8364   -2.9639 H   0  0  0  0  0  0  0  0  0  0  0  0
    6.6840   -7.1044    1.0519 H   0  0  0  0  0  0  0  0  0  0  0  0
    6.5075   -5.0519    2.2968 H   0  0  0  0  0  0  0  0  0  0  0  0
    6.8731   -5.4584    4.6911 H   0  0  0  0  0  0  0  0  0  0  0  0
    6.0270   -6.2301    6.8752 H   0  0  0  0  0  0  0  0  0  0  0  0
    4.1884   -7.1364    8.2403 H   0  0  0  0  0  0  0  0  0  0  0  0
    2.0117   -7.6481    7.2107 H   0  0  0  0  0  0  0  0  0  0  0  0
    1.6538   -7.2600    4.8038 H   0  0  0  0  0  0  0  0  0  0  0  0
    2.5129   -6.5341    2.6273 H   0  0  0  0  0  0  0  0  0  0  0  0
    1.4379   -5.1050   -3.5057 H   0  0  0  0  0  0  0  0  0  0  0  0
    1.6361   -4.7872   -6.0746 H   0  0  0  0  0  0  0  0  0  0  0  0
    6.4262   -4.7615   -8.3426 H   0  0  0  0  0  0  0  0  0  0  0  0
    6.3583   -5.2213   -6.6247 H   0  0  0  0  0  0  0  0  0  0  0  0
    6.2773   -2.7833   -6.0059 H   0  0  0  0  0  0  0  0  0  0  0  0
    7.7301   -3.1481   -6.9376 H   0  0  0  0  0  0  0  0  0  0  0  0
    6.3561   -2.3525   -7.7183 H   0  0  0  0  0  0  0  0  0  0  0  0
    1.5690   -3.3046   -2.1078 H   0  0  0  0  0  0  0  0  0  0  0  0
   -0.3017   -2.1470   -1.8864 H   0  0  0  0  0  0  0  0  0  0  0  0
   -1.9944   -0.4474   -1.5892 H   0  0  0  0  0  0  0  0  0  0  0  0
   -2.4474    1.3556    2.6977 H   0  0  0  0  0  0  0  0  0  0  0  0
   -3.1231    5.5836    3.9415 H   0  0  0  0  0  0  0  0  0  0  0  0
   -2.3288    5.4900    6.2566 H   0  0  0  0  0  0  0  0  0  0  0  0
   -1.9635    4.2345    8.3113 H   0  0  0  0  0  0  0  0  0  0  0  0
   -0.7752    3.3408   11.6985 H   0  0  0  0  0  0  0  0  0  0  0  0
   -1.5237    4.2885   10.4052 H   0  0  0  0  0  0  0  0  0  0  0  0
    0.9851    2.5326   10.1542 H   0  0  0  0  0  0  0  0  0  0  0  0
    0.9767    4.3006   10.1720 H   0  0  0  0  0  0  0  0  0  0  0  0
    0.2621    3.4217    8.8137 H   0  0  0  0  0  0  0  0  0  0  0  0
   -3.0674    0.1050    8.5262 H   0  0  0  0  0  0  0  0  0  0  0  0
   -3.9203    0.2012    6.2126 H   0  0  0  0  0  0  0  0  0  0  0  0
   -4.3378    1.4902    4.1644 H   0  0  0  0  0  0  0  0  0  0  0  0
   -6.4658    1.5759   -1.4441 H   0  0  0  0  0  0  0  0  0  0  0  0
   -7.6276    0.3919   -3.2531 H   0  0  0  0  0  0  0  0  0  0  0  0
   -8.5669    0.3674   -5.5030 H   0  0  0  0  0  0  0  0  0  0  0  0
   -9.2941    0.1421   -7.4998 H   0  0  0  0  0  0  0  0  0  0  0  0
   -9.1128    0.7658   -9.1448 H   0  0  0  0  0  0  0  0  0  0  0  0
   -7.3124   -0.9059   -8.6299 H   0  0  0  0  0  0  0  0  0  0  0  0
   -6.7694    0.1008   -7.2814 H   0  0  0  0  0  0  0  0  0  0  0  0
   -6.6378    0.7000   -8.9361 H   0  0  0  0  0  0  0  0  0  0  0  0
   -7.2373    4.3835   -6.1377 H   0  0  0  0  0  0  0  0  0  0  0  0
   -6.0698    5.5836   -4.3098 H   0  0  0  0  0  0  0  0  0  0  0  0
   -5.1720    5.6120   -2.0313 H   0  0  0  0  0  0  0  0  0  0  0  0
   -6.8979    5.9248   -0.4724 H   0  0  0  0  0  0  0  0  0  0  0  0
   -7.3992    8.0910    2.7157 H   0  0  0  0  0  0  0  0  0  0  0  0
   -6.4956   10.1492   -3.1191 H   0  0  0  0  0  0  0  0  0  0  0  0
   -7.2235   12.4860   -3.5504 H   0  0  0  0  0  0  0  0  0  0  0  0
   -7.6831   14.7969   -1.8649 H   0  0  0  0  0  0  0  0  0  0  0  0
   -8.9813   14.2400   -2.9131 H   0  0  0  0  0  0  0  0  0  0  0  0
   -9.2842   14.4945   -1.1864 H   0  0  0  0  0  0  0  0  0  0  0  0
   -9.0048   12.7065    0.3224 H   0  0  0  0  0  0  0  0  0  0  0  0
  1  2  2  0  0  0  0
  2  3  1  0  0  0  0
  3  4  2  0  0  0  0
  3  5  1  0  0  0  0
  5  6  2  0  0  0  0
  6  7  1  0  0  0  0
  7  8  2  0  0  0  0
  8  9  1  0  0  0  0
  8 10  1  0  0  0  0
 10 11  2  0  0  0  0
 11 12  1  0  0  0  0
 12 13  2  0  0  0  0
 13 14  1  0  0  0  0
 14 15  3  0  0  0  0
 13 16  1  0  0  0  0
 16 17  3  0  0  0  0
  1 18  1  0  0  0  0
 18 19  2  0  0  0  0
 19 20  1  0  0  0  0
 20 21  2  0  0  0  0
 21 22  1  0  0  0  0
 22 23  2  0  0  0  0
 23 24  1  0  0  0  0
 24 25  2  0  0  0  0
 25 26  1  0  0  0  0
 26 27  2  0  0  0  0
 27 28  1  0  0  0  0
 28 29  2  0  0  0  0
 29 30  1  0  0  0  0
 30 31  2  0  0  0  0
 21 32  1  0  0  0  0
 32 33  2  0  0  0  0
 33 34  1  0  0  0  0
 34 35  1  0  0  0  0
 35 36  2  0  0  0  0
 36 37  1  0  0  0  0
 37 38  2  0  0  0  0
 38 39  1  0  0  0  0
 39 40  1  0  0  0  0
 40 41  1  0  0  0  0
 38 42  1  0  0  0  0
 34 43  2  0  0  0  0
 43 44  1  0  0  0  0
 33 45  1  0  0  0  0
 45 46  2  0  0  0  0
 46 47  1  0  0  0  0
 46 48  1  0  0  0  0
 48 49  2  0  0  0  0
 49 50  1  0  0  0  0
 50 51  2  0  0  0  0
 51 52  1  0  0  0  0
 52 53  2  0  0  0  0
 53 54  1  0  0  0  0
 54 55  1  0  0  0  0
 55 56  2  0  0  0  0
 51 57  1  0  0  0  0
 57 58  2  0  0  0  0
 58 59  1  0  0  0  0
 59 60  2  0  0  0  0
 60 61  1  0  0  0  0
 61 62  2  0  0  0  0
 62 63  1  0  0  0  0
 63 64  2  0  0  0  0
 64 65  1  0  0  0  0
 65 66  2  0  0  0  0
 66 67  1  0  0  0  0
 67 68  1  0  0  0  0
 68 69  1  0  0  0  0
 66 70  1  0  0  0  0
 70 71  2  0  0  0  0
 71 72  1  0  0  0  0
 72 73  2  0  0  0  0
 60 74  1  0  0  0  0
 74 75  2  0  0  0  0
 75 76  1  0  0  0  0
 76 77  1  0  0  0  0
 77 78  2  0  0  0  0
 78 79  1  0  0  0  0
 79 80  2  0  0  0  0
 80 81  1  0  0  0  0
 81 82  2  0  0  0  0
 82 83  1  0  0  0  0
 83 84  1  0  0  0  0
 84 85  1  0  0  0  0
 82 86  1  0  0  0  0
 86 87  2  0  0  0  0
 87 88  1  0  0  0  0
 88 89  2  0  0  0  0
 76 90  2  0  0  0  0
 90 91  1  0  0  0  0
 75 92  1  0  0  0  0
 92 93  2  0  0  0  0
 93 94  1  0  0  0  0
 93 95  1  0  0  0  0
 95 96  2  0  0  0  0
 96 97  1  0  0  0  0
 97 98  2  0  0  0  0
 97 99  1  0  0  0  0
 99100  2  0  0  0  0
100101  1  0  0  0  0
101102  2  0  0  0  0
102103  1  0  0  0  0
102104  1  0  0  0  0
104105  2  0  0  0  0
105106  1  0  0  0  0
106107  2  0  0  0  0
107108  1  0  0  0  0
108109  3  0  0  0  0
107110  1  0  0  0  0
110111  3  0  0  0  0
 12  2  1  0  0  0  0
 44 18  1  0  0  0  0
 56 48  1  0  0  0  0
 91 57  1  0  0  0  0
106 96  1  0  0  0  0
 11  5  1  0  0  0  0
 43 20  1  0  0  0  0
 56 52  1  0  0  0  0
 90 59  1  0  0  0  0
105 99  1  0  0  0  0
 31 22  1  0  0  0  0
 47 32  1  0  0  0  0
 73 61  1  0  0  0  0
 94 74  1  0  0  0  0
 30 25  1  0  0  0  0
 42 35  1  0  0  0  0
 72 64  1  0  0  0  0
 89 77  1  0  0  0  0
 87 79  1  0  0  0  0
  1112  1  0  0  0  0
  6113  1  0  0  0  0
  7114  1  0  0  0  0
  9115  1  0  0  0  0
  9116  1  0  0  0  0
  9117  1  0  0  0  0
 10118  1  0  0  0  0
 19119  1  0  0  0  0
 23120  1  0  0  0  0
 24121  1  0  0  0  0
 26122  1  0  0  0  0
 27123  1  0  0  0  0
 28124  1  0  0  0  0
 29125  1  0  0  0  0
 31126  1  0  0  0  0
 36127  1  0  0  0  0
 37128  1  0  0  0  0
 40129  1  0  0  0  0
 40130  1  0  0  0  0
 41131  1  0  0  0  0
 41132  1  0  0  0  0
 41133  1  0  0  0  0
 45134  1  0  0  0  0
 49135  1  0  0  0  0
 50136  1  0  0  0  0
 58137  1  0  0  0  0
 62138  1  0  0  0  0
 63139  1  0  0  0  0
 65140  1  0  0  0  0
 68141  1  0  0  0  0
 68142  1  0  0  0  0
 69143  1  0  0  0  0
 69144  1  0  0  0  0
 69145  1  0  0  0  0
 70146  1  0  0  0  0
 71147  1  0  0  0  0
 73148  1  0  0  0  0
 78149  1  0  0  0  0
 80150  1  0  0  0  0
 81151  1  0  0  0  0
 84152  1  0  0  0  0
 84153  1  0  0  0  0
 85154  1  0  0  0  0
 85155  1  0  0  0  0
 85156  1  0  0  0  0
 86157  1  0  0  0  0
 88158  1  0  0  0  0
 89159  1  0  0  0  0
 92160  1  0  0  0  0
 95161  1  0  0  0  0
100162  1  0  0  0  0
101163  1  0  0  0  0
103164  1  0  0  0  0
103165  1  0  0  0  0
103166  1  0  0  0  0
104167  1  0  0  0  0
M  END
