
  xtb     02112215063D
 energy: -341.515499119416 gnorm: 0.000573702277 xtb: 6.4.1 (unknown)
190209  0     0  0            999 V2000
    6.0274    4.1996   -9.8046 C   0  0  0  0  0  0  0  0  0  0  0  0
    6.7804    3.6305  -10.7950 C   0  0  0  0  0  0  0  0  0  0  0  0
    6.8596    2.1864  -11.1106 C   0  0  0  0  0  0  0  0  0  0  0  0
    6.2778    1.2748  -10.5577 O   0  0  0  0  0  0  0  0  0  0  0  0
    7.7875    2.0869  -12.2428 C   0  0  0  0  0  0  0  0  0  0  0  0
    8.3121    1.1060  -13.0196 C   0  0  0  0  0  0  0  0  0  0  0  0
    9.3797    1.7699  -14.2005 S   0  0  0  0  0  0  0  0  0  0  0  0
    9.1169    3.3812  -13.6432 C   0  0  0  0  0  0  0  0  0  0  0  0
    8.2461    3.3966  -12.5971 C   0  0  0  0  0  0  0  0  0  0  0  0
    7.6333    4.3692  -11.7135 C   0  0  0  0  0  0  0  0  0  0  0  0
    7.8622    5.7196  -11.7784 C   0  0  0  0  0  0  0  0  0  0  0  0
    7.3014    6.7048  -10.9436 C   0  0  0  0  0  0  0  0  0  0  0  0
    6.8852    7.5595  -10.2983 N   0  0  0  0  0  0  0  0  0  0  0  0
    8.7350    6.2635  -12.7437 C   0  0  0  0  0  0  0  0  0  0  0  0
    9.4418    6.7217  -13.5232 N   0  0  0  0  0  0  0  0  0  0  0  0
    5.1864    3.6163   -8.8366 C   0  0  0  0  0  0  0  0  0  0  0  0
    4.5035    4.3854   -7.9095 C   0  0  0  0  0  0  0  0  0  0  0  0
    3.7341    3.6463   -7.0012 C   0  0  0  0  0  0  0  0  0  0  0  0
    2.9693    4.1281   -5.9067 C   0  0  0  0  0  0  0  0  0  0  0  0
    2.7229    5.5398   -5.7311 C   0  0  0  0  0  0  0  0  0  0  0  0
    2.4878    6.4686   -6.7087 C   0  0  0  0  0  0  0  0  0  0  0  0
    2.2423    7.7534   -6.1877 C   0  0  0  0  0  0  0  0  0  0  0  0
    1.9047    9.1096   -7.1904 Cl  0  0  0  0  0  0  0  0  0  0  0  0
    2.2938    7.8292   -4.8241 C   0  0  0  0  0  0  0  0  0  0  0  0
    2.0677    9.0270   -3.9703 C   0  0  0  0  0  0  0  0  0  0  0  0
    2.8483    8.9730   -2.6626 C   0  0  0  0  0  0  0  0  0  0  0  0
    2.6269    6.2715   -4.1538 S   0  0  0  0  0  0  0  0  0  0  0  0
    2.4408    3.1651   -5.0614 C   0  0  0  0  0  0  0  0  0  0  0  0
    2.5462    1.7710   -5.3081 C   0  0  0  0  0  0  0  0  0  0  0  0
    3.2763    1.2921   -6.4142 C   0  0  0  0  0  0  0  0  0  0  0  0
    3.4659   -0.1222   -6.6650 C   0  0  0  0  0  0  0  0  0  0  0  0
    3.7943   -1.2337   -5.3607 S   0  0  0  0  0  0  0  0  0  0  0  0
    3.9918   -2.5635   -6.4489 C   0  0  0  0  0  0  0  0  0  0  0  0
    4.3940   -3.9115   -5.9583 C   0  0  0  0  0  0  0  0  0  0  0  0
    5.9178   -4.0175   -5.8564 C   0  0  0  0  0  0  0  0  0  0  0  0
    3.8039   -2.1443   -7.7342 C   0  0  0  0  0  0  0  0  0  0  0  0
    3.5142   -0.7696   -7.8665 C   0  0  0  0  0  0  0  0  0  0  0  0
    3.8990   -3.2045   -9.0862 Cl  0  0  0  0  0  0  0  0  0  0  0  0
    3.8614    2.2503   -7.2362 C   0  0  0  0  0  0  0  0  0  0  0  0
    4.8762    1.9077   -8.6065 S   0  0  0  0  0  0  0  0  0  0  0  0
    1.8090    1.0234   -4.3713 C   0  0  0  0  0  0  0  0  0  0  0  0
    1.1871    1.7772   -3.4087 C   0  0  0  0  0  0  0  0  0  0  0  0
    1.4982    3.4850   -3.6281 S   0  0  0  0  0  0  0  0  0  0  0  0
    0.4093    1.2210   -2.3567 C   0  0  0  0  0  0  0  0  0  0  0  0
   -0.1279    1.7533   -1.1908 C   0  0  0  0  0  0  0  0  0  0  0  0
   -0.0139    3.0480   -0.6989 N   0  0  0  0  0  0  0  0  0  0  0  0
    0.2641    3.1235    0.6813 C   0  0  0  0  0  0  0  0  0  0  0  0
    1.2729    2.3186    1.2057 C   0  0  0  0  0  0  0  0  0  0  0  0
    1.4960    2.2614    2.5660 C   0  0  0  0  0  0  0  0  0  0  0  0
    0.7122    3.0170    3.4282 C   0  0  0  0  0  0  0  0  0  0  0  0
    0.8939    2.9753    5.1833 S   0  0  0  0  0  0  0  0  0  0  0  0
    1.7076    1.3772    5.4735 C   0  0  0  0  0  0  0  0  0  0  0  0
   -0.2637    3.8625    2.9044 C   0  0  0  0  0  0  0  0  0  0  0  0
   -0.4895    3.9157    1.5461 C   0  0  0  0  0  0  0  0  0  0  0  0
   -0.3638    4.1795   -1.4267 C   0  0  0  0  0  0  0  0  0  0  0  0
   -1.2198    4.0958   -2.5263 C   0  0  0  0  0  0  0  0  0  0  0  0
   -1.5540    5.2301   -3.2359 C   0  0  0  0  0  0  0  0  0  0  0  0
   -1.0540    6.4686   -2.8550 C   0  0  0  0  0  0  0  0  0  0  0  0
   -1.5111    7.8904   -3.8096 S   0  0  0  0  0  0  0  0  0  0  0  0
   -1.7351    9.1462   -2.5071 C   0  0  0  0  0  0  0  0  0  0  0  0
   -0.1968    6.5580   -1.7660 C   0  0  0  0  0  0  0  0  0  0  0  0
    0.1475    5.4256   -1.0613 C   0  0  0  0  0  0  0  0  0  0  0  0
   -0.7492    0.7383   -0.4164 C   0  0  0  0  0  0  0  0  0  0  0  0
   -1.5260    0.7256    1.1259 S   0  0  0  0  0  0  0  0  0  0  0  0
   -1.7366   -1.0239    1.0362 C   0  0  0  0  0  0  0  0  0  0  0  0
   -1.2086   -1.5598   -0.1315 C   0  0  0  0  0  0  0  0  0  0  0  0
   -1.0767   -2.8960   -0.4594 N   0  0  0  0  0  0  0  0  0  0  0  0
   -1.0572   -3.2198   -1.8291 C   0  0  0  0  0  0  0  0  0  0  0  0
   -2.0356   -2.6994   -2.6763 C   0  0  0  0  0  0  0  0  0  0  0  0
   -1.9674   -2.9232   -4.0328 C   0  0  0  0  0  0  0  0  0  0  0  0
   -0.9229   -3.6719   -4.5717 C   0  0  0  0  0  0  0  0  0  0  0  0
   -0.8973   -3.8456   -6.3270 S   0  0  0  0  0  0  0  0  0  0  0  0
    0.8036   -4.3779   -6.6711 C   0  0  0  0  0  0  0  0  0  0  0  0
    0.0219   -4.2368   -3.7237 C   0  0  0  0  0  0  0  0  0  0  0  0
   -0.0453   -4.0113   -2.3629 C   0  0  0  0  0  0  0  0  0  0  0  0
   -0.7849   -3.8653    0.5039 C   0  0  0  0  0  0  0  0  0  0  0  0
   -0.0644   -3.5453    1.6532 C   0  0  0  0  0  0  0  0  0  0  0  0
    0.0675   -4.4587    2.6796 C   0  0  0  0  0  0  0  0  0  0  0  0
   -0.4924   -5.7235    2.5596 C   0  0  0  0  0  0  0  0  0  0  0  0
   -0.5093   -6.9110    3.8658 S   0  0  0  0  0  0  0  0  0  0  0  0
   -0.2055   -5.8979    5.3421 C   0  0  0  0  0  0  0  0  0  0  0  0
   -1.0984   -6.0898    1.3584 C   0  0  0  0  0  0  0  0  0  0  0  0
   -1.2517   -5.1712    0.3437 C   0  0  0  0  0  0  0  0  0  0  0  0
   -0.6873   -0.5307   -0.9580 C   0  0  0  0  0  0  0  0  0  0  0  0
    0.1133   -0.5158   -2.4852 S   0  0  0  0  0  0  0  0  0  0  0  0
   -2.2674   -1.6435    2.2061 C   0  0  0  0  0  0  0  0  0  0  0  0
   -2.1096   -1.1560    3.4728 C   0  0  0  0  0  0  0  0  0  0  0  0
   -2.5979   -2.0121    4.4818 C   0  0  0  0  0  0  0  0  0  0  0  0
   -2.5083   -1.8148    5.8726 C   0  0  0  0  0  0  0  0  0  0  0  0
   -2.1134   -0.5260    6.4017 C   0  0  0  0  0  0  0  0  0  0  0  0
   -2.5283    0.6975    5.9534 C   0  0  0  0  0  0  0  0  0  0  0  0
   -2.0030    1.7609    6.7152 C   0  0  0  0  0  0  0  0  0  0  0  0
   -2.3959    3.4036    6.3970 Cl  0  0  0  0  0  0  0  0  0  0  0  0
   -1.1688    1.3710    7.7234 C   0  0  0  0  0  0  0  0  0  0  0  0
   -0.4785    2.2186    8.7336 C   0  0  0  0  0  0  0  0  0  0  0  0
   -1.3439    2.3846    9.9851 C   0  0  0  0  0  0  0  0  0  0  0  0
   -1.0478   -0.3551    7.7656 S   0  0  0  0  0  0  0  0  0  0  0  0
   -2.8552   -2.8942    6.6764 C   0  0  0  0  0  0  0  0  0  0  0  0
   -3.3924   -4.0986    6.1437 C   0  0  0  0  0  0  0  0  0  0  0  0
   -3.6145   -4.2444    4.7477 C   0  0  0  0  0  0  0  0  0  0  0  0
   -4.2765   -5.4011    4.1912 C   0  0  0  0  0  0  0  0  0  0  0  0
   -5.5705   -6.2114    5.0382 S   0  0  0  0  0  0  0  0  0  0  0  0
   -5.8187   -7.3285    3.7461 C   0  0  0  0  0  0  0  0  0  0  0  0
   -6.8929   -8.3563    3.8054 C   0  0  0  0  0  0  0  0  0  0  0  0
   -8.2220   -7.7880    3.3006 C   0  0  0  0  0  0  0  0  0  0  0  0
   -4.9451   -7.0642    2.7292 C   0  0  0  0  0  0  0  0  0  0  0  0
   -4.0809   -5.9787    2.9665 C   0  0  0  0  0  0  0  0  0  0  0  0
   -4.8889   -7.9775    1.2729 Cl  0  0  0  0  0  0  0  0  0  0  0  0
   -3.1568   -3.2026    3.9492 C   0  0  0  0  0  0  0  0  0  0  0  0
   -3.1627   -3.1495    2.2025 S   0  0  0  0  0  0  0  0  0  0  0  0
   -3.6022   -5.0424    7.1587 C   0  0  0  0  0  0  0  0  0  0  0  0
   -3.2823   -4.5956    8.4290 C   0  0  0  0  0  0  0  0  0  0  0  0
   -2.7006   -2.9446    8.4075 S   0  0  0  0  0  0  0  0  0  0  0  0
   -3.4093   -5.4338    9.5546 C   0  0  0  0  0  0  0  0  0  0  0  0
   -3.1533   -5.2007   10.8774 C   0  0  0  0  0  0  0  0  0  0  0  0
   -2.6858   -3.9246   11.4652 C   0  0  0  0  0  0  0  0  0  0  0  0
   -2.4461   -2.8860   10.8830 O   0  0  0  0  0  0  0  0  0  0  0  0
   -2.5778   -4.1789   12.9064 C   0  0  0  0  0  0  0  0  0  0  0  0
   -2.2244   -3.4867   14.0186 C   0  0  0  0  0  0  0  0  0  0  0  0
   -2.3450   -4.4834   15.4210 S   0  0  0  0  0  0  0  0  0  0  0  0
   -2.8749   -5.8435   14.5023 C   0  0  0  0  0  0  0  0  0  0  0  0
   -2.9532   -5.5341   13.1789 C   0  0  0  0  0  0  0  0  0  0  0  0
   -3.3125   -6.1868   11.9355 C   0  0  0  0  0  0  0  0  0  0  0  0
   -3.7109   -7.4952   11.8386 C   0  0  0  0  0  0  0  0  0  0  0  0
   -3.7991   -8.3153   12.9828 C   0  0  0  0  0  0  0  0  0  0  0  0
   -3.8780   -8.9943   13.9046 N   0  0  0  0  0  0  0  0  0  0  0  0
   -4.0639   -8.1776   10.6587 C   0  0  0  0  0  0  0  0  0  0  0  0
   -4.3645   -8.7960    9.7382 N   0  0  0  0  0  0  0  0  0  0  0  0
    6.0716    5.2797   -9.7242 H   0  0  0  0  0  0  0  0  0  0  0  0
    8.1448    0.0485  -12.9773 H   0  0  0  0  0  0  0  0  0  0  0  0
    9.6217    4.1933  -14.1265 H   0  0  0  0  0  0  0  0  0  0  0  0
    4.6028    5.4556   -7.8777 H   0  0  0  0  0  0  0  0  0  0  0  0
    2.4414    6.2418   -7.7576 H   0  0  0  0  0  0  0  0  0  0  0  0
    0.9957    9.1013   -3.7621 H   0  0  0  0  0  0  0  0  0  0  0  0
    2.3479    9.9149   -4.5422 H   0  0  0  0  0  0  0  0  0  0  0  0
    2.5744    8.0879   -2.0919 H   0  0  0  0  0  0  0  0  0  0  0  0
    2.6428    9.8564   -2.0625 H   0  0  0  0  0  0  0  0  0  0  0  0
    3.9166    8.9319   -2.8612 H   0  0  0  0  0  0  0  0  0  0  0  0
    4.0232   -4.6661   -6.6555 H   0  0  0  0  0  0  0  0  0  0  0  0
    3.9532   -4.0917   -4.9755 H   0  0  0  0  0  0  0  0  0  0  0  0
    6.3018   -3.2757   -5.1598 H   0  0  0  0  0  0  0  0  0  0  0  0
    6.3717   -3.8472   -6.8293 H   0  0  0  0  0  0  0  0  0  0  0  0
    6.2028   -5.0063   -5.5067 H   0  0  0  0  0  0  0  0  0  0  0  0
    3.3306   -0.2984   -8.8136 H   0  0  0  0  0  0  0  0  0  0  0  0
    1.7173   -0.0466   -4.4041 H   0  0  0  0  0  0  0  0  0  0  0  0
    1.8768    1.7222    0.5370 H   0  0  0  0  0  0  0  0  0  0  0  0
    2.2821    1.6266    2.9423 H   0  0  0  0  0  0  0  0  0  0  0  0
    1.6203    1.1898    6.5389 H   0  0  0  0  0  0  0  0  0  0  0  0
    2.7561    1.4262    5.1944 H   0  0  0  0  0  0  0  0  0  0  0  0
    1.1874    0.6016    4.9195 H   0  0  0  0  0  0  0  0  0  0  0  0
   -0.8613    4.4546    3.5799 H   0  0  0  0  0  0  0  0  0  0  0  0
   -1.2717    4.5455    1.1502 H   0  0  0  0  0  0  0  0  0  0  0  0
   -1.6289    3.1392   -2.8154 H   0  0  0  0  0  0  0  0  0  0  0  0
   -2.2144    5.1649   -4.0866 H   0  0  0  0  0  0  0  0  0  0  0  0
   -0.7773    9.5045   -2.1407 H   0  0  0  0  0  0  0  0  0  0  0  0
   -2.3208    8.7186   -1.6997 H   0  0  0  0  0  0  0  0  0  0  0  0
   -2.2775    9.9638   -2.9709 H   0  0  0  0  0  0  0  0  0  0  0  0
    0.2127    7.5099   -1.4677 H   0  0  0  0  0  0  0  0  0  0  0  0
    0.8287    5.4985   -0.2272 H   0  0  0  0  0  0  0  0  0  0  0  0
   -2.8373   -2.1064   -2.2613 H   0  0  0  0  0  0  0  0  0  0  0  0
   -2.7139   -2.5116   -4.6940 H   0  0  0  0  0  0  0  0  0  0  0  0
    1.4965   -3.7128   -6.1654 H   0  0  0  0  0  0  0  0  0  0  0  0
    0.9297   -4.2921   -7.7458 H   0  0  0  0  0  0  0  0  0  0  0  0
    0.9487   -5.4104   -6.3665 H   0  0  0  0  0  0  0  0  0  0  0  0
    0.8222   -4.8452   -4.1133 H   0  0  0  0  0  0  0  0  0  0  0  0
    0.7014   -4.4351   -1.7077 H   0  0  0  0  0  0  0  0  0  0  0  0
    0.3706   -2.5624    1.7579 H   0  0  0  0  0  0  0  0  0  0  0  0
    0.6037   -4.1708    3.5697 H   0  0  0  0  0  0  0  0  0  0  0  0
   -0.4626   -6.5262    6.1892 H   0  0  0  0  0  0  0  0  0  0  0  0
    0.8419   -5.6159    5.4008 H   0  0  0  0  0  0  0  0  0  0  0  0
   -0.8489   -5.0231    5.3207 H   0  0  0  0  0  0  0  0  0  0  0  0
   -1.4812   -7.0930    1.2488 H   0  0  0  0  0  0  0  0  0  0  0  0
   -1.7710   -5.4442   -0.5623 H   0  0  0  0  0  0  0  0  0  0  0  0
   -1.5819   -0.2417    3.6780 H   0  0  0  0  0  0  0  0  0  0  0  0
   -3.2167    0.8373    5.1404 H   0  0  0  0  0  0  0  0  0  0  0  0
    0.4709    1.7568    9.0121 H   0  0  0  0  0  0  0  0  0  0  0  0
   -0.2745    3.1961    8.2910 H   0  0  0  0  0  0  0  0  0  0  0  0
   -1.5536    1.4136   10.4283 H   0  0  0  0  0  0  0  0  0  0  0  0
   -0.8288    3.0008   10.7174 H   0  0  0  0  0  0  0  0  0  0  0  0
   -2.2872    2.8611    9.7303 H   0  0  0  0  0  0  0  0  0  0  0  0
   -6.6003   -9.2052    3.1841 H   0  0  0  0  0  0  0  0  0  0  0  0
   -7.0122   -8.7011    4.8340 H   0  0  0  0  0  0  0  0  0  0  0  0
   -8.9943   -8.5513    3.3423 H   0  0  0  0  0  0  0  0  0  0  0  0
   -8.5307   -6.9451    3.9148 H   0  0  0  0  0  0  0  0  0  0  0  0
   -8.1213   -7.4498    2.2720 H   0  0  0  0  0  0  0  0  0  0  0  0
   -3.3224   -5.6804    2.2685 H   0  0  0  0  0  0  0  0  0  0  0  0
   -3.9524   -6.0442    6.9886 H   0  0  0  0  0  0  0  0  0  0  0  0
   -3.7686   -6.4238    9.2989 H   0  0  0  0  0  0  0  0  0  0  0  0
   -1.9045   -2.4679   14.1075 H   0  0  0  0  0  0  0  0  0  0  0  0
   -3.0892   -6.7657   15.0039 H   0  0  0  0  0  0  0  0  0  0  0  0
  1  2  2  0  0  0  0
  2  3  1  0  0  0  0
  3  4  2  0  0  0  0
  3  5  1  0  0  0  0
  5  6  2  0  0  0  0
  6  7  1  0  0  0  0
  7  8  1  0  0  0  0
  8  9  2  0  0  0  0
  9 10  1  0  0  0  0
 10 11  2  0  0  0  0
 11 12  1  0  0  0  0
 12 13  3  0  0  0  0
 11 14  1  0  0  0  0
 14 15  3  0  0  0  0
  1 16  1  0  0  0  0
 16 17  2  0  0  0  0
 17 18  1  0  0  0  0
 18 19  2  0  0  0  0
 19 20  1  0  0  0  0
 20 21  2  0  0  0  0
 21 22  1  0  0  0  0
 22 23  1  0  0  0  0
 22 24  2  0  0  0  0
 24 25  1  0  0  0  0
 25 26  1  0  0  0  0
 24 27  1  0  0  0  0
 19 28  1  0  0  0  0
 28 29  2  0  0  0  0
 29 30  1  0  0  0  0
 30 31  1  0  0  0  0
 31 32  1  0  0  0  0
 32 33  1  0  0  0  0
 33 34  1  0  0  0  0
 34 35  1  0  0  0  0
 33 36  2  0  0  0  0
 36 37  1  0  0  0  0
 36 38  1  0  0  0  0
 30 39  2  0  0  0  0
 39 40  1  0  0  0  0
 29 41  1  0  0  0  0
 41 42  2  0  0  0  0
 42 43  1  0  0  0  0
 42 44  1  0  0  0  0
 44 45  2  0  0  0  0
 45 46  1  0  0  0  0
 46 47  1  0  0  0  0
 47 48  2  0  0  0  0
 48 49  1  0  0  0  0
 49 50  2  0  0  0  0
 50 51  1  0  0  0  0
 51 52  1  0  0  0  0
 50 53  1  0  0  0  0
 53 54  2  0  0  0  0
 46 55  1  0  0  0  0
 55 56  2  0  0  0  0
 56 57  1  0  0  0  0
 57 58  2  0  0  0  0
 58 59  1  0  0  0  0
 59 60  1  0  0  0  0
 58 61  1  0  0  0  0
 61 62  2  0  0  0  0
 45 63  1  0  0  0  0
 63 64  1  0  0  0  0
 64 65  1  0  0  0  0
 65 66  2  0  0  0  0
 66 67  1  0  0  0  0
 67 68  1  0  0  0  0
 68 69  2  0  0  0  0
 69 70  1  0  0  0  0
 70 71  2  0  0  0  0
 71 72  1  0  0  0  0
 72 73  1  0  0  0  0
 71 74  1  0  0  0  0
 74 75  2  0  0  0  0
 67 76  1  0  0  0  0
 76 77  2  0  0  0  0
 77 78  1  0  0  0  0
 78 79  2  0  0  0  0
 79 80  1  0  0  0  0
 80 81  1  0  0  0  0
 79 82  1  0  0  0  0
 82 83  2  0  0  0  0
 66 84  1  0  0  0  0
 84 85  1  0  0  0  0
 65 86  1  0  0  0  0
 86 87  2  0  0  0  0
 87 88  1  0  0  0  0
 88 89  2  0  0  0  0
 89 90  1  0  0  0  0
 90 91  2  0  0  0  0
 91 92  1  0  0  0  0
 92 93  1  0  0  0  0
 92 94  2  0  0  0  0
 94 95  1  0  0  0  0
 95 96  1  0  0  0  0
 94 97  1  0  0  0  0
 89 98  1  0  0  0  0
 98 99  2  0  0  0  0
 99100  1  0  0  0  0
100101  1  0  0  0  0
101102  1  0  0  0  0
102103  1  0  0  0  0
103104  1  0  0  0  0
104105  1  0  0  0  0
103106  2  0  0  0  0
106107  1  0  0  0  0
106108  1  0  0  0  0
100109  2  0  0  0  0
109110  1  0  0  0  0
 99111  1  0  0  0  0
111112  2  0  0  0  0
112113  1  0  0  0  0
112114  1  0  0  0  0
114115  2  0  0  0  0
115116  1  0  0  0  0
116117  2  0  0  0  0
116118  1  0  0  0  0
118119  2  0  0  0  0
119120  1  0  0  0  0
120121  1  0  0  0  0
121122  2  0  0  0  0
122123  1  0  0  0  0
123124  2  0  0  0  0
124125  1  0  0  0  0
125126  3  0  0  0  0
124127  1  0  0  0  0
127128  3  0  0  0  0
 10  2  1  0  0  0  0
 40 16  1  0  0  0  0
 85 44  1  0  0  0  0
110 86  1  0  0  0  0
123115  1  0  0  0  0
  9  5  1  0  0  0  0
 39 18  1  0  0  0  0
 54 47  1  0  0  0  0
 62 55  1  0  0  0  0
 84 63  2  0  0  0  0
109 88  1  0  0  0  0
122118  1  0  0  0  0
 27 20  1  0  0  0  0
 43 28  1  0  0  0  0
 75 68  1  0  0  0  0
 83 76  1  0  0  0  0
 97 90  1  0  0  0  0
113 98  1  0  0  0  0
 37 31  2  0  0  0  0
107101  2  0  0  0  0
  1129  1  0  0  0  0
  6130  1  0  0  0  0
  8131  1  0  0  0  0
 17132  1  0  0  0  0
 21133  1  0  0  0  0
 25134  1  0  0  0  0
 25135  1  0  0  0  0
 26136  1  0  0  0  0
 26137  1  0  0  0  0
 26138  1  0  0  0  0
 34139  1  0  0  0  0
 34140  1  0  0  0  0
 35141  1  0  0  0  0
 35142  1  0  0  0  0
 35143  1  0  0  0  0
 37144  1  0  0  0  0
 41145  1  0  0  0  0
 48146  1  0  0  0  0
 49147  1  0  0  0  0
 52148  1  0  0  0  0
 52149  1  0  0  0  0
 52150  1  0  0  0  0
 53151  1  0  0  0  0
 54152  1  0  0  0  0
 56153  1  0  0  0  0
 57154  1  0  0  0  0
 60155  1  0  0  0  0
 60156  1  0  0  0  0
 60157  1  0  0  0  0
 61158  1  0  0  0  0
 62159  1  0  0  0  0
 69160  1  0  0  0  0
 70161  1  0  0  0  0
 73162  1  0  0  0  0
 73163  1  0  0  0  0
 73164  1  0  0  0  0
 74165  1  0  0  0  0
 75166  1  0  0  0  0
 77167  1  0  0  0  0
 78168  1  0  0  0  0
 81169  1  0  0  0  0
 81170  1  0  0  0  0
 81171  1  0  0  0  0
 82172  1  0  0  0  0
 83173  1  0  0  0  0
 87174  1  0  0  0  0
 91175  1  0  0  0  0
 95176  1  0  0  0  0
 95177  1  0  0  0  0
 96178  1  0  0  0  0
 96179  1  0  0  0  0
 96180  1  0  0  0  0
104181  1  0  0  0  0
104182  1  0  0  0  0
105183  1  0  0  0  0
105184  1  0  0  0  0
105185  1  0  0  0  0
107186  1  0  0  0  0
111187  1  0  0  0  0
114188  1  0  0  0  0
119189  1  0  0  0  0
121190  1  0  0  0  0
M  END
