190

C          6.02740        4.19960       -9.80460
C          6.78040        3.63050      -10.79500
C          6.85960        2.18640      -11.11060
O          6.27780        1.27480      -10.55770
C          7.78750        2.08690      -12.24280
C          8.31210        1.10600      -13.01960
S          9.37970        1.76990      -14.20050
C          9.11690        3.38120      -13.64320
C          8.24610        3.39660      -12.59710
C          7.63330        4.36920      -11.71350
C          7.86220        5.71960      -11.77840
C          7.30140        6.70480      -10.94360
N          6.88520        7.55950      -10.29830
C          8.73500        6.26350      -12.74370
N          9.44180        6.72170      -13.52320
C          5.18640        3.61630       -8.83660
C          4.50350        4.38540       -7.90950
C          3.73410        3.64630       -7.00120
C          2.96930        4.12810       -5.90670
C          2.72290        5.53980       -5.73110
C          2.48780        6.46860       -6.70870
C          2.24230        7.75340       -6.18770
Cl         1.90470        9.10960       -7.19040
C          2.29380        7.82920       -4.82410
C          2.06770        9.02700       -3.97030
C          2.84830        8.97300       -2.66260
S          2.62690        6.27150       -4.15380
C          2.44080        3.16510       -5.06140
C          2.54620        1.77100       -5.30810
C          3.27630        1.29210       -6.41420
C          3.46590       -0.12220       -6.66500
S          3.79430       -1.23370       -5.36070
C          3.99180       -2.56350       -6.44890
C          4.39400       -3.91150       -5.95830
C          5.91780       -4.01750       -5.85640
C          3.80390       -2.14430       -7.73420
C          3.51420       -0.76960       -7.86650
Cl         3.89900       -3.20450       -9.08620
C          3.86140        2.25030       -7.23620
S          4.87620        1.90770       -8.60650
C          1.80900        1.02340       -4.37130
C          1.18710        1.77720       -3.40870
S          1.49820        3.48500       -3.62810
C          0.40930        1.22100       -2.35670
C         -0.12790        1.75330       -1.19080
N         -0.01390        3.04800       -0.69890
C          0.26410        3.12350        0.68130
C          1.27290        2.31860        1.20570
C          1.49600        2.26140        2.56600
C          0.71220        3.01700        3.42820
S          0.89390        2.97530        5.18330
C          1.70760        1.37720        5.47350
C         -0.26370        3.86250        2.90440
C         -0.48950        3.91570        1.54610
C         -0.36380        4.17950       -1.42670
C         -1.21980        4.09580       -2.52630
C         -1.55400        5.23010       -3.23590
C         -1.05400        6.46860       -2.85500
S         -1.51110        7.89040       -3.80960
C         -1.73510        9.14620       -2.50710
C         -0.19680        6.55800       -1.76600
C          0.14750        5.42560       -1.06130
C         -0.74920        0.73830       -0.41640
S         -1.52600        0.72560        1.12590
C         -1.73660       -1.02390        1.03620
C         -1.20860       -1.55980       -0.13150
N         -1.07670       -2.89600       -0.45940
C         -1.05720       -3.21980       -1.82910
C         -2.03560       -2.69940       -2.67630
C         -1.96740       -2.92320       -4.03280
C         -0.92290       -3.67190       -4.57170
S         -0.89730       -3.84560       -6.32700
C          0.80360       -4.37790       -6.67110
C          0.02190       -4.23680       -3.72370
C         -0.04530       -4.01130       -2.36290
C         -0.78490       -3.86530        0.50390
C         -0.06440       -3.54530        1.65320
C          0.06750       -4.45870        2.67960
C         -0.49240       -5.72350        2.55960
S         -0.50930       -6.91100        3.86580
C         -0.20550       -5.89790        5.34210
C         -1.09840       -6.08980        1.35840
C         -1.25170       -5.17120        0.34370
C         -0.68730       -0.53070       -0.95800
S          0.11330       -0.51580       -2.48520
C         -2.26740       -1.64350        2.20610
C         -2.10960       -1.15600        3.47280
C         -2.59790       -2.01210        4.48180
C         -2.50830       -1.81480        5.87260
C         -2.11340       -0.52600        6.40170
C         -2.52830        0.69750        5.95340
C         -2.00300        1.76090        6.71520
Cl        -2.39590        3.40360        6.39700
C         -1.16880        1.37100        7.72340
C         -0.47850        2.21860        8.73360
C         -1.34390        2.38460        9.98510
S         -1.04780       -0.35510        7.76560
C         -2.85520       -2.89420        6.67640
C         -3.39240       -4.09860        6.14370
C         -3.61450       -4.24440        4.74770
C         -4.27650       -5.40110        4.19120
S         -5.57050       -6.21140        5.03820
C         -5.81870       -7.32850        3.74610
C         -6.89290       -8.35630        3.80540
C         -8.22200       -7.78800        3.30060
C         -4.94510       -7.06420        2.72920
C         -4.08090       -5.97870        2.96650
Cl        -4.88890       -7.97750        1.27290
C         -3.15680       -3.20260        3.94920
S         -3.16270       -3.14950        2.20250
C         -3.60220       -5.04240        7.15870
C         -3.28230       -4.59560        8.42900
S         -2.70060       -2.94460        8.40750
C         -3.40930       -5.43380        9.55460
C         -3.15330       -5.20070       10.87740
C         -2.68580       -3.92460       11.46520
O         -2.44610       -2.88600       10.88300
C         -2.57780       -4.17890       12.90640
C         -2.22440       -3.48670       14.01860
S         -2.34500       -4.48340       15.42100
C         -2.87490       -5.84350       14.50230
C         -2.95320       -5.53410       13.17890
C         -3.31250       -6.18680       11.93550
C         -3.71090       -7.49520       11.83860
C         -3.79910       -8.31530       12.98280
N         -3.87800       -8.99430       13.90460
C         -4.06390       -8.17760       10.65870
N         -4.36450       -8.79600        9.73820
H          6.07160        5.27970       -9.72420
H          8.14480        0.04850      -12.97730
H          9.62170        4.19330      -14.12650
H          4.60280        5.45560       -7.87770
H          2.44140        6.24180       -7.75760
H          0.99570        9.10130       -3.76210
H          2.34790        9.91490       -4.54220
H          2.57440        8.08790       -2.09190
H          2.64280        9.85640       -2.06250
H          3.91660        8.93190       -2.86120
H          4.02320       -4.66610       -6.65550
H          3.95320       -4.09170       -4.97550
H          6.30180       -3.27570       -5.15980
H          6.37170       -3.84720       -6.82930
H          6.20280       -5.00630       -5.50670
H          3.33060       -0.29840       -8.81360
H          1.71730       -0.04660       -4.40410
H          1.87680        1.72220        0.53700
H          2.28210        1.62660        2.94230
H          1.62030        1.18980        6.53890
H          2.75610        1.42620        5.19440
H          1.18740        0.60160        4.91950
H         -0.86130        4.45460        3.57990
H         -1.27170        4.54550        1.15020
H         -1.62890        3.13920       -2.81540
H         -2.21440        5.16490       -4.08660
H         -0.77730        9.50450       -2.14070
H         -2.32080        8.71860       -1.69970
H         -2.27750        9.96380       -2.97090
H          0.21270        7.50990       -1.46770
H          0.82870        5.49850       -0.22720
H         -2.83730       -2.10640       -2.26130
H         -2.71390       -2.51160       -4.69400
H          1.49650       -3.71280       -6.16540
H          0.92970       -4.29210       -7.74580
H          0.94870       -5.41040       -6.36650
H          0.82220       -4.84520       -4.11330
H          0.70140       -4.43510       -1.70770
H          0.37060       -2.56240        1.75790
H          0.60370       -4.17080        3.56970
H         -0.46260       -6.52620        6.18920
H          0.84190       -5.61590        5.40080
H         -0.84890       -5.02310        5.32070
H         -1.48120       -7.09300        1.24880
H         -1.77100       -5.44420       -0.56230
H         -1.58190       -0.24170        3.67800
H         -3.21670        0.83730        5.14040
H          0.47090        1.75680        9.01210
H         -0.27450        3.19610        8.29100
H         -1.55360        1.41360       10.42830
H         -0.82880        3.00080       10.71740
H         -2.28720        2.86110        9.73030
H         -6.60030       -9.20520        3.18410
H         -7.01220       -8.70110        4.83400
H         -8.99430       -8.55130        3.34230
H         -8.53070       -6.94510        3.91480
H         -8.12130       -7.44980        2.27200
H         -3.32240       -5.68040        2.26850
H         -3.95240       -6.04420        6.98860
H         -3.76860       -6.42380        9.29890
H         -1.90450       -2.46790       14.10750
H         -3.08920       -6.76570       15.00390
