177

C          2.94000       -5.10960        7.60760
C          4.09660       -5.51200        8.19130
C          4.08800       -6.80000        8.95980
O          3.11410       -7.43260        9.29020
C          5.50810       -7.10860        9.17660
C          6.24380       -8.11920        9.70390
S          7.92870       -7.75970        9.61670
C          7.64150       -6.22860        8.87480
C          6.30930       -6.01920        8.69850
C          5.44020       -4.97300        8.19680
C          5.82740       -3.67590        7.97660
C          7.18130       -3.29150        8.04820
N          8.28240       -2.96950        8.07890
C          4.94420       -2.60690        7.73810
N          4.25940       -1.70100        7.56890
C          2.67570       -4.15210        6.58020
C          1.40070       -3.54850        6.56050
N          0.42560       -3.80870        7.47250
C         -0.65480       -3.16200        7.24500
C         -1.89100       -3.27730        8.05500
C         -3.01350       -3.94280        7.25630
S         -0.61190       -2.11590        5.82400
C          1.02200       -2.63320        5.55630
C          1.83460       -2.34920        4.46500
C          3.10940       -2.93040        4.48310
C          3.51640       -3.80610        5.51810
S          5.10030       -4.40600        5.14740
C          5.11200       -3.38470        3.69620
C          6.30940       -3.34240        2.82340
C          6.38400       -4.55870        1.89760
N          4.04240       -2.71870        3.51440
C          1.38980       -1.62800        3.29680
C          1.49970       -2.08210        1.99510
N          1.93190       -3.34410        1.61800
C          2.75650       -3.46160        0.49290
C          2.67100       -4.57940       -0.33200
C          3.48230       -4.69790       -1.44390
C          4.38640       -3.69130       -1.75590
S          5.47880       -3.73070       -3.14290
C          4.98040       -5.21920       -4.05410
C          4.47360       -2.57020       -0.93230
C          3.67260       -2.45630        0.18120
C          1.69770       -4.43990        2.45800
C          2.67290       -5.41830        2.65530
C          2.49260       -6.39990        3.60290
C          1.33120       -6.44190        4.37160
S          1.26990       -7.66600        5.64010
C         -0.16360       -7.18380        6.64410
C          0.31400       -5.53490        4.10630
C          0.49700       -4.54870        3.15720
C          0.99850       -1.11820        1.08620
S          0.81080       -1.07130       -0.63000
C          0.06440        0.51760       -0.51820
C         -0.08100        0.95390        0.79100
N         -0.77110        2.08070        1.19550
C         -0.37060        2.74930        2.35940
C         -1.32040        3.28920        3.22730
C         -0.92140        3.91840        4.38400
C          0.43120        4.01740        4.70770
S          0.82290        4.82990        6.22460
C          2.57770        4.44070        6.48100
C          1.38010        3.50080        3.83670
C          0.98020        2.87720        2.67080
C         -1.88190        2.52780        0.46320
C         -2.10560        3.89160        0.26950
C         -3.09190        4.31300       -0.59300
C         -3.86580        3.38920       -1.29440
S         -4.95170        4.02960       -2.52610
C         -5.67240        2.54760       -3.27470
C         -3.71940        2.03630       -1.01750
C         -2.74370        1.61400       -0.13740
C          0.48490        0.01530        1.69360
S          0.59480       -0.07390        3.41710
C         -0.39630        1.14860       -1.71820
C         -1.09830        0.56130       -2.72900
C         -1.55070        1.47370       -3.70960
C         -2.36860        1.20490       -4.82590
C         -2.77360       -0.14580       -5.16270
C         -2.01980       -1.28320       -5.15620
C         -2.75880       -2.42370       -5.54050
Cl        -2.04450       -3.98860       -5.63040
C         -4.07100       -2.18140       -5.82570
C         -5.12290       -3.12980       -6.28230
C         -5.44160       -2.93860       -7.76670
S         -4.41630       -0.49640       -5.63660
C         -2.78930        2.30410       -5.56030
C         -2.42130        3.63990       -5.25670
C         -1.53070        3.90120       -4.18790
C         -1.03490        5.23540       -3.94660
C         -0.69890        6.18380       -4.87770
C         -0.23280        7.38270       -4.31020
C         -0.20750        7.36120       -2.94780
C          0.18000        8.45000       -2.00840
C         -1.02730        8.95870       -1.21840
S         -0.75080        5.83450       -2.33840
C         -1.15180        2.80330       -3.42300
S         -0.15100        2.85880       -1.99830
C         -3.05270        4.55900       -6.11800
C         -3.83530        3.97980       -7.09060
S         -3.81070        2.22910       -6.96470
C         -4.45290        4.67350       -8.15760
C         -5.20410        4.18910       -9.18540
C         -5.27230        4.94980      -10.46400
O         -5.00250        6.11570      -10.62670
C         -5.66680        3.94540      -11.47750
C         -5.76680        4.06090      -12.85490
Cl        -5.44510        5.55110      -13.64170
C         -6.13730        2.94120      -13.59810
C         -6.39730        1.73760      -12.96670
C         -6.31140        1.60740      -11.58560
C         -5.94690        2.71690      -10.84450
C         -5.83100        2.90660       -9.40110
C         -6.45630        2.15070       -8.44380
C         -7.02060        0.88260       -8.67150
N         -7.44450       -0.17800       -8.79080
C         -6.67710        2.63500       -7.13880
N         -6.97010        3.05010       -6.10950
H          2.05720       -5.62970        7.96650
H          5.91230       -9.04250       10.13490
H          8.47180       -5.60280        8.61530
H         -1.66050       -3.86420        8.94510
H         -2.21100       -2.27920        8.36250
H         -3.91390       -4.00280        7.86120
H         -2.72610       -4.95040        6.96440
H         -3.23370       -3.36740        6.35970
H          7.20270       -3.31170        3.45120
H          6.26100       -2.43160        2.22520
H          7.31110       -4.53180        1.33150
H          5.55470       -4.54960        1.19420
H          6.35540       -5.48100        2.47450
H          1.96360       -5.36140       -0.09870
H          3.39280       -5.57800       -2.05990
H          5.17770       -6.10680       -3.45990
H          5.59540       -5.23240       -4.94860
H          3.93180       -5.15020       -4.32800
H          5.18590       -1.79660       -1.17510
H          3.76240       -1.60110        0.83290
H          3.59070       -5.37900        2.09020
H          3.26550       -7.13190        3.78260
H         -1.08490       -7.39560        6.10810
H         -0.09090       -6.13360        6.91360
H         -0.10650       -7.79820        7.53750
H         -0.62250       -5.57940        4.63960
H         -0.29360       -3.83570        2.97240
H         -2.37010        3.20000        2.99140
H         -1.65350        4.33040        5.06140
H          3.19060        4.96270        5.75170
H          2.72520        3.36630        6.42710
H          2.81350        4.79730        7.47890
H          2.43400        3.58200        4.04780
H          1.72480        2.49180        1.98980
H         -1.47160        4.61210        0.76280
H         -3.24990        5.36530       -0.76860
H         -6.26080        2.89580       -4.11960
H         -4.88260        1.89030       -3.62820
H         -6.31490        2.04370       -2.55860
H         -4.34750        1.29840       -1.48950
H         -2.62830        0.55860        0.06160
H         -1.35340       -0.48280       -2.72330
H         -0.97000       -1.30930       -4.92830
H         -4.76990       -4.14820       -6.10770
H         -6.03330       -2.97330       -5.69920
H         -6.17810       -3.67130       -8.08470
H         -5.84710       -1.94510       -7.94580
H         -4.54300       -3.06470       -8.36660
H         -0.73490        6.00760       -5.93790
H          0.07660        8.23200       -4.89320
H          0.61920        9.26900       -2.58150
H          0.93330        8.07890       -1.30870
H         -1.78750        9.34350       -1.89420
H         -0.72700        9.75510       -0.54240
H         -1.46120        8.15070       -0.63390
H         -2.97070        5.62530       -6.01250
H         -4.17790        5.72040       -8.24310
H         -6.21790        3.02440      -14.67010
H         -6.67620        0.88080      -13.56090
H         -6.51540        0.66030      -11.11280
