
  xtb     02112208163D
 energy: -405.972866547108 gnorm: 0.000471551371 xtb: 6.4.1 (unknown)
241262  0     0  0            999 V2000
    4.8329   -5.4302   -6.0794 C   0  0  0  0  0  0  0  0  0  0  0  0
    4.5778   -5.6592   -7.4182 C   0  0  0  0  0  0  0  0  0  0  0  0
    3.2191   -5.7709   -7.9828 C   0  0  0  0  0  0  0  0  0  0  0  0
    2.1626   -5.6542   -7.3901 O   0  0  0  0  0  0  0  0  0  0  0  0
    3.4236   -6.1731   -9.3854 C   0  0  0  0  0  0  0  0  0  0  0  0
    2.6594   -6.4401  -10.4706 C   0  0  0  0  0  0  0  0  0  0  0  0
    3.6485   -6.8218  -11.8376 S   0  0  0  0  0  0  0  0  0  0  0  0
    5.1042   -6.6222  -10.9292 C   0  0  0  0  0  0  0  0  0  0  0  0
    4.8283   -6.2800   -9.6439 C   0  0  0  0  0  0  0  0  0  0  0  0
    5.5531   -5.9512   -8.4315 C   0  0  0  0  0  0  0  0  0  0  0  0
    6.9164   -5.7935   -8.3469 C   0  0  0  0  0  0  0  0  0  0  0  0
    7.5976   -5.3458   -7.2020 C   0  0  0  0  0  0  0  0  0  0  0  0
    8.2019   -4.9576   -6.3049 N   0  0  0  0  0  0  0  0  0  0  0  0
    7.7439   -6.0001   -9.4637 C   0  0  0  0  0  0  0  0  0  0  0  0
    8.4233   -6.1502  -10.3782 N   0  0  0  0  0  0  0  0  0  0  0  0
    3.9900   -4.7732   -5.1852 C   0  0  0  0  0  0  0  0  0  0  0  0
    2.9702   -3.8158   -5.3948 C   0  0  0  0  0  0  0  0  0  0  0  0
    2.6839   -3.1702   -6.5611 N   0  0  0  0  0  0  0  0  0  0  0  0
    1.3999   -2.6126   -6.7461 C   0  0  0  0  0  0  0  0  0  0  0  0
    0.2606   -3.3567   -6.4619 C   0  0  0  0  0  0  0  0  0  0  0  0
   -0.9891   -2.8059   -6.6708 C   0  0  0  0  0  0  0  0  0  0  0  0
   -1.1311   -1.5154   -7.1642 C   0  0  0  0  0  0  0  0  0  0  0  0
   -2.4809   -0.9239   -7.4239 C   0  0  0  0  0  0  0  0  0  0  0  0
    0.0173   -0.7808   -7.4430 C   0  0  0  0  0  0  0  0  0  0  0  0
    1.2717   -1.3176   -7.2395 C   0  0  0  0  0  0  0  0  0  0  0  0
    3.6214   -3.0011   -7.5902 C   0  0  0  0  0  0  0  0  0  0  0  0
    4.9579   -2.7164   -7.3127 C   0  0  0  0  0  0  0  0  0  0  0  0
    5.8683   -2.5923   -8.3405 C   0  0  0  0  0  0  0  0  0  0  0  0
    5.4812   -2.7413   -9.6706 C   0  0  0  0  0  0  0  0  0  0  0  0
    6.4930   -2.6600  -10.7693 C   0  0  0  0  0  0  0  0  0  0  0  0
    4.1401   -2.9790   -9.9402 C   0  0  0  0  0  0  0  0  0  0  0  0
    3.2168   -3.1070   -8.9192 C   0  0  0  0  0  0  0  0  0  0  0  0
    2.3464   -3.4891   -4.1705 C   0  0  0  0  0  0  0  0  0  0  0  0
    1.0993   -2.3811   -3.7042 S   0  0  0  0  0  0  0  0  0  0  0  0
    1.3581   -2.7474   -2.0029 C   0  0  0  0  0  0  0  0  0  0  0  0
    2.3435   -3.7005   -1.8200 C   0  0  0  0  0  0  0  0  0  0  0  0
    2.8362   -4.1612   -0.5810 N   0  0  0  0  0  0  0  0  0  0  0  0
    2.6417   -5.5097   -0.2525 C   0  0  0  0  0  0  0  0  0  0  0  0
    2.9577   -5.9641    1.0278 C   0  0  0  0  0  0  0  0  0  0  0  0
    2.7568   -7.2842    1.3766 C   0  0  0  0  0  0  0  0  0  0  0  0
    2.2215   -8.1951    0.4763 C   0  0  0  0  0  0  0  0  0  0  0  0
    2.0124   -9.6324    0.8427 C   0  0  0  0  0  0  0  0  0  0  0  0
    1.8722   -7.7300   -0.7840 C   0  0  0  0  0  0  0  0  0  0  0  0
    2.0686   -6.4129   -1.1457 C   0  0  0  0  0  0  0  0  0  0  0  0
    3.9581   -3.4516   -0.0983 C   0  0  0  0  0  0  0  0  0  0  0  0
    5.1417   -4.1002    0.2510 C   0  0  0  0  0  0  0  0  0  0  0  0
    6.2129   -3.3829    0.7423 C   0  0  0  0  0  0  0  0  0  0  0  0
    6.1545   -2.0003    0.8857 C   0  0  0  0  0  0  0  0  0  0  0  0
    7.3266   -1.2423    1.4304 C   0  0  0  0  0  0  0  0  0  0  0  0
    4.9901   -1.3547    0.4959 C   0  0  0  0  0  0  0  0  0  0  0  0
    3.9076   -2.0632    0.0074 C   0  0  0  0  0  0  0  0  0  0  0  0
    2.8997   -4.1009   -3.0540 C   0  0  0  0  0  0  0  0  0  0  0  0
    4.2288   -5.1180   -3.4634 S   0  0  0  0  0  0  0  0  0  0  0  0
    0.6764   -1.9247   -1.0560 C   0  0  0  0  0  0  0  0  0  0  0  0
    0.3219   -2.1313    0.2734 C   0  0  0  0  0  0  0  0  0  0  0  0
    0.2852   -3.3358    0.9494 N   0  0  0  0  0  0  0  0  0  0  0  0
    0.5789   -3.2853    2.3371 C   0  0  0  0  0  0  0  0  0  0  0  0
    1.8770   -3.0142    2.7467 C   0  0  0  0  0  0  0  0  0  0  0  0
    2.2092   -3.0472    4.0868 C   0  0  0  0  0  0  0  0  0  0  0  0
    1.2329   -3.3144    5.0365 C   0  0  0  0  0  0  0  0  0  0  0  0
    1.5512   -3.3736    6.7726 S   0  0  0  0  0  0  0  0  0  0  0  0
    3.3376   -3.7024    6.8588 C   0  0  0  0  0  0  0  0  0  0  0  0
   -0.0824   -3.5297    4.6309 C   0  0  0  0  0  0  0  0  0  0  0  0
   -0.4063   -3.5268    3.2921 C   0  0  0  0  0  0  0  0  0  0  0  0
   -0.2583   -4.5060    0.4189 C   0  0  0  0  0  0  0  0  0  0  0  0
   -0.9018   -4.5381   -0.8158 C   0  0  0  0  0  0  0  0  0  0  0  0
   -1.4072   -5.7187   -1.3269 C   0  0  0  0  0  0  0  0  0  0  0  0
   -1.3011   -6.8962   -0.6045 C   0  0  0  0  0  0  0  0  0  0  0  0
   -1.8790   -8.4659   -1.1731 S   0  0  0  0  0  0  0  0  0  0  0  0
   -2.1657   -8.1927   -2.9458 C   0  0  0  0  0  0  0  0  0  0  0  0
   -0.7080   -6.8635    0.6543 C   0  0  0  0  0  0  0  0  0  0  0  0
   -0.1866   -5.6939    1.1537 C   0  0  0  0  0  0  0  0  0  0  0  0
   -0.1177   -0.9167    0.8654 C   0  0  0  0  0  0  0  0  0  0  0  0
   -0.5940   -0.4389    2.4635 S   0  0  0  0  0  0  0  0  0  0  0  0
   -0.9672    1.1858    1.8952 C   0  0  0  0  0  0  0  0  0  0  0  0
   -0.6835    1.3452    0.5451 C   0  0  0  0  0  0  0  0  0  0  0  0
   -0.8366    2.5226   -0.1794 N   0  0  0  0  0  0  0  0  0  0  0  0
   -1.4730    2.4375   -1.4190 C   0  0  0  0  0  0  0  0  0  0  0  0
   -2.5467    1.5647   -1.5815 C   0  0  0  0  0  0  0  0  0  0  0  0
   -3.1810    1.4388   -2.8010 C   0  0  0  0  0  0  0  0  0  0  0  0
   -2.7567    2.1957   -3.8829 C   0  0  0  0  0  0  0  0  0  0  0  0
   -3.5048    2.1464   -5.4831 S   0  0  0  0  0  0  0  0  0  0  0  0
   -4.8941    0.9944   -5.2826 C   0  0  0  0  0  0  0  0  0  0  0  0
   -1.6843    3.0725   -3.7268 C   0  0  0  0  0  0  0  0  0  0  0  0
   -1.0464    3.1915   -2.5131 C   0  0  0  0  0  0  0  0  0  0  0  0
   -0.2348    3.7097    0.2610 C   0  0  0  0  0  0  0  0  0  0  0  0
   -0.8360    4.9388    0.0059 C   0  0  0  0  0  0  0  0  0  0  0  0
   -0.2667    6.1132    0.4548 C   0  0  0  0  0  0  0  0  0  0  0  0
    0.9224    6.0782    1.1715 C   0  0  0  0  0  0  0  0  0  0  0  0
    1.7443    7.5076    1.7904 S   0  0  0  0  0  0  0  0  0  0  0  0
    0.9142    8.8897    0.9587 C   0  0  0  0  0  0  0  0  0  0  0  0
    1.5276    4.8490    1.4269 C   0  0  0  0  0  0  0  0  0  0  0  0
    0.9613    3.6775    0.9749 C   0  0  0  0  0  0  0  0  0  0  0  0
   -0.1977    0.1478   -0.0180 C   0  0  0  0  0  0  0  0  0  0  0  0
    0.3152   -0.2852   -1.6045 S   0  0  0  0  0  0  0  0  0  0  0  0
   -1.6354    2.1296    2.7188 C   0  0  0  0  0  0  0  0  0  0  0  0
   -1.6266    2.2621    4.1037 C   0  0  0  0  0  0  0  0  0  0  0  0
   -0.8557    1.5366    4.9939 N   0  0  0  0  0  0  0  0  0  0  0  0
    0.5046    1.3003    4.7666 C   0  0  0  0  0  0  0  0  0  0  0  0
    1.1283    0.1989    5.3486 C   0  0  0  0  0  0  0  0  0  0  0  0
    2.4727   -0.0209    5.1379 C   0  0  0  0  0  0  0  0  0  0  0  0
    3.2244    0.8067    4.3127 C   0  0  0  0  0  0  0  0  0  0  0  0
    4.6673    0.5062    4.0414 C   0  0  0  0  0  0  0  0  0  0  0  0
    2.5942    1.9044    3.7424 C   0  0  0  0  0  0  0  0  0  0  0  0
    1.2585    2.1651    3.9787 C   0  0  0  0  0  0  0  0  0  0  0  0
   -1.4323    1.2370    6.2419 C   0  0  0  0  0  0  0  0  0  0  0  0
   -2.7395    0.7630    6.2979 C   0  0  0  0  0  0  0  0  0  0  0  0
   -3.3277    0.4860    7.5167 C   0  0  0  0  0  0  0  0  0  0  0  0
   -2.6309    0.6639    8.7039 C   0  0  0  0  0  0  0  0  0  0  0  0
   -3.2655    0.3783   10.0299 C   0  0  0  0  0  0  0  0  0  0  0  0
   -1.3225    1.1323    8.6376 C   0  0  0  0  0  0  0  0  0  0  0  0
   -0.7267    1.4217    7.4280 C   0  0  0  0  0  0  0  0  0  0  0  0
   -2.4976    3.2940    4.5126 C   0  0  0  0  0  0  0  0  0  0  0  0
   -2.8224    4.0072    6.0439 S   0  0  0  0  0  0  0  0  0  0  0  0
   -3.7685    5.2868    5.2622 C   0  0  0  0  0  0  0  0  0  0  0  0
   -3.9739    5.0214    3.8844 C   0  0  0  0  0  0  0  0  0  0  0  0
   -4.8288    5.6745    3.0500 N   0  0  0  0  0  0  0  0  0  0  0  0
   -5.9718    6.3871    3.4529 C   0  0  0  0  0  0  0  0  0  0  0  0
   -6.4753    7.3847    2.6186 C   0  0  0  0  0  0  0  0  0  0  0  0
   -7.5795    8.1225    2.9961 C   0  0  0  0  0  0  0  0  0  0  0  0
   -8.2133    7.8980    4.2111 C   0  0  0  0  0  0  0  0  0  0  0  0
   -9.3788    8.7290    4.6445 C   0  0  0  0  0  0  0  0  0  0  0  0
   -7.7480    6.8564    5.0068 C   0  0  0  0  0  0  0  0  0  0  0  0
   -6.6546    6.1017    4.6342 C   0  0  0  0  0  0  0  0  0  0  0  0
   -4.7736    5.3895    1.6476 C   0  0  0  0  0  0  0  0  0  0  0  0
   -5.5761    4.3834    1.1268 C   0  0  0  0  0  0  0  0  0  0  0  0
   -5.5841    4.1422   -0.2341 C   0  0  0  0  0  0  0  0  0  0  0  0
   -4.8224    4.9157   -1.1001 C   0  0  0  0  0  0  0  0  0  0  0  0
   -4.8623    4.6943   -2.5787 C   0  0  0  0  0  0  0  0  0  0  0  0
   -4.0331    5.9280   -0.5651 C   0  0  0  0  0  0  0  0  0  0  0  0
   -3.9935    6.1594    0.7970 C   0  0  0  0  0  0  0  0  0  0  0  0
   -3.1835    3.9240    3.4818 C   0  0  0  0  0  0  0  0  0  0  0  0
   -2.7391    3.2627    1.9462 S   0  0  0  0  0  0  0  0  0  0  0  0
   -4.0827    6.3823    6.0567 C   0  0  0  0  0  0  0  0  0  0  0  0
   -4.4730    7.6579    5.6981 C   0  0  0  0  0  0  0  0  0  0  0  0
   -5.2329    8.4640    6.6608 C   0  0  0  0  0  0  0  0  0  0  0  0
   -5.4594    8.2093    7.8224 O   0  0  0  0  0  0  0  0  0  0  0  0
   -5.7264    9.6293    5.8802 C   0  0  0  0  0  0  0  0  0  0  0  0
   -6.6376   10.5933    6.2653 C   0  0  0  0  0  0  0  0  0  0  0  0
   -7.2779   10.6293    7.8479 Cl  0  0  0  0  0  0  0  0  0  0  0  0
   -7.0509   11.5373    5.3152 C   0  0  0  0  0  0  0  0  0  0  0  0
   -8.1859   12.7435    5.7446 Cl  0  0  0  0  0  0  0  0  0  0  0  0
   -6.5646   11.4684    4.0139 C   0  0  0  0  0  0  0  0  0  0  0  0
   -7.1368   12.5855    2.8478 Cl  0  0  0  0  0  0  0  0  0  0  0  0
   -5.6377   10.4860    3.6311 C   0  0  0  0  0  0  0  0  0  0  0  0
   -5.1977   10.4065    1.9764 Cl  0  0  0  0  0  0  0  0  0  0  0  0
   -5.1933    9.5752    4.5776 C   0  0  0  0  0  0  0  0  0  0  0  0
   -4.2811    8.4281    4.5025 C   0  0  0  0  0  0  0  0  0  0  0  0
   -3.2296    8.2503    3.6309 C   0  0  0  0  0  0  0  0  0  0  0  0
   -2.2628    7.2306    3.7603 C   0  0  0  0  0  0  0  0  0  0  0  0
   -1.4140    6.4560    3.7706 N   0  0  0  0  0  0  0  0  0  0  0  0
   -2.7820    9.0803    2.5868 C   0  0  0  0  0  0  0  0  0  0  0  0
   -2.2395    9.6301    1.7338 N   0  0  0  0  0  0  0  0  0  0  0  0
    5.7532   -5.8195   -5.6601 H   0  0  0  0  0  0  0  0  0  0  0  0
    1.5925   -6.4324  -10.5695 H   0  0  0  0  0  0  0  0  0  0  0  0
    6.0492   -6.7797  -11.4090 H   0  0  0  0  0  0  0  0  0  0  0  0
    0.3694   -4.3730   -6.1169 H   0  0  0  0  0  0  0  0  0  0  0  0
   -1.8688   -3.3966   -6.4589 H   0  0  0  0  0  0  0  0  0  0  0  0
   -3.2665   -1.5380   -6.9904 H   0  0  0  0  0  0  0  0  0  0  0  0
   -2.6572   -0.8512   -8.4971 H   0  0  0  0  0  0  0  0  0  0  0  0
   -2.5412    0.0814   -7.0120 H   0  0  0  0  0  0  0  0  0  0  0  0
   -0.0770    0.2257   -7.8231 H   0  0  0  0  0  0  0  0  0  0  0  0
    2.1579   -0.7405   -7.4600 H   0  0  0  0  0  0  0  0  0  0  0  0
    5.2821   -2.5962   -6.2898 H   0  0  0  0  0  0  0  0  0  0  0  0
    6.9019   -2.3815   -8.1078 H   0  0  0  0  0  0  0  0  0  0  0  0
    6.0110   -2.5364  -11.7356 H   0  0  0  0  0  0  0  0  0  0  0  0
    7.1753   -1.8287  -10.6037 H   0  0  0  0  0  0  0  0  0  0  0  0
    7.0883   -3.5736  -10.7995 H   0  0  0  0  0  0  0  0  0  0  0  0
    3.8112   -3.0797  -10.9645 H   0  0  0  0  0  0  0  0  0  0  0  0
    2.1789   -3.3029   -9.1434 H   0  0  0  0  0  0  0  0  0  0  0  0
    3.3545   -5.2734    1.7568 H   0  0  0  0  0  0  0  0  0  0  0  0
    3.0146   -7.6085    2.3753 H   0  0  0  0  0  0  0  0  0  0  0  0
    2.7832  -10.2541    0.3863 H   0  0  0  0  0  0  0  0  0  0  0  0
    2.0581   -9.7702    1.9204 H   0  0  0  0  0  0  0  0  0  0  0  0
    1.0466   -9.9813    0.4818 H   0  0  0  0  0  0  0  0  0  0  0  0
    1.4351   -8.4130   -1.4978 H   0  0  0  0  0  0  0  0  0  0  0  0
    1.7578   -6.0915   -2.1272 H   0  0  0  0  0  0  0  0  0  0  0  0
    5.2220   -5.1691    0.1240 H   0  0  0  0  0  0  0  0  0  0  0  0
    7.1207   -3.9055    1.0075 H   0  0  0  0  0  0  0  0  0  0  0  0
    7.1218   -0.1751    1.4584 H   0  0  0  0  0  0  0  0  0  0  0  0
    8.2070   -1.4113    0.8120 H   0  0  0  0  0  0  0  0  0  0  0  0
    7.5626   -1.5777    2.4400 H   0  0  0  0  0  0  0  0  0  0  0  0
    4.9199   -0.2788    0.5729 H   0  0  0  0  0  0  0  0  0  0  0  0
    3.0184   -1.5308   -0.2916 H   0  0  0  0  0  0  0  0  0  0  0  0
    2.6340   -2.7932    2.0103 H   0  0  0  0  0  0  0  0  0  0  0  0
    3.2340   -2.8719    4.3709 H   0  0  0  0  0  0  0  0  0  0  0  0
    3.9077   -2.8086    6.6217 H   0  0  0  0  0  0  0  0  0  0  0  0
    3.5333   -3.9951    7.8856 H   0  0  0  0  0  0  0  0  0  0  0  0
    3.5880   -4.5164    6.1856 H   0  0  0  0  0  0  0  0  0  0  0  0
   -0.8401   -3.7121    5.3773 H   0  0  0  0  0  0  0  0  0  0  0  0
   -1.4194   -3.7243    2.9755 H   0  0  0  0  0  0  0  0  0  0  0  0
   -1.0316   -3.6351   -1.3906 H   0  0  0  0  0  0  0  0  0  0  0  0
   -1.8897   -5.6965   -2.2911 H   0  0  0  0  0  0  0  0  0  0  0  0
   -1.2772   -7.7598   -3.3958 H   0  0  0  0  0  0  0  0  0  0  0  0
   -3.0331   -7.5559   -3.0943 H   0  0  0  0  0  0  0  0  0  0  0  0
   -2.3560   -9.1740   -3.3691 H   0  0  0  0  0  0  0  0  0  0  0  0
   -0.6474   -7.7717    1.2327 H   0  0  0  0  0  0  0  0  0  0  0  0
    0.2926   -5.7044    2.1188 H   0  0  0  0  0  0  0  0  0  0  0  0
   -2.8909    0.9845   -0.7380 H   0  0  0  0  0  0  0  0  0  0  0  0
   -4.0069    0.7515   -2.8880 H   0  0  0  0  0  0  0  0  0  0  0  0
   -5.3787    0.9493   -6.2530 H   0  0  0  0  0  0  0  0  0  0  0  0
   -4.5255    0.0106   -5.0081 H   0  0  0  0  0  0  0  0  0  0  0  0
   -5.5896    1.3772   -4.5414 H   0  0  0  0  0  0  0  0  0  0  0  0
   -1.3533    3.6518   -4.5755 H   0  0  0  0  0  0  0  0  0  0  0  0
   -0.2072    3.8615   -2.4057 H   0  0  0  0  0  0  0  0  0  0  0  0
   -1.7674    4.9625   -0.5375 H   0  0  0  0  0  0  0  0  0  0  0  0
   -0.7649    7.0481    0.2543 H   0  0  0  0  0  0  0  0  0  0  0  0
    0.9270    8.7279   -0.1151 H   0  0  0  0  0  0  0  0  0  0  0  0
   -0.1005    9.0122    1.3283 H   0  0  0  0  0  0  0  0  0  0  0  0
    1.4992    9.7701    1.2062 H   0  0  0  0  0  0  0  0  0  0  0  0
    2.4543    4.8313    1.9797 H   0  0  0  0  0  0  0  0  0  0  0  0
    1.4451    2.7301    1.1615 H   0  0  0  0  0  0  0  0  0  0  0  0
    0.5581   -0.4763    5.9685 H   0  0  0  0  0  0  0  0  0  0  0  0
    2.9499   -0.8536    5.6291 H   0  0  0  0  0  0  0  0  0  0  0  0
    5.1777    1.3782    3.6400 H   0  0  0  0  0  0  0  0  0  0  0  0
    5.1755    0.1927    4.9516 H   0  0  0  0  0  0  0  0  0  0  0  0
    4.7495   -0.3037    3.3146 H   0  0  0  0  0  0  0  0  0  0  0  0
    3.1620    2.5819    3.1208 H   0  0  0  0  0  0  0  0  0  0  0  0
    0.7989    3.0491    3.5627 H   0  0  0  0  0  0  0  0  0  0  0  0
   -3.2884    0.6094    5.3796 H   0  0  0  0  0  0  0  0  0  0  0  0
   -4.3439    0.1195    7.5428 H   0  0  0  0  0  0  0  0  0  0  0  0
   -2.6085   -0.2334   10.6455 H   0  0  0  0  0  0  0  0  0  0  0  0
   -3.4503    1.3099   10.5646 H   0  0  0  0  0  0  0  0  0  0  0  0
   -4.2130   -0.1398    9.9058 H   0  0  0  0  0  0  0  0  0  0  0  0
   -0.7666    1.2825    9.5516 H   0  0  0  0  0  0  0  0  0  0  0  0
    0.2840    1.7997    7.3935 H   0  0  0  0  0  0  0  0  0  0  0  0
   -5.9913    7.5911    1.6767 H   0  0  0  0  0  0  0  0  0  0  0  0
   -7.9448    8.8968    2.3381 H   0  0  0  0  0  0  0  0  0  0  0  0
   -9.4266    9.6556    4.0783 H   0  0  0  0  0  0  0  0  0  0  0  0
   -9.3066    8.9649    5.7039 H   0  0  0  0  0  0  0  0  0  0  0  0
  -10.3095    8.1835    4.4874 H   0  0  0  0  0  0  0  0  0  0  0  0
   -8.2481    6.6328    5.9373 H   0  0  0  0  0  0  0  0  0  0  0  0
   -6.3351    5.2843    5.2613 H   0  0  0  0  0  0  0  0  0  0  0  0
   -6.1891    3.7942    1.7929 H   0  0  0  0  0  0  0  0  0  0  0  0
   -6.2030    3.3499   -0.6286 H   0  0  0  0  0  0  0  0  0  0  0  0
   -5.4154    5.4992   -3.0625 H   0  0  0  0  0  0  0  0  0  0  0  0
   -3.8566    4.6837   -2.9940 H   0  0  0  0  0  0  0  0  0  0  0  0
   -5.3484    3.7524   -2.8172 H   0  0  0  0  0  0  0  0  0  0  0  0
   -3.4507    6.5532   -1.2264 H   0  0  0  0  0  0  0  0  0  0  0  0
   -3.3650    6.9397    1.1971 H   0  0  0  0  0  0  0  0  0  0  0  0
   -4.0646    6.2044    7.1278 H   0  0  0  0  0  0  0  0  0  0  0  0
  1  2  2  0  0  0  0
  2  3  1  0  0  0  0
  3  4  2  0  0  0  0
  3  5  1  0  0  0  0
  5  6  2  0  0  0  0
  6  7  1  0  0  0  0
  7  8  1  0  0  0  0
  8  9  2  0  0  0  0
  9 10  1  0  0  0  0
 10 11  2  0  0  0  0
 11 12  1  0  0  0  0
 12 13  3  0  0  0  0
 11 14  1  0  0  0  0
 14 15  3  0  0  0  0
  1 16  1  0  0  0  0
 16 17  2  0  0  0  0
 17 18  1  0  0  0  0
 18 19  1  0  0  0  0
 19 20  2  0  0  0  0
 20 21  1  0  0  0  0
 21 22  2  0  0  0  0
 22 23  1  0  0  0  0
 22 24  1  0  0  0  0
 24 25  2  0  0  0  0
 18 26  1  0  0  0  0
 26 27  2  0  0  0  0
 27 28  1  0  0  0  0
 28 29  2  0  0  0  0
 29 30  1  0  0  0  0
 29 31  1  0  0  0  0
 31 32  2  0  0  0  0
 17 33  1  0  0  0  0
 33 34  1  0  0  0  0
 34 35  1  0  0  0  0
 35 36  2  0  0  0  0
 36 37  1  0  0  0  0
 37 38  1  0  0  0  0
 38 39  2  0  0  0  0
 39 40  1  0  0  0  0
 40 41  2  0  0  0  0
 41 42  1  0  0  0  0
 41 43  1  0  0  0  0
 43 44  2  0  0  0  0
 37 45  1  0  0  0  0
 45 46  2  0  0  0  0
 46 47  1  0  0  0  0
 47 48  2  0  0  0  0
 48 49  1  0  0  0  0
 48 50  1  0  0  0  0
 50 51  2  0  0  0  0
 36 52  1  0  0  0  0
 52 53  1  0  0  0  0
 35 54  1  0  0  0  0
 54 55  2  0  0  0  0
 55 56  1  0  0  0  0
 56 57  1  0  0  0  0
 57 58  2  0  0  0  0
 58 59  1  0  0  0  0
 59 60  2  0  0  0  0
 60 61  1  0  0  0  0
 61 62  1  0  0  0  0
 60 63  1  0  0  0  0
 63 64  2  0  0  0  0
 56 65  1  0  0  0  0
 65 66  2  0  0  0  0
 66 67  1  0  0  0  0
 67 68  2  0  0  0  0
 68 69  1  0  0  0  0
 69 70  1  0  0  0  0
 68 71  1  0  0  0  0
 71 72  2  0  0  0  0
 55 73  1  0  0  0  0
 73 74  1  0  0  0  0
 74 75  1  0  0  0  0
 75 76  2  0  0  0  0
 76 77  1  0  0  0  0
 77 78  1  0  0  0  0
 78 79  2  0  0  0  0
 79 80  1  0  0  0  0
 80 81  2  0  0  0  0
 81 82  1  0  0  0  0
 82 83  1  0  0  0  0
 81 84  1  0  0  0  0
 84 85  2  0  0  0  0
 77 86  1  0  0  0  0
 86 87  2  0  0  0  0
 87 88  1  0  0  0  0
 88 89  2  0  0  0  0
 89 90  1  0  0  0  0
 90 91  1  0  0  0  0
 89 92  1  0  0  0  0
 92 93  2  0  0  0  0
 76 94  1  0  0  0  0
 94 95  1  0  0  0  0
 75 96  1  0  0  0  0
 96 97  2  0  0  0  0
 97 98  1  0  0  0  0
 98 99  1  0  0  0  0
 99100  2  0  0  0  0
100101  1  0  0  0  0
101102  2  0  0  0  0
102103  1  0  0  0  0
102104  1  0  0  0  0
104105  2  0  0  0  0
 98106  1  0  0  0  0
106107  2  0  0  0  0
107108  1  0  0  0  0
108109  2  0  0  0  0
109110  1  0  0  0  0
109111  1  0  0  0  0
111112  2  0  0  0  0
 97113  1  0  0  0  0
113114  1  0  0  0  0
114115  1  0  0  0  0
115116  2  0  0  0  0
116117  1  0  0  0  0
117118  1  0  0  0  0
118119  2  0  0  0  0
119120  1  0  0  0  0
120121  2  0  0  0  0
121122  1  0  0  0  0
121123  1  0  0  0  0
123124  2  0  0  0  0
117125  1  0  0  0  0
125126  2  0  0  0  0
126127  1  0  0  0  0
127128  2  0  0  0  0
128129  1  0  0  0  0
128130  1  0  0  0  0
130131  2  0  0  0  0
116132  1  0  0  0  0
132133  1  0  0  0  0
115134  1  0  0  0  0
134135  2  0  0  0  0
135136  1  0  0  0  0
136137  2  0  0  0  0
136138  1  0  0  0  0
138139  2  0  0  0  0
139140  1  0  0  0  0
139141  1  0  0  0  0
141142  1  0  0  0  0
141143  2  0  0  0  0
143144  1  0  0  0  0
143145  1  0  0  0  0
145146  1  0  0  0  0
145147  2  0  0  0  0
147148  1  0  0  0  0
148149  2  0  0  0  0
149150  1  0  0  0  0
150151  3  0  0  0  0
149152  1  0  0  0  0
152153  3  0  0  0  0
 10  2  1  0  0  0  0
 53 16  1  0  0  0  0
 95 54  1  0  0  0  0
133 96  1  0  0  0  0
148135  1  0  0  0  0
  9  5  1  0  0  0  0
 25 19  1  0  0  0  0
 32 26  1  0  0  0  0
 52 33  2  0  0  0  0
 64 57  1  0  0  0  0
 72 65  1  0  0  0  0
 94 73  2  0  0  0  0
105 99  1  0  0  0  0
112106  1  0  0  0  0
132113  2  0  0  0  0
147138  1  0  0  0  0
 44 38  1  0  0  0  0
 51 45  1  0  0  0  0
 85 78  1  0  0  0  0
 93 86  1  0  0  0  0
124118  1  0  0  0  0
131125  1  0  0  0  0
  1154  1  0  0  0  0
  6155  1  0  0  0  0
  8156  1  0  0  0  0
 20157  1  0  0  0  0
 21158  1  0  0  0  0
 23159  1  0  0  0  0
 23160  1  0  0  0  0
 23161  1  0  0  0  0
 24162  1  0  0  0  0
 25163  1  0  0  0  0
 27164  1  0  0  0  0
 28165  1  0  0  0  0
 30166  1  0  0  0  0
 30167  1  0  0  0  0
 30168  1  0  0  0  0
 31169  1  0  0  0  0
 32170  1  0  0  0  0
 39171  1  0  0  0  0
 40172  1  0  0  0  0
 42173  1  0  0  0  0
 42174  1  0  0  0  0
 42175  1  0  0  0  0
 43176  1  0  0  0  0
 44177  1  0  0  0  0
 46178  1  0  0  0  0
 47179  1  0  0  0  0
 49180  1  0  0  0  0
 49181  1  0  0  0  0
 49182  1  0  0  0  0
 50183  1  0  0  0  0
 51184  1  0  0  0  0
 58185  1  0  0  0  0
 59186  1  0  0  0  0
 62187  1  0  0  0  0
 62188  1  0  0  0  0
 62189  1  0  0  0  0
 63190  1  0  0  0  0
 64191  1  0  0  0  0
 66192  1  0  0  0  0
 67193  1  0  0  0  0
 70194  1  0  0  0  0
 70195  1  0  0  0  0
 70196  1  0  0  0  0
 71197  1  0  0  0  0
 72198  1  0  0  0  0
 79199  1  0  0  0  0
 80200  1  0  0  0  0
 83201  1  0  0  0  0
 83202  1  0  0  0  0
 83203  1  0  0  0  0
 84204  1  0  0  0  0
 85205  1  0  0  0  0
 87206  1  0  0  0  0
 88207  1  0  0  0  0
 91208  1  0  0  0  0
 91209  1  0  0  0  0
 91210  1  0  0  0  0
 92211  1  0  0  0  0
 93212  1  0  0  0  0
100213  1  0  0  0  0
101214  1  0  0  0  0
103215  1  0  0  0  0
103216  1  0  0  0  0
103217  1  0  0  0  0
104218  1  0  0  0  0
105219  1  0  0  0  0
107220  1  0  0  0  0
108221  1  0  0  0  0
110222  1  0  0  0  0
110223  1  0  0  0  0
110224  1  0  0  0  0
111225  1  0  0  0  0
112226  1  0  0  0  0
119227  1  0  0  0  0
120228  1  0  0  0  0
122229  1  0  0  0  0
122230  1  0  0  0  0
122231  1  0  0  0  0
123232  1  0  0  0  0
124233  1  0  0  0  0
126234  1  0  0  0  0
127235  1  0  0  0  0
129236  1  0  0  0  0
129237  1  0  0  0  0
129238  1  0  0  0  0
130239  1  0  0  0  0
131240  1  0  0  0  0
134241  1  0  0  0  0
M  END
