
  xtb     02052201143D
 energy: -258.298418763510 gnorm: 0.000323487674 xtb: 6.4.1 (unknown)
150165  0     0  0            999 V2000
    0.4571    3.8807   13.6728 C   0  0  0  0  0  0  0  0  0  0  0  0
   -0.8972    3.3707   13.1973 C   0  0  0  0  0  0  0  0  0  0  0  0
   -0.7562    2.5469   12.0008 N   0  0  0  0  0  0  0  0  0  0  0  0
   -0.8208    3.1940   10.7778 C   0  0  0  0  0  0  0  0  0  0  0  0
   -0.9905    4.3959   10.7172 O   0  0  0  0  0  0  0  0  0  0  0  0
   -0.6804    2.3507    9.5825 C   0  0  0  0  0  0  0  0  0  0  0  0
   -0.7417    2.9295    8.3292 C   0  0  0  0  0  0  0  0  0  0  0  0
   -0.6523    2.1445    7.1878 C   0  0  0  0  0  0  0  0  0  0  0  0
   -0.4907    0.7693    7.2626 C   0  0  0  0  0  0  0  0  0  0  0  0
   -0.3251    0.1555    8.5417 C   0  0  0  0  0  0  0  0  0  0  0  0
    0.0235   -1.1985    8.7170 C   0  0  0  0  0  0  0  0  0  0  0  0
    0.1434   -1.7452    9.9701 C   0  0  0  0  0  0  0  0  0  0  0  0
   -0.0690   -0.9662   11.1075 C   0  0  0  0  0  0  0  0  0  0  0  0
   -0.3488    0.3782   10.9798 C   0  0  0  0  0  0  0  0  0  0  0  0
   -0.4597    0.9638    9.7015 C   0  0  0  0  0  0  0  0  0  0  0  0
   -0.5162    1.1972   12.1927 C   0  0  0  0  0  0  0  0  0  0  0  0
   -0.4552    0.7290   13.3119 O   0  0  0  0  0  0  0  0  0  0  0  0
   -0.5072   -0.0057    6.0440 C   0  0  0  0  0  0  0  0  0  0  0  0
   -1.0329   -1.2489    5.8022 C   0  0  0  0  0  0  0  0  0  0  0  0
   -0.8892   -1.6704    4.4738 C   0  0  0  0  0  0  0  0  0  0  0  0
   -1.4848   -3.2422    3.9267 S   0  0  0  0  0  0  0  0  0  0  0  0
   -3.1417   -2.7678    3.3017 C   0  0  0  0  0  0  0  0  0  0  0  0
   -4.0963   -2.3668    4.4055 C   0  0  0  0  0  0  0  0  0  0  0  0
   -0.2162   -0.7648    3.6667 C   0  0  0  0  0  0  0  0  0  0  0  0
    0.1636    0.6662    4.5812 S   0  0  0  0  0  0  0  0  0  0  0  0
    0.0847   -0.8745    2.2851 C   0  0  0  0  0  0  0  0  0  0  0  0
    0.7593    0.0250    1.4616 C   0  0  0  0  0  0  0  0  0  0  0  0
    1.3786    1.2115    1.8357 N   0  0  0  0  0  0  0  0  0  0  0  0
    1.2304    2.2650    0.9125 C   0  0  0  0  0  0  0  0  0  0  0  0
   -0.0443    2.5652    0.4391 C   0  0  0  0  0  0  0  0  0  0  0  0
   -0.2270    3.4932   -0.5659 C   0  0  0  0  0  0  0  0  0  0  0  0
    0.8707    4.1470   -1.1065 C   0  0  0  0  0  0  0  0  0  0  0  0
    0.7730    5.2892   -2.4497 S   0  0  0  0  0  0  0  0  0  0  0  0
   -1.0081    5.5800   -2.6473 C   0  0  0  0  0  0  0  0  0  0  0  0
    2.1433    3.8859   -0.6027 C   0  0  0  0  0  0  0  0  0  0  0  0
    2.3257    2.9538    0.3947 C   0  0  0  0  0  0  0  0  0  0  0  0
    2.3630    1.2543    2.8239 C   0  0  0  0  0  0  0  0  0  0  0  0
    3.0293    0.0989    3.2362 C   0  0  0  0  0  0  0  0  0  0  0  0
    3.9576    0.1572    4.2507 C   0  0  0  0  0  0  0  0  0  0  0  0
    4.2546    1.3679    4.8732 C   0  0  0  0  0  0  0  0  0  0  0  0
    5.4485    1.3103    6.1717 S   0  0  0  0  0  0  0  0  0  0  0  0
    5.5963    3.0364    6.7122 C   0  0  0  0  0  0  0  0  0  0  0  0
    3.6090    2.5236    4.4535 C   0  0  0  0  0  0  0  0  0  0  0  0
    2.6710    2.4645    3.4431 C   0  0  0  0  0  0  0  0  0  0  0  0
    0.6975   -0.3813    0.1081 C   0  0  0  0  0  0  0  0  0  0  0  0
    1.2282    0.3054   -1.3816 S   0  0  0  0  0  0  0  0  0  0  0  0
    0.5038   -1.0116   -2.2937 C   0  0  0  0  0  0  0  0  0  0  0  0
   -0.0791   -1.9591   -1.4591 C   0  0  0  0  0  0  0  0  0  0  0  0
   -0.8488   -3.0735   -1.8174 N   0  0  0  0  0  0  0  0  0  0  0  0
   -2.1066   -3.1401   -1.2046 C   0  0  0  0  0  0  0  0  0  0  0  0
   -2.6088   -4.3246   -0.6712 C   0  0  0  0  0  0  0  0  0  0  0  0
   -3.8243   -4.3459   -0.0157 C   0  0  0  0  0  0  0  0  0  0  0  0
   -4.5594   -3.1780    0.1314 C   0  0  0  0  0  0  0  0  0  0  0  0
   -6.0905   -3.0661    1.0065 S   0  0  0  0  0  0  0  0  0  0  0  0
   -6.4110   -4.7648    1.5591 C   0  0  0  0  0  0  0  0  0  0  0  0
   -4.0721   -1.9928   -0.4163 C   0  0  0  0  0  0  0  0  0  0  0  0
   -2.8673   -1.9739   -1.0800 C   0  0  0  0  0  0  0  0  0  0  0  0
   -0.2379   -4.2340   -2.3051 C   0  0  0  0  0  0  0  0  0  0  0  0
   -0.9509   -5.0981   -3.1366 C   0  0  0  0  0  0  0  0  0  0  0  0
   -0.3426   -6.2193   -3.6525 C   0  0  0  0  0  0  0  0  0  0  0  0
    0.9882   -6.5044   -3.3507 C   0  0  0  0  0  0  0  0  0  0  0  0
    1.6650   -7.9523   -4.1040 S   0  0  0  0  0  0  0  0  0  0  0  0
    3.3978   -7.9585   -3.5643 C   0  0  0  0  0  0  0  0  0  0  0  0
    1.6927   -5.6606   -2.5043 C   0  0  0  0  0  0  0  0  0  0  0  0
    1.0803   -4.5384   -1.9824 C   0  0  0  0  0  0  0  0  0  0  0  0
    0.0262   -1.5696   -0.1031 C   0  0  0  0  0  0  0  0  0  0  0  0
   -0.5269   -2.2620    1.3827 S   0  0  0  0  0  0  0  0  0  0  0  0
    0.4984   -0.8428   -3.7201 C   0  0  0  0  0  0  0  0  0  0  0  0
    0.3584    0.4491   -4.2699 C   0  0  0  0  0  0  0  0  0  0  0  0
    0.3210    0.7002   -5.6989 C   0  0  0  0  0  0  0  0  0  0  0  0
    0.1670    2.0055   -5.9623 N   0  0  0  0  0  0  0  0  0  0  0  0
    0.0847    2.8142   -4.5861 S   0  0  0  0  0  4  0  0  0  0  0  0
    0.2205    1.5826   -3.5723 N   0  0  0  0  0  0  0  0  0  0  0  0
    0.4004   -0.3265   -6.6487 C   0  0  0  0  0  0  0  0  0  0  0  0
    0.5897   -1.6060   -6.1097 C   0  0  0  0  0  0  0  0  0  0  0  0
    0.8188   -2.7247   -6.8125 N   0  0  0  0  0  0  0  0  0  0  0  0
    1.0955   -3.9344   -5.8031 S   0  0  0  0  0  0  0  0  0  0  0  0
    0.9493   -3.1353   -4.4268 N   0  0  0  0  0  0  0  0  0  0  0  0
    0.6563   -1.8585   -4.6786 C   0  0  0  0  0  0  0  0  0  0  0  0
    0.4001   -0.0654   -8.0845 C   0  0  0  0  0  0  0  0  0  0  0  0
    1.2061    0.9431   -8.5810 C   0  0  0  0  0  0  0  0  0  0  0  0
    1.3288    1.1631   -9.9485 C   0  0  0  0  0  0  0  0  0  0  0  0
    0.6452    0.3706  -10.8493 C   0  0  0  0  0  0  0  0  0  0  0  0
    0.8214    0.5918  -12.2921 C   0  0  0  0  0  0  0  0  0  0  0  0
    1.5585    1.4467  -12.7418 O   0  0  0  0  0  0  0  0  0  0  0  0
    0.1021   -0.2387  -13.1365 N   0  0  0  0  0  0  0  0  0  0  0  0
    0.2698   -0.0303  -14.5712 C   0  0  0  0  0  0  0  0  0  0  0  0
   -0.7233    0.9988  -15.0957 C   0  0  0  0  0  0  0  0  0  0  0  0
   -0.7972   -1.2149  -12.7431 C   0  0  0  0  0  0  0  0  0  0  0  0
   -1.4032   -1.8705  -13.5672 O   0  0  0  0  0  0  0  0  0  0  0  0
   -0.9639   -1.4111  -11.2930 C   0  0  0  0  0  0  0  0  0  0  0  0
   -1.8568   -2.3577  -10.8367 C   0  0  0  0  0  0  0  0  0  0  0  0
   -2.0552   -2.5284   -9.4662 C   0  0  0  0  0  0  0  0  0  0  0  0
   -1.3394   -1.7879   -8.5603 C   0  0  0  0  0  0  0  0  0  0  0  0
   -0.3796   -0.8476   -8.9840 C   0  0  0  0  0  0  0  0  0  0  0  0
   -0.2260   -0.6320  -10.3779 C   0  0  0  0  0  0  0  0  0  0  0  0
    1.1087    3.0438   13.9132 H   0  0  0  0  0  0  0  0  0  0  0  0
    0.9226    4.4856   12.8979 H   0  0  0  0  0  0  0  0  0  0  0  0
    0.3276    4.4903   14.5626 H   0  0  0  0  0  0  0  0  0  0  0  0
   -1.5499    4.2070   12.9414 H   0  0  0  0  0  0  0  0  0  0  0  0
   -1.3607    2.7511   13.9671 H   0  0  0  0  0  0  0  0  0  0  0  0
   -0.8850    3.9970    8.2573 H   0  0  0  0  0  0  0  0  0  0  0  0
   -0.7404    2.6070    6.2153 H   0  0  0  0  0  0  0  0  0  0  0  0
    0.2303   -1.8059    7.8504 H   0  0  0  0  0  0  0  0  0  0  0  0
    0.4131   -2.7846   10.0799 H   0  0  0  0  0  0  0  0  0  0  0  0
    0.0088   -1.3894   12.0975 H   0  0  0  0  0  0  0  0  0  0  0  0
   -1.5504   -1.8398    6.5357 H   0  0  0  0  0  0  0  0  0  0  0  0
   -3.0082   -1.9689    2.5732 H   0  0  0  0  0  0  0  0  0  0  0  0
   -3.4822   -3.6614    2.7818 H   0  0  0  0  0  0  0  0  0  0  0  0
   -3.7396   -1.4761    4.9191 H   0  0  0  0  0  0  0  0  0  0  0  0
   -4.2005   -3.1695    5.1320 H   0  0  0  0  0  0  0  0  0  0  0  0
   -5.0728   -2.1511    3.9761 H   0  0  0  0  0  0  0  0  0  0  0  0
   -0.8969    2.0428    0.8483 H   0  0  0  0  0  0  0  0  0  0  0  0
   -1.2249    3.6835   -0.9248 H   0  0  0  0  0  0  0  0  0  0  0  0
   -1.0962    6.3485   -3.4089 H   0  0  0  0  0  0  0  0  0  0  0  0
   -1.5044    4.6730   -2.9816 H   0  0  0  0  0  0  0  0  0  0  0  0
   -1.4265    5.9387   -1.7117 H   0  0  0  0  0  0  0  0  0  0  0  0
    2.9905    4.4055   -1.0232 H   0  0  0  0  0  0  0  0  0  0  0  0
    3.3181    2.7331    0.7577 H   0  0  0  0  0  0  0  0  0  0  0  0
    2.8145   -0.8455    2.7591 H   0  0  0  0  0  0  0  0  0  0  0  0
    4.4683   -0.7374    4.5725 H   0  0  0  0  0  0  0  0  0  0  0  0
    6.3386    3.0307    7.5043 H   0  0  0  0  0  0  0  0  0  0  0  0
    5.9414    3.6551    5.8889 H   0  0  0  0  0  0  0  0  0  0  0  0
    4.6451    3.3877    7.1016 H   0  0  0  0  0  0  0  0  0  0  0  0
    3.8160    3.4764    4.9128 H   0  0  0  0  0  0  0  0  0  0  0  0
    2.1577    3.3633    3.1365 H   0  0  0  0  0  0  0  0  0  0  0  0
   -2.0324   -5.2338   -0.7465 H   0  0  0  0  0  0  0  0  0  0  0  0
   -4.1736   -5.2808    0.3922 H   0  0  0  0  0  0  0  0  0  0  0  0
   -7.3555   -4.7238    2.0928 H   0  0  0  0  0  0  0  0  0  0  0  0
   -5.6239   -5.0952    2.2308 H   0  0  0  0  0  0  0  0  0  0  0  0
   -6.5014   -5.4241    0.7008 H   0  0  0  0  0  0  0  0  0  0  0  0
   -4.6528   -1.0889   -0.3111 H   0  0  0  0  0  0  0  0  0  0  0  0
   -2.4979   -1.0500   -1.5007 H   0  0  0  0  0  0  0  0  0  0  0  0
   -1.9764   -4.8706   -3.3873 H   0  0  0  0  0  0  0  0  0  0  0  0
   -0.8855   -6.8845   -4.3068 H   0  0  0  0  0  0  0  0  0  0  0  0
    3.8922   -7.0496   -3.8947 H   0  0  0  0  0  0  0  0  0  0  0  0
    3.4520   -8.0694   -2.4852 H   0  0  0  0  0  0  0  0  0  0  0  0
    3.8499   -8.8204   -4.0451 H   0  0  0  0  0  0  0  0  0  0  0  0
    2.7171   -5.8645   -2.2385 H   0  0  0  0  0  0  0  0  0  0  0  0
    1.6351   -3.8814   -1.3295 H   0  0  0  0  0  0  0  0  0  0  0  0
    1.7732    1.5502   -7.8928 H   0  0  0  0  0  0  0  0  0  0  0  0
    1.9759    1.9399  -10.3271 H   0  0  0  0  0  0  0  0  0  0  0  0
    1.2930    0.3135  -14.7328 H   0  0  0  0  0  0  0  0  0  0  0  0
    0.1128   -0.9932  -15.0605 H   0  0  0  0  0  0  0  0  0  0  0  0
   -1.7417    0.6596  -14.9201 H   0  0  0  0  0  0  0  0  0  0  0  0
   -0.5726    1.9527  -14.5956 H   0  0  0  0  0  0  0  0  0  0  0  0
   -0.5792    1.1363  -16.1636 H   0  0  0  0  0  0  0  0  0  0  0  0
   -2.4080   -2.9425  -11.5577 H   0  0  0  0  0  0  0  0  0  0  0  0
   -2.7844   -3.2459   -9.1209 H   0  0  0  0  0  0  0  0  0  0  0  0
   -1.5251   -1.9123   -7.5053 H   0  0  0  0  0  0  0  0  0  0  0  0
  1  2  1  0  0  0  0
  2  3  1  0  0  0  0
  3  4  1  0  0  0  0
  4  5  2  0  0  0  0
  4  6  1  0  0  0  0
  6  7  1  0  0  0  0
  7  8  2  0  0  0  0
  8  9  1  0  0  0  0
  9 10  2  0  0  0  0
 10 11  1  0  0  0  0
 11 12  2  0  0  0  0
 12 13  1  0  0  0  0
 13 14  2  0  0  0  0
 14 15  1  0  0  0  0
 14 16  1  0  0  0  0
 16 17  2  0  0  0  0
  9 18  1  0  0  0  0
 18 19  2  0  0  0  0
 19 20  1  0  0  0  0
 20 21  1  0  0  0  0
 21 22  1  0  0  0  0
 22 23  1  0  0  0  0
 20 24  2  0  0  0  0
 24 25  1  0  0  0  0
 24 26  1  0  0  0  0
 26 27  2  0  0  0  0
 27 28  1  0  0  0  0
 28 29  1  0  0  0  0
 29 30  2  0  0  0  0
 30 31  1  0  0  0  0
 31 32  2  0  0  0  0
 32 33  1  0  0  0  0
 33 34  1  0  0  0  0
 32 35  1  0  0  0  0
 35 36  2  0  0  0  0
 28 37  1  0  0  0  0
 37 38  2  0  0  0  0
 38 39  1  0  0  0  0
 39 40  2  0  0  0  0
 40 41  1  0  0  0  0
 41 42  1  0  0  0  0
 40 43  1  0  0  0  0
 43 44  2  0  0  0  0
 27 45  1  0  0  0  0
 45 46  1  0  0  0  0
 46 47  1  0  0  0  0
 47 48  2  0  0  0  0
 48 49  1  0  0  0  0
 49 50  1  0  0  0  0
 50 51  2  0  0  0  0
 51 52  1  0  0  0  0
 52 53  2  0  0  0  0
 53 54  1  0  0  0  0
 54 55  1  0  0  0  0
 53 56  1  0  0  0  0
 56 57  2  0  0  0  0
 49 58  1  0  0  0  0
 58 59  2  0  0  0  0
 59 60  1  0  0  0  0
 60 61  2  0  0  0  0
 61 62  1  0  0  0  0
 62 63  1  0  0  0  0
 61 64  1  0  0  0  0
 64 65  2  0  0  0  0
 48 66  1  0  0  0  0
 66 67  1  0  0  0  0
 47 68  1  0  0  0  0
 68 69  2  0  0  0  0
 69 70  1  0  0  0  0
 70 71  1  0  0  0  0
 71 72  2  0  0  0  0
 72 73  2  0  0  0  0
 70 74  2  0  0  0  0
 74 75  1  0  0  0  0
 75 76  2  0  0  0  0
 76 77  1  0  0  0  0
 77 78  1  0  0  0  0
 78 79  2  0  0  0  0
 74 80  1  0  0  0  0
 80 81  2  0  0  0  0
 81 82  1  0  0  0  0
 82 83  2  0  0  0  0
 83 84  1  0  0  0  0
 84 85  2  0  0  0  0
 84 86  1  0  0  0  0
 86 87  1  0  0  0  0
 87 88  1  0  0  0  0
 86 89  1  0  0  0  0
 89 90  2  0  0  0  0
 89 91  1  0  0  0  0
 91 92  1  0  0  0  0
 92 93  2  0  0  0  0
 93 94  1  0  0  0  0
 94 95  2  0  0  0  0
 95 96  1  0  0  0  0
 16  3  1  0  0  0  0
 25 18  1  0  0  0  0
 67 26  1  0  0  0  0
 79 68  1  0  0  0  0
 95 80  1  0  0  0  0
 15  6  2  0  0  0  0
 36 29  1  0  0  0  0
 44 37  1  0  0  0  0
 66 45  2  0  0  0  0
 73 69  1  0  0  0  0
 79 75  1  0  0  0  0
 96 83  1  0  0  0  0
 15 10  1  0  0  0  0
 57 50  1  0  0  0  0
 65 58  1  0  0  0  0
 96 91  2  0  0  0  0
  1 97  1  0  0  0  0
  1 98  1  0  0  0  0
  1 99  1  0  0  0  0
  2100  1  0  0  0  0
  2101  1  0  0  0  0
  7102  1  0  0  0  0
  8103  1  0  0  0  0
 11104  1  0  0  0  0
 12105  1  0  0  0  0
 13106  1  0  0  0  0
 19107  1  0  0  0  0
 22108  1  0  0  0  0
 22109  1  0  0  0  0
 23110  1  0  0  0  0
 23111  1  0  0  0  0
 23112  1  0  0  0  0
 30113  1  0  0  0  0
 31114  1  0  0  0  0
 34115  1  0  0  0  0
 34116  1  0  0  0  0
 34117  1  0  0  0  0
 35118  1  0  0  0  0
 36119  1  0  0  0  0
 38120  1  0  0  0  0
 39121  1  0  0  0  0
 42122  1  0  0  0  0
 42123  1  0  0  0  0
 42124  1  0  0  0  0
 43125  1  0  0  0  0
 44126  1  0  0  0  0
 51127  1  0  0  0  0
 52128  1  0  0  0  0
 55129  1  0  0  0  0
 55130  1  0  0  0  0
 55131  1  0  0  0  0
 56132  1  0  0  0  0
 57133  1  0  0  0  0
 59134  1  0  0  0  0
 60135  1  0  0  0  0
 63136  1  0  0  0  0
 63137  1  0  0  0  0
 63138  1  0  0  0  0
 64139  1  0  0  0  0
 65140  1  0  0  0  0
 81141  1  0  0  0  0
 82142  1  0  0  0  0
 87143  1  0  0  0  0
 87144  1  0  0  0  0
 88145  1  0  0  0  0
 88146  1  0  0  0  0
 88147  1  0  0  0  0
 92148  1  0  0  0  0
 93149  1  0  0  0  0
 94150  1  0  0  0  0
M  END
