184

C         15.73860       -1.55400        7.74970
C         15.13750       -2.21550        6.51650
N         13.96160       -1.48830        6.04820
C         12.74530       -1.83510        6.61080
O         12.67470       -2.70500        7.45590
C         11.56490       -1.10730        6.12010
C         10.31900       -1.40820        6.63340
C          9.18430       -0.78090        6.13340
C          9.26580        0.16360        5.12390
C         10.54800        0.57600        4.65180
C         10.74500        1.64940        3.75930
C         11.99730        1.97600        3.30430
C         13.11490        1.25460        3.72710
C         12.97300        0.23820        4.64860
C         11.69550       -0.10330        5.13950
C         14.16900       -0.48430        5.11700
O         15.28540       -0.23440        4.71030
C          8.04200        0.65370        4.52320
C          7.80350        0.90750        3.20730
C          6.45840        1.26220        2.92280
C          5.89080        1.53650        1.66650
C          6.74240        1.66770        0.47900
C          6.44440        1.03640       -0.72430
C          7.26040        1.17280       -1.83020
C          8.41660        1.94910       -1.77150
O          9.27710        2.17780       -2.77980
C          9.11350        1.52940       -4.02920
C          9.58470        0.07990       -3.99550
C          8.71960        2.58200       -0.55290
C          9.97410        3.40190       -0.46920
F          9.97480        4.45460       -1.30090
F         11.07730        2.68780       -0.75370
F         10.17860        3.90330        0.76370
C          7.89210        2.45030        0.54510
C          4.51340        1.68840        1.63080
C          3.69860        1.63770        2.79190
C          4.27870        1.43780        4.05540
C          3.46730        1.42460        5.27920
C          3.82530        2.20980        6.37120
C          3.06080        2.23850        7.52040
C          1.90060        1.47310        7.61620
O          1.06960        1.43810        8.67220
C          1.36230        2.21510        9.82220
C          0.25920        1.95650       10.83470
C          1.55190        0.66320        6.52120
C          2.32260        0.63910        5.37370
C          0.30470       -0.16250        6.62530
F          0.09650       -0.93570        5.54330
F          0.30260       -0.99640        7.67540
F         -0.80720        0.59240        6.74060
C          5.65180        1.24440        4.08500
S          6.59440        0.84330        5.49670
C          2.32560        1.80020        2.48010
C          2.07630        1.94120        1.14850
S          3.55360        1.96020        0.20140
C          0.79350        1.92140        0.50400
C         -0.36410        1.52000        1.20850
N         -0.58050        1.22500        2.50100
N         -1.82840        0.84610        2.54360
C         -2.43460        0.41720        3.77530
C         -3.94200        0.31440        3.62650
N         -2.47790        0.84880        1.41740
C         -1.58450        1.27960        0.51700
C         -1.71090        1.45110       -0.87690
C         -0.58020        1.93290       -1.52200
C          0.62400        2.14950       -0.85430
C         -2.90410        1.01940       -1.55200
C         -3.21730        1.11080       -2.87720
C         -4.39840        0.41250       -3.23310
C         -4.97780        0.27930       -4.50510
C         -4.39550        0.90990       -5.69720
C         -3.05970        0.72210       -6.03790
C         -2.51480        1.31000       -7.16300
C         -3.29730        2.11320       -7.99040
O         -2.87550        2.73890       -9.10210
C         -1.52750        2.60640       -9.51890
C         -1.36760        3.42530      -10.78890
C         -4.64860        2.29530       -7.64920
C         -5.49250        3.15840       -8.54280
F         -6.76370        3.25170       -8.12010
F         -5.55450        2.69660       -9.80290
F         -5.03680        4.42090       -8.62400
C         -5.18690        1.70100       -6.52410
C         -6.12000       -0.50210       -4.58980
C         -6.71380       -1.13320       -3.46960
C         -6.16420       -0.95790       -2.18990
C         -6.78740       -1.55150       -1.00000
C         -6.04200       -2.28210       -0.07970
C         -6.62290       -2.82440        1.04960
C         -7.98320       -2.65250        1.29780
O         -8.65320       -3.13150        2.35940
C         -7.96420       -3.87400        3.35110
C         -8.98300       -4.26640        4.40800
C         -8.73660       -1.91720        0.36620
C         -8.14740       -1.37590       -0.76070
C        -10.20310       -1.73370        0.63160
F        -10.81650       -1.02340       -0.33010
F        -10.44810       -1.08730        1.78330
F        -10.86500       -2.90220        0.70360
C         -5.00130       -0.20560       -2.10780
S         -4.10010        0.11380       -0.65090
C         -7.79240       -1.97650       -3.85200
C         -8.02250       -1.99910       -5.19180
S         -6.94450       -0.92710       -6.06600
C         -9.01000       -2.76460       -5.93200
C         -9.72210       -2.14850       -6.94510
C        -10.71190       -2.82470       -7.65050
C        -11.00190       -4.14190       -7.35720
C        -12.06370       -4.83490       -8.10460
O        -12.72320       -4.28840       -8.96520
N        -12.27510       -6.16670       -7.78640
C        -13.33220       -6.86340       -8.51290
C        -14.66830       -6.73300       -7.79340
C        -11.59650       -6.88800       -6.82040
O        -11.86900       -8.05180       -6.60490
C        -10.53380       -6.17470       -6.08970
C         -9.79300       -6.85430       -5.14630
C         -8.75250       -6.20810       -4.47770
C         -8.47990       -4.88640       -4.72290
C         -9.24570       -4.14150       -5.64300
C        -10.26720       -4.81670       -6.36140
H         16.61230       -2.11190        8.07470
H         16.03920       -0.53450        7.51950
H         15.01160       -1.53930        8.55830
H         14.81900       -3.23310        6.75010
H         15.86040       -2.22420        5.69900
H         10.24150       -2.15990        7.40410
H          8.21220       -1.06350        6.51050
H          9.90000        2.24450        3.45220
H         12.12010        2.80060        2.61940
H         14.10300        1.49350        3.36440
H          8.54180        0.76340        2.43950
H          5.56810        0.41070       -0.79510
H          6.98750        0.66580       -2.74120
H          8.07330        1.60300       -4.36730
H          9.74110        2.10930       -4.71030
H          9.51660       -0.34860       -4.99140
H          8.98180       -0.51450       -3.31300
H         10.61880        0.04020       -3.66330
H          8.13100        2.97850        1.45520
H          4.70850        2.82790        6.31400
H          3.36800        2.86740        8.33990
H          2.33690        1.92030       10.23270
H          1.39520        3.27950        9.55380
H          0.22840        0.90000       11.08540
H         -0.70180        2.23990       10.41490
H          0.44200        2.53460       11.73570
H          2.04000       -0.00750        4.55780
H          1.53410        1.79660        3.20510
H         -2.00420       -0.55290        4.04520
H         -2.15600        1.13360        4.55250
H         -4.37600       -0.02470        4.56240
H         -4.36630        1.28150        3.37110
H         -4.19800       -0.38500        2.83530
H         -0.61190        2.10180       -2.58700
H          1.48070        2.47290       -1.42850
H         -2.62920        1.66140       -3.58820
H         -2.44080        0.08490       -5.42360
H         -1.47710        1.13580       -7.39770
H         -1.29870        1.54970       -9.71180
H         -0.85560        2.97940       -8.73420
H         -2.04740        3.05730      -11.55200
H         -0.34630        3.35270      -11.15090
H         -1.60580        4.46610      -10.58890
H         -6.22440        1.86870       -6.27970
H         -4.99000       -2.44430       -0.25710
H         -6.01150       -3.38630        1.73680
H         -7.51360       -4.76900        2.90160
H         -7.16960       -3.25790        3.79270
H         -9.76820       -4.86720        3.95830
H         -8.49910       -4.83730        5.19510
H         -9.43350       -3.37480        4.83470
H         -8.74520       -0.79450       -1.44580
H         -8.37860       -2.53590       -3.14520
H         -9.51810       -1.11320       -7.17610
H        -11.27280       -2.32910       -8.42820
H        -13.39090       -6.41850       -9.50770
H        -13.04070       -7.91280       -8.58490
H        -14.94860       -5.68550       -7.71040
H        -15.43780       -7.25830       -8.35200
H        -14.60130       -7.16520       -6.79760
H        -10.01920       -7.89260       -4.95670
H         -8.15290       -6.75910       -3.76890
H         -7.65070       -4.41190       -4.22170
