208

C         -0.43900       -7.48240       -3.08760
C          0.17180       -8.62200       -2.57990
C          0.69160       -8.73660       -1.21840
O          0.73680       -7.87570       -0.35050
C          1.05640      -10.16020       -1.04860
C          1.59440      -10.79780        0.05020
C          1.88220      -12.15190       -0.04390
C          1.61900      -12.82750       -1.22560
Br         2.02370      -14.68140       -1.32990
C          1.06820      -12.20240       -2.33960
C          0.78620      -10.85350       -2.24030
C          0.24660       -9.90320       -3.21350
C          0.01090      -10.16230       -4.54240
C          0.15230      -11.42660       -5.14290
N          0.25890      -12.42620       -5.69910
C         -0.31000       -9.16800       -5.48620
N         -0.51020       -8.40550       -6.32250
C         -0.20670       -6.18670       -2.65430
C          0.89260       -5.63040       -1.94890
N          2.13590       -6.15440       -1.85120
C          3.07830       -5.56230       -0.96000
C          4.02070       -4.66910       -1.46040
C          4.93140       -4.08740       -0.60710
C          4.93370       -4.41000        0.75010
S          6.13250       -3.58670        1.74090
C          5.86110       -4.23260        3.41280
C          4.01910       -5.33560        1.23690
C          3.08600       -5.89800        0.38450
C          2.61450       -7.20530       -2.65010
C          3.37250       -8.22460       -2.07210
C          3.77850       -9.30050       -2.82960
C          3.45750       -9.37710       -4.18470
S          3.93280      -10.84730       -5.02140
C          3.36250      -10.60220       -6.72520
C          2.78010       -8.31740       -4.78140
C          2.36110       -7.24720       -4.01910
C          0.54980       -4.35550       -1.44840
S          1.29900       -3.25760       -0.34010
C         -0.06880       -2.16380       -0.45570
C         -1.04500       -2.62970       -1.32820
N         -2.24170       -1.98770       -1.62580
C         -2.55420       -1.74880       -2.97350
C         -3.86190       -1.91160       -3.43140
C         -4.18160       -1.60150       -4.73350
C         -3.20470       -1.12690       -5.60910
S         -3.74390       -0.70050       -7.23430
C         -2.35330        0.25030       -7.90910
C         -1.89370       -1.00930       -5.16880
C         -1.57350       -1.31810       -3.86050
C         -3.06420       -1.48730       -0.61660
C         -3.79530       -0.31740       -0.82410
C         -4.56500        0.21500        0.18230
C         -4.62920       -0.40970        1.42650
S         -5.60040        0.40390        2.65880
C         -5.51640       -0.70600        4.09000
C         -3.93880       -1.59660        1.62480
C         -3.16690       -2.13230        0.61030
C         -0.68750       -3.88110       -1.86770
S         -1.49950       -4.99230       -2.90440
C         -0.02930       -0.91650        0.22830
C          0.57420       -0.63380        1.44570
N          1.16620       -1.56190        2.29070
C          2.44590       -1.29720        2.79500
C          3.39520       -0.64870        2.01130
C          4.67220       -0.42740        2.48870
C          5.02310       -0.86100        3.75910
S          6.63680       -0.69170        4.45350
C          7.65910       -0.17870        3.04510
C          4.06590       -1.48470        4.55850
C          2.79140       -1.69820        4.08580
C          0.52830       -2.77110        2.58740
C          1.25910       -3.95400        2.66970
C          0.62830       -5.16090        2.88730
C         -0.75250       -5.20790        3.02660
S         -1.66320       -6.70240        3.25010
C         -0.50410       -7.99190        2.71340
C         -1.47940       -4.01960        3.00520
C         -0.84900       -2.81340        2.78910
C          0.49750        0.74600        1.74060
S          0.97560        1.68380        3.10490
C          0.28410        3.11790        2.36680
C         -0.18230        2.89420        1.06980
N         -0.48860        3.87930        0.16620
C         -1.17370        3.58460       -1.02830
C         -0.62170        3.99520       -2.24250
C         -1.26260        3.71310       -3.42620
C         -2.48950        3.04940       -3.42160
S         -3.19910        2.70760       -4.99890
C         -4.78260        1.90890       -4.62320
C         -3.06660        2.69200       -2.21180
C         -2.39980        2.93110       -1.02280
C         -0.04750        5.20670        0.32830
C          1.25290        5.50210        0.73110
C          1.64380        6.80770        0.94790
C          0.74080        7.84530        0.75240
S          1.14170        9.53790        1.06710
C          2.92770        9.58360        0.73460
C         -0.54460        7.56060        0.30250
C         -0.93160        6.25610        0.08350
C         -0.10960        1.51330        0.75640
S         -0.66510        0.52780       -0.55340
C          0.19710        4.34930        3.09170
C          1.19820        4.82330        3.92860
F          2.27940        4.05840        4.16590
C          1.16720        6.10520        4.48040
F          2.14980        6.44890        5.31930
C          0.12520        6.98620        4.21700
C         -1.00240        6.45570        3.52110
N         -2.09190        7.22290        3.37030
C         -3.16470        6.72280        2.81160
C         -4.34870        7.63220        2.69370
C         -4.10840        8.99190        3.33660
C         -3.18570        5.36050        2.38750
N         -2.09980        4.62830        2.45360
C         -0.98200        5.15070        2.98610
C         -4.42310        4.66840        1.89830
C         -4.79220        5.02870        0.45810
C          0.05260        8.35330        4.62670
C          1.06650        9.25490        4.69520
C          2.42460        9.08190        4.12440
O          2.88340        8.11890        3.54750
C          3.08960       10.39070        4.28950
C          4.37230       10.75750        3.92730
C          4.78210       12.05960        4.16320
C          3.89970       12.96020        4.74560
Br         4.48050       14.74400        5.04780
C          2.60780       12.60870        5.11620
C          2.20330       11.30370        4.88590
C          0.93810       10.62590        5.15940
C         -0.14540       11.18150        5.78290
C         -1.35330       10.51590        6.08770
N         -2.36500       10.06280        6.38730
C         -0.20140       12.52020        6.22880
N         -0.31100       13.59680        6.61070
H         -1.21340       -7.60510       -3.83560
H          1.79220      -10.25060        0.95920
H          2.31060      -12.68190        0.79280
H          0.87480      -12.76650       -3.23750
H          4.02330       -4.42670       -2.51260
H          5.65530       -3.37860       -0.97800
H          6.57380       -3.71120        4.04470
H          6.05790       -5.30040        3.43470
H          4.85170       -3.99960        3.73950
H          4.02670       -5.62950        2.27450
H          2.35290       -6.60200        0.74650
H          3.61760       -8.17920       -1.02230
H          4.33530      -10.10690       -2.37760
H          3.87870       -9.75760       -7.17220
H          2.28520      -10.46820       -6.74780
H          3.62420      -11.51630       -7.24900
H          2.55960       -8.31960       -5.83630
H          1.82030       -6.44220       -4.49330
H         -4.62220       -2.26770       -2.75260
H         -5.19360       -1.71760       -5.09080
H         -2.09920        1.05360       -7.22350
H         -1.50540       -0.40260       -8.09470
H         -2.70990        0.66260       -8.84780
H         -1.11530       -0.66250       -5.82850
H         -0.55700       -1.20010       -3.51390
H         -3.72570        0.17110       -1.78120
H         -5.12080        1.12740        0.02620
H         -5.93200       -1.67570        3.83160
H         -4.49010       -0.79320        4.43520
H         -6.12400       -0.23810        4.85860
H         -3.99690       -2.12080        2.56500
H         -2.63580       -3.05800        0.77100
H          3.13530       -0.33270        1.01150
H          5.38680        0.06880        1.85300
H          7.53910       -0.89010        2.23310
H          7.39410        0.82870        2.73760
H          8.68290       -0.19420        3.40570
H          4.33870       -1.79740        5.55510
H          2.05430       -2.18330        4.70810
H          2.32820       -3.91890        2.53150
H          1.21830       -6.06120        2.93440
H         -0.12100       -7.75490        1.72410
H         -1.08770       -8.90700        2.67380
H          0.29670       -8.10290        3.43970
H         -2.54720       -4.06320        3.15730
H         -1.41530       -1.89460        2.76070
H          0.32030        4.52310       -2.24550
H         -0.82550        4.00380       -4.36900
H         -5.42050        2.59240       -4.07050
H         -4.61430        0.98450       -4.07810
H         -5.22840        1.68330       -5.58720
H         -4.04400        2.24090       -2.18010
H         -2.83530        2.62290       -0.08460
H          1.96210        4.70230        0.88390
H          2.64490        7.00540        1.29230
H          3.11790        9.14780       -0.24140
H          3.46460        9.05190        1.51390
H          3.20530       10.63300        0.73870
H         -1.23730        8.37100        0.13650
H         -1.93060        6.03920       -0.26330
H         -5.21330        7.14620        3.15440
H         -4.58150        7.76760        1.63410
H         -3.88650        8.88300        4.39430
H         -3.26430        9.48690        2.86430
H         -4.99050        9.61710        3.22580
H         -5.25860        4.91850        2.55540
H         -4.24550        3.59350        1.96280
H         -5.02420        6.08530        0.35770
H         -3.97650        4.78610       -0.21860
H         -5.66800        4.45910        0.15660
H         -0.96060        8.69180        4.79980
H          5.04060       10.03800        3.47980
H          5.77830       12.37980        3.89990
H          1.95680       13.34200        5.56330
