
  xtb     02092205423D
 energy: -358.612964703713 gnorm: 0.000422333338 xtb: 6.4.1 (unknown)
208225  0     0  0            999 V2000
   -0.4390   -7.4824   -3.0876 C   0  0  0  0  0  0  0  0  0  0  0  0
    0.1718   -8.6220   -2.5799 C   0  0  0  0  0  0  0  0  0  0  0  0
    0.6916   -8.7366   -1.2184 C   0  0  0  0  0  0  0  0  0  0  0  0
    0.7368   -7.8757   -0.3505 O   0  0  0  0  0  0  0  0  0  0  0  0
    1.0564  -10.1602   -1.0486 C   0  0  0  0  0  0  0  0  0  0  0  0
    1.5944  -10.7978    0.0502 C   0  0  0  0  0  0  0  0  0  0  0  0
    1.8822  -12.1519   -0.0439 C   0  0  0  0  0  0  0  0  0  0  0  0
    1.6190  -12.8275   -1.2256 C   0  0  0  0  0  0  0  0  0  0  0  0
    2.0237  -14.6814   -1.3299 Br  0  0  0  0  0  0  0  0  0  0  0  0
    1.0682  -12.2024   -2.3396 C   0  0  0  0  0  0  0  0  0  0  0  0
    0.7862  -10.8535   -2.2403 C   0  0  0  0  0  0  0  0  0  0  0  0
    0.2466   -9.9032   -3.2135 C   0  0  0  0  0  0  0  0  0  0  0  0
    0.0109  -10.1623   -4.5424 C   0  0  0  0  0  0  0  0  0  0  0  0
    0.1523  -11.4266   -5.1429 C   0  0  0  0  0  0  0  0  0  0  0  0
    0.2589  -12.4262   -5.6991 N   0  0  0  0  0  0  0  0  0  0  0  0
   -0.3100   -9.1680   -5.4862 C   0  0  0  0  0  0  0  0  0  0  0  0
   -0.5102   -8.4055   -6.3225 N   0  0  0  0  0  0  0  0  0  0  0  0
   -0.2067   -6.1867   -2.6543 C   0  0  0  0  0  0  0  0  0  0  0  0
    0.8926   -5.6304   -1.9489 C   0  0  0  0  0  0  0  0  0  0  0  0
    2.1359   -6.1544   -1.8512 N   0  0  0  0  0  0  0  0  0  0  0  0
    3.0783   -5.5623   -0.9600 C   0  0  0  0  0  0  0  0  0  0  0  0
    4.0207   -4.6691   -1.4604 C   0  0  0  0  0  0  0  0  0  0  0  0
    4.9314   -4.0874   -0.6071 C   0  0  0  0  0  0  0  0  0  0  0  0
    4.9337   -4.4100    0.7501 C   0  0  0  0  0  0  0  0  0  0  0  0
    6.1325   -3.5867    1.7409 S   0  0  0  0  0  0  0  0  0  0  0  0
    5.8611   -4.2326    3.4128 C   0  0  0  0  0  0  0  0  0  0  0  0
    4.0191   -5.3356    1.2369 C   0  0  0  0  0  0  0  0  0  0  0  0
    3.0860   -5.8980    0.3845 C   0  0  0  0  0  0  0  0  0  0  0  0
    2.6145   -7.2053   -2.6501 C   0  0  0  0  0  0  0  0  0  0  0  0
    3.3725   -8.2246   -2.0721 C   0  0  0  0  0  0  0  0  0  0  0  0
    3.7785   -9.3005   -2.8296 C   0  0  0  0  0  0  0  0  0  0  0  0
    3.4575   -9.3771   -4.1847 C   0  0  0  0  0  0  0  0  0  0  0  0
    3.9328  -10.8473   -5.0214 S   0  0  0  0  0  0  0  0  0  0  0  0
    3.3625  -10.6022   -6.7252 C   0  0  0  0  0  0  0  0  0  0  0  0
    2.7801   -8.3174   -4.7814 C   0  0  0  0  0  0  0  0  0  0  0  0
    2.3611   -7.2472   -4.0191 C   0  0  0  0  0  0  0  0  0  0  0  0
    0.5498   -4.3555   -1.4484 C   0  0  0  0  0  0  0  0  0  0  0  0
    1.2990   -3.2576   -0.3401 S   0  0  0  0  0  0  0  0  0  0  0  0
   -0.0688   -2.1638   -0.4557 C   0  0  0  0  0  0  0  0  0  0  0  0
   -1.0450   -2.6297   -1.3282 C   0  0  0  0  0  0  0  0  0  0  0  0
   -2.2417   -1.9877   -1.6258 N   0  0  0  0  0  0  0  0  0  0  0  0
   -2.5542   -1.7488   -2.9735 C   0  0  0  0  0  0  0  0  0  0  0  0
   -3.8619   -1.9116   -3.4314 C   0  0  0  0  0  0  0  0  0  0  0  0
   -4.1816   -1.6015   -4.7335 C   0  0  0  0  0  0  0  0  0  0  0  0
   -3.2047   -1.1269   -5.6091 C   0  0  0  0  0  0  0  0  0  0  0  0
   -3.7439   -0.7005   -7.2343 S   0  0  0  0  0  0  0  0  0  0  0  0
   -2.3533    0.2503   -7.9091 C   0  0  0  0  0  0  0  0  0  0  0  0
   -1.8937   -1.0093   -5.1688 C   0  0  0  0  0  0  0  0  0  0  0  0
   -1.5735   -1.3181   -3.8605 C   0  0  0  0  0  0  0  0  0  0  0  0
   -3.0642   -1.4873   -0.6166 C   0  0  0  0  0  0  0  0  0  0  0  0
   -3.7953   -0.3174   -0.8241 C   0  0  0  0  0  0  0  0  0  0  0  0
   -4.5650    0.2150    0.1823 C   0  0  0  0  0  0  0  0  0  0  0  0
   -4.6292   -0.4097    1.4265 C   0  0  0  0  0  0  0  0  0  0  0  0
   -5.6004    0.4039    2.6588 S   0  0  0  0  0  0  0  0  0  0  0  0
   -5.5164   -0.7060    4.0900 C   0  0  0  0  0  0  0  0  0  0  0  0
   -3.9388   -1.5966    1.6248 C   0  0  0  0  0  0  0  0  0  0  0  0
   -3.1669   -2.1323    0.6103 C   0  0  0  0  0  0  0  0  0  0  0  0
   -0.6875   -3.8811   -1.8677 C   0  0  0  0  0  0  0  0  0  0  0  0
   -1.4995   -4.9923   -2.9044 S   0  0  0  0  0  0  0  0  0  0  0  0
   -0.0293   -0.9165    0.2283 C   0  0  0  0  0  0  0  0  0  0  0  0
    0.5742   -0.6338    1.4457 C   0  0  0  0  0  0  0  0  0  0  0  0
    1.1662   -1.5619    2.2907 N   0  0  0  0  0  0  0  0  0  0  0  0
    2.4459   -1.2972    2.7950 C   0  0  0  0  0  0  0  0  0  0  0  0
    3.3952   -0.6487    2.0113 C   0  0  0  0  0  0  0  0  0  0  0  0
    4.6722   -0.4274    2.4887 C   0  0  0  0  0  0  0  0  0  0  0  0
    5.0231   -0.8610    3.7591 C   0  0  0  0  0  0  0  0  0  0  0  0
    6.6368   -0.6917    4.4535 S   0  0  0  0  0  0  0  0  0  0  0  0
    7.6591   -0.1787    3.0451 C   0  0  0  0  0  0  0  0  0  0  0  0
    4.0659   -1.4847    4.5585 C   0  0  0  0  0  0  0  0  0  0  0  0
    2.7914   -1.6982    4.0858 C   0  0  0  0  0  0  0  0  0  0  0  0
    0.5283   -2.7711    2.5874 C   0  0  0  0  0  0  0  0  0  0  0  0
    1.2591   -3.9540    2.6697 C   0  0  0  0  0  0  0  0  0  0  0  0
    0.6283   -5.1609    2.8873 C   0  0  0  0  0  0  0  0  0  0  0  0
   -0.7525   -5.2079    3.0266 C   0  0  0  0  0  0  0  0  0  0  0  0
   -1.6632   -6.7024    3.2501 S   0  0  0  0  0  0  0  0  0  0  0  0
   -0.5041   -7.9919    2.7134 C   0  0  0  0  0  0  0  0  0  0  0  0
   -1.4794   -4.0196    3.0052 C   0  0  0  0  0  0  0  0  0  0  0  0
   -0.8490   -2.8134    2.7891 C   0  0  0  0  0  0  0  0  0  0  0  0
    0.4975    0.7460    1.7406 C   0  0  0  0  0  0  0  0  0  0  0  0
    0.9756    1.6838    3.1049 S   0  0  0  0  0  0  0  0  0  0  0  0
    0.2841    3.1179    2.3668 C   0  0  0  0  0  0  0  0  0  0  0  0
   -0.1823    2.8942    1.0698 C   0  0  0  0  0  0  0  0  0  0  0  0
   -0.4886    3.8793    0.1662 N   0  0  0  0  0  0  0  0  0  0  0  0
   -1.1737    3.5846   -1.0283 C   0  0  0  0  0  0  0  0  0  0  0  0
   -0.6217    3.9952   -2.2425 C   0  0  0  0  0  0  0  0  0  0  0  0
   -1.2626    3.7131   -3.4262 C   0  0  0  0  0  0  0  0  0  0  0  0
   -2.4895    3.0494   -3.4216 C   0  0  0  0  0  0  0  0  0  0  0  0
   -3.1991    2.7076   -4.9989 S   0  0  0  0  0  0  0  0  0  0  0  0
   -4.7826    1.9089   -4.6232 C   0  0  0  0  0  0  0  0  0  0  0  0
   -3.0666    2.6920   -2.2118 C   0  0  0  0  0  0  0  0  0  0  0  0
   -2.3998    2.9311   -1.0228 C   0  0  0  0  0  0  0  0  0  0  0  0
   -0.0475    5.2067    0.3283 C   0  0  0  0  0  0  0  0  0  0  0  0
    1.2529    5.5021    0.7311 C   0  0  0  0  0  0  0  0  0  0  0  0
    1.6438    6.8077    0.9479 C   0  0  0  0  0  0  0  0  0  0  0  0
    0.7408    7.8453    0.7524 C   0  0  0  0  0  0  0  0  0  0  0  0
    1.1417    9.5379    1.0671 S   0  0  0  0  0  0  0  0  0  0  0  0
    2.9277    9.5836    0.7346 C   0  0  0  0  0  0  0  0  0  0  0  0
   -0.5446    7.5606    0.3025 C   0  0  0  0  0  0  0  0  0  0  0  0
   -0.9316    6.2561    0.0835 C   0  0  0  0  0  0  0  0  0  0  0  0
   -0.1096    1.5133    0.7564 C   0  0  0  0  0  0  0  0  0  0  0  0
   -0.6651    0.5278   -0.5534 S   0  0  0  0  0  0  0  0  0  0  0  0
    0.1971    4.3493    3.0917 C   0  0  0  0  0  0  0  0  0  0  0  0
    1.1982    4.8233    3.9286 C   0  0  0  0  0  0  0  0  0  0  0  0
    2.2794    4.0584    4.1659 F   0  0  0  0  0  0  0  0  0  0  0  0
    1.1672    6.1052    4.4804 C   0  0  0  0  0  0  0  0  0  0  0  0
    2.1498    6.4489    5.3193 F   0  0  0  0  0  0  0  0  0  0  0  0
    0.1252    6.9862    4.2170 C   0  0  0  0  0  0  0  0  0  0  0  0
   -1.0024    6.4557    3.5211 C   0  0  0  0  0  0  0  0  0  0  0  0
   -2.0919    7.2229    3.3703 N   0  0  0  0  0  0  0  0  0  0  0  0
   -3.1647    6.7228    2.8116 C   0  0  0  0  0  0  0  0  0  0  0  0
   -4.3487    7.6322    2.6937 C   0  0  0  0  0  0  0  0  0  0  0  0
   -4.1084    8.9919    3.3366 C   0  0  0  0  0  0  0  0  0  0  0  0
   -3.1857    5.3605    2.3875 C   0  0  0  0  0  0  0  0  0  0  0  0
   -2.0998    4.6283    2.4536 N   0  0  0  0  0  0  0  0  0  0  0  0
   -0.9820    5.1507    2.9861 C   0  0  0  0  0  0  0  0  0  0  0  0
   -4.4231    4.6684    1.8983 C   0  0  0  0  0  0  0  0  0  0  0  0
   -4.7922    5.0287    0.4581 C   0  0  0  0  0  0  0  0  0  0  0  0
    0.0526    8.3533    4.6267 C   0  0  0  0  0  0  0  0  0  0  0  0
    1.0665    9.2549    4.6952 C   0  0  0  0  0  0  0  0  0  0  0  0
    2.4246    9.0819    4.1244 C   0  0  0  0  0  0  0  0  0  0  0  0
    2.8834    8.1189    3.5475 O   0  0  0  0  0  0  0  0  0  0  0  0
    3.0896   10.3907    4.2895 C   0  0  0  0  0  0  0  0  0  0  0  0
    4.3723   10.7575    3.9273 C   0  0  0  0  0  0  0  0  0  0  0  0
    4.7821   12.0596    4.1632 C   0  0  0  0  0  0  0  0  0  0  0  0
    3.8997   12.9602    4.7456 C   0  0  0  0  0  0  0  0  0  0  0  0
    4.4805   14.7440    5.0478 Br  0  0  0  0  0  0  0  0  0  0  0  0
    2.6078   12.6087    5.1162 C   0  0  0  0  0  0  0  0  0  0  0  0
    2.2033   11.3037    4.8859 C   0  0  0  0  0  0  0  0  0  0  0  0
    0.9381   10.6259    5.1594 C   0  0  0  0  0  0  0  0  0  0  0  0
   -0.1454   11.1815    5.7829 C   0  0  0  0  0  0  0  0  0  0  0  0
   -1.3533   10.5159    6.0877 C   0  0  0  0  0  0  0  0  0  0  0  0
   -2.3650   10.0628    6.3873 N   0  0  0  0  0  0  0  0  0  0  0  0
   -0.2014   12.5202    6.2288 C   0  0  0  0  0  0  0  0  0  0  0  0
   -0.3110   13.5968    6.6107 N   0  0  0  0  0  0  0  0  0  0  0  0
   -1.2134   -7.6051   -3.8356 H   0  0  0  0  0  0  0  0  0  0  0  0
    1.7922  -10.2506    0.9592 H   0  0  0  0  0  0  0  0  0  0  0  0
    2.3106  -12.6819    0.7928 H   0  0  0  0  0  0  0  0  0  0  0  0
    0.8748  -12.7665   -3.2375 H   0  0  0  0  0  0  0  0  0  0  0  0
    4.0233   -4.4267   -2.5126 H   0  0  0  0  0  0  0  0  0  0  0  0
    5.6553   -3.3786   -0.9780 H   0  0  0  0  0  0  0  0  0  0  0  0
    6.5738   -3.7112    4.0447 H   0  0  0  0  0  0  0  0  0  0  0  0
    6.0579   -5.3004    3.4347 H   0  0  0  0  0  0  0  0  0  0  0  0
    4.8517   -3.9996    3.7395 H   0  0  0  0  0  0  0  0  0  0  0  0
    4.0267   -5.6295    2.2745 H   0  0  0  0  0  0  0  0  0  0  0  0
    2.3529   -6.6020    0.7465 H   0  0  0  0  0  0  0  0  0  0  0  0
    3.6176   -8.1792   -1.0223 H   0  0  0  0  0  0  0  0  0  0  0  0
    4.3353  -10.1069   -2.3776 H   0  0  0  0  0  0  0  0  0  0  0  0
    3.8787   -9.7576   -7.1722 H   0  0  0  0  0  0  0  0  0  0  0  0
    2.2852  -10.4682   -6.7478 H   0  0  0  0  0  0  0  0  0  0  0  0
    3.6242  -11.5163   -7.2490 H   0  0  0  0  0  0  0  0  0  0  0  0
    2.5596   -8.3196   -5.8363 H   0  0  0  0  0  0  0  0  0  0  0  0
    1.8203   -6.4422   -4.4933 H   0  0  0  0  0  0  0  0  0  0  0  0
   -4.6222   -2.2677   -2.7526 H   0  0  0  0  0  0  0  0  0  0  0  0
   -5.1936   -1.7176   -5.0908 H   0  0  0  0  0  0  0  0  0  0  0  0
   -2.0992    1.0536   -7.2235 H   0  0  0  0  0  0  0  0  0  0  0  0
   -1.5054   -0.4026   -8.0947 H   0  0  0  0  0  0  0  0  0  0  0  0
   -2.7099    0.6626   -8.8478 H   0  0  0  0  0  0  0  0  0  0  0  0
   -1.1153   -0.6625   -5.8285 H   0  0  0  0  0  0  0  0  0  0  0  0
   -0.5570   -1.2001   -3.5139 H   0  0  0  0  0  0  0  0  0  0  0  0
   -3.7257    0.1711   -1.7812 H   0  0  0  0  0  0  0  0  0  0  0  0
   -5.1208    1.1274    0.0262 H   0  0  0  0  0  0  0  0  0  0  0  0
   -5.9320   -1.6757    3.8316 H   0  0  0  0  0  0  0  0  0  0  0  0
   -4.4901   -0.7932    4.4352 H   0  0  0  0  0  0  0  0  0  0  0  0
   -6.1240   -0.2381    4.8586 H   0  0  0  0  0  0  0  0  0  0  0  0
   -3.9969   -2.1208    2.5650 H   0  0  0  0  0  0  0  0  0  0  0  0
   -2.6358   -3.0580    0.7710 H   0  0  0  0  0  0  0  0  0  0  0  0
    3.1353   -0.3327    1.0115 H   0  0  0  0  0  0  0  0  0  0  0  0
    5.3868    0.0688    1.8530 H   0  0  0  0  0  0  0  0  0  0  0  0
    7.5391   -0.8901    2.2331 H   0  0  0  0  0  0  0  0  0  0  0  0
    7.3941    0.8287    2.7376 H   0  0  0  0  0  0  0  0  0  0  0  0
    8.6829   -0.1942    3.4057 H   0  0  0  0  0  0  0  0  0  0  0  0
    4.3387   -1.7974    5.5551 H   0  0  0  0  0  0  0  0  0  0  0  0
    2.0543   -2.1833    4.7081 H   0  0  0  0  0  0  0  0  0  0  0  0
    2.3282   -3.9189    2.5315 H   0  0  0  0  0  0  0  0  0  0  0  0
    1.2183   -6.0612    2.9344 H   0  0  0  0  0  0  0  0  0  0  0  0
   -0.1210   -7.7549    1.7241 H   0  0  0  0  0  0  0  0  0  0  0  0
   -1.0877   -8.9070    2.6738 H   0  0  0  0  0  0  0  0  0  0  0  0
    0.2967   -8.1029    3.4397 H   0  0  0  0  0  0  0  0  0  0  0  0
   -2.5472   -4.0632    3.1573 H   0  0  0  0  0  0  0  0  0  0  0  0
   -1.4153   -1.8946    2.7607 H   0  0  0  0  0  0  0  0  0  0  0  0
    0.3203    4.5231   -2.2455 H   0  0  0  0  0  0  0  0  0  0  0  0
   -0.8255    4.0038   -4.3690 H   0  0  0  0  0  0  0  0  0  0  0  0
   -5.4205    2.5924   -4.0705 H   0  0  0  0  0  0  0  0  0  0  0  0
   -4.6143    0.9845   -4.0781 H   0  0  0  0  0  0  0  0  0  0  0  0
   -5.2284    1.6833   -5.5872 H   0  0  0  0  0  0  0  0  0  0  0  0
   -4.0440    2.2409   -2.1801 H   0  0  0  0  0  0  0  0  0  0  0  0
   -2.8353    2.6229   -0.0846 H   0  0  0  0  0  0  0  0  0  0  0  0
    1.9621    4.7023    0.8839 H   0  0  0  0  0  0  0  0  0  0  0  0
    2.6449    7.0054    1.2923 H   0  0  0  0  0  0  0  0  0  0  0  0
    3.1179    9.1478   -0.2414 H   0  0  0  0  0  0  0  0  0  0  0  0
    3.4646    9.0519    1.5139 H   0  0  0  0  0  0  0  0  0  0  0  0
    3.2053   10.6330    0.7387 H   0  0  0  0  0  0  0  0  0  0  0  0
   -1.2373    8.3710    0.1365 H   0  0  0  0  0  0  0  0  0  0  0  0
   -1.9306    6.0392   -0.2633 H   0  0  0  0  0  0  0  0  0  0  0  0
   -5.2133    7.1462    3.1544 H   0  0  0  0  0  0  0  0  0  0  0  0
   -4.5815    7.7676    1.6341 H   0  0  0  0  0  0  0  0  0  0  0  0
   -3.8865    8.8830    4.3943 H   0  0  0  0  0  0  0  0  0  0  0  0
   -3.2643    9.4869    2.8643 H   0  0  0  0  0  0  0  0  0  0  0  0
   -4.9905    9.6171    3.2258 H   0  0  0  0  0  0  0  0  0  0  0  0
   -5.2586    4.9185    2.5554 H   0  0  0  0  0  0  0  0  0  0  0  0
   -4.2455    3.5935    1.9628 H   0  0  0  0  0  0  0  0  0  0  0  0
   -5.0242    6.0853    0.3577 H   0  0  0  0  0  0  0  0  0  0  0  0
   -3.9765    4.7861   -0.2186 H   0  0  0  0  0  0  0  0  0  0  0  0
   -5.6680    4.4591    0.1566 H   0  0  0  0  0  0  0  0  0  0  0  0
   -0.9606    8.6918    4.7998 H   0  0  0  0  0  0  0  0  0  0  0  0
    5.0406   10.0380    3.4798 H   0  0  0  0  0  0  0  0  0  0  0  0
    5.7783   12.3798    3.8999 H   0  0  0  0  0  0  0  0  0  0  0  0
    1.9568   13.3420    5.5633 H   0  0  0  0  0  0  0  0  0  0  0  0
  1  2  2  0  0  0  0
  2  3  1  0  0  0  0
  3  4  2  0  0  0  0
  3  5  1  0  0  0  0
  5  6  2  0  0  0  0
  6  7  1  0  0  0  0
  7  8  2  0  0  0  0
  8  9  1  0  0  0  0
  8 10  1  0  0  0  0
 10 11  2  0  0  0  0
 11 12  1  0  0  0  0
 12 13  2  0  0  0  0
 13 14  1  0  0  0  0
 14 15  3  0  0  0  0
 13 16  1  0  0  0  0
 16 17  3  0  0  0  0
  1 18  1  0  0  0  0
 18 19  2  0  0  0  0
 19 20  1  0  0  0  0
 20 21  1  0  0  0  0
 21 22  2  0  0  0  0
 22 23  1  0  0  0  0
 23 24  2  0  0  0  0
 24 25  1  0  0  0  0
 25 26  1  0  0  0  0
 24 27  1  0  0  0  0
 27 28  2  0  0  0  0
 20 29  1  0  0  0  0
 29 30  2  0  0  0  0
 30 31  1  0  0  0  0
 31 32  2  0  0  0  0
 32 33  1  0  0  0  0
 33 34  1  0  0  0  0
 32 35  1  0  0  0  0
 35 36  2  0  0  0  0
 19 37  1  0  0  0  0
 37 38  1  0  0  0  0
 38 39  1  0  0  0  0
 39 40  2  0  0  0  0
 40 41  1  0  0  0  0
 41 42  1  0  0  0  0
 42 43  2  0  0  0  0
 43 44  1  0  0  0  0
 44 45  2  0  0  0  0
 45 46  1  0  0  0  0
 46 47  1  0  0  0  0
 45 48  1  0  0  0  0
 48 49  2  0  0  0  0
 41 50  1  0  0  0  0
 50 51  2  0  0  0  0
 51 52  1  0  0  0  0
 52 53  2  0  0  0  0
 53 54  1  0  0  0  0
 54 55  1  0  0  0  0
 53 56  1  0  0  0  0
 56 57  2  0  0  0  0
 40 58  1  0  0  0  0
 58 59  1  0  0  0  0
 39 60  1  0  0  0  0
 60 61  2  0  0  0  0
 61 62  1  0  0  0  0
 62 63  1  0  0  0  0
 63 64  2  0  0  0  0
 64 65  1  0  0  0  0
 65 66  2  0  0  0  0
 66 67  1  0  0  0  0
 67 68  1  0  0  0  0
 66 69  1  0  0  0  0
 69 70  2  0  0  0  0
 62 71  1  0  0  0  0
 71 72  2  0  0  0  0
 72 73  1  0  0  0  0
 73 74  2  0  0  0  0
 74 75  1  0  0  0  0
 75 76  1  0  0  0  0
 74 77  1  0  0  0  0
 77 78  2  0  0  0  0
 61 79  1  0  0  0  0
 79 80  1  0  0  0  0
 80 81  1  0  0  0  0
 81 82  2  0  0  0  0
 82 83  1  0  0  0  0
 83 84  1  0  0  0  0
 84 85  2  0  0  0  0
 85 86  1  0  0  0  0
 86 87  2  0  0  0  0
 87 88  1  0  0  0  0
 88 89  1  0  0  0  0
 87 90  1  0  0  0  0
 90 91  2  0  0  0  0
 83 92  1  0  0  0  0
 92 93  2  0  0  0  0
 93 94  1  0  0  0  0
 94 95  2  0  0  0  0
 95 96  1  0  0  0  0
 96 97  1  0  0  0  0
 95 98  1  0  0  0  0
 98 99  2  0  0  0  0
 82100  1  0  0  0  0
100101  1  0  0  0  0
 81102  1  0  0  0  0
102103  2  0  0  0  0
103104  1  0  0  0  0
103105  1  0  0  0  0
105106  1  0  0  0  0
105107  2  0  0  0  0
107108  1  0  0  0  0
108109  2  0  0  0  0
109110  1  0  0  0  0
110111  1  0  0  0  0
111112  1  0  0  0  0
110113  2  0  0  0  0
113114  1  0  0  0  0
114115  2  0  0  0  0
113116  1  0  0  0  0
116117  1  0  0  0  0
107118  1  0  0  0  0
118119  2  0  0  0  0
119120  1  0  0  0  0
120121  2  0  0  0  0
120122  1  0  0  0  0
122123  2  0  0  0  0
123124  1  0  0  0  0
124125  2  0  0  0  0
125126  1  0  0  0  0
125127  1  0  0  0  0
127128  2  0  0  0  0
128129  1  0  0  0  0
129130  2  0  0  0  0
130131  1  0  0  0  0
131132  3  0  0  0  0
130133  1  0  0  0  0
133134  3  0  0  0  0
 12  2  1  0  0  0  0
 59 18  1  0  0  0  0
101 60  1  0  0  0  0
115102  1  0  0  0  0
129119  1  0  0  0  0
 11  5  1  0  0  0  0
 28 21  1  0  0  0  0
 36 29  1  0  0  0  0
 58 37  2  0  0  0  0
 70 63  1  0  0  0  0
 78 71  1  0  0  0  0
100 79  2  0  0  0  0
115108  1  0  0  0  0
128122  1  0  0  0  0
 49 42  1  0  0  0  0
 57 50  1  0  0  0  0
 91 84  1  0  0  0  0
 99 92  1  0  0  0  0
  1135  1  0  0  0  0
  6136  1  0  0  0  0
  7137  1  0  0  0  0
 10138  1  0  0  0  0
 22139  1  0  0  0  0
 23140  1  0  0  0  0
 26141  1  0  0  0  0
 26142  1  0  0  0  0
 26143  1  0  0  0  0
 27144  1  0  0  0  0
 28145  1  0  0  0  0
 30146  1  0  0  0  0
 31147  1  0  0  0  0
 34148  1  0  0  0  0
 34149  1  0  0  0  0
 34150  1  0  0  0  0
 35151  1  0  0  0  0
 36152  1  0  0  0  0
 43153  1  0  0  0  0
 44154  1  0  0  0  0
 47155  1  0  0  0  0
 47156  1  0  0  0  0
 47157  1  0  0  0  0
 48158  1  0  0  0  0
 49159  1  0  0  0  0
 51160  1  0  0  0  0
 52161  1  0  0  0  0
 55162  1  0  0  0  0
 55163  1  0  0  0  0
 55164  1  0  0  0  0
 56165  1  0  0  0  0
 57166  1  0  0  0  0
 64167  1  0  0  0  0
 65168  1  0  0  0  0
 68169  1  0  0  0  0
 68170  1  0  0  0  0
 68171  1  0  0  0  0
 69172  1  0  0  0  0
 70173  1  0  0  0  0
 72174  1  0  0  0  0
 73175  1  0  0  0  0
 76176  1  0  0  0  0
 76177  1  0  0  0  0
 76178  1  0  0  0  0
 77179  1  0  0  0  0
 78180  1  0  0  0  0
 85181  1  0  0  0  0
 86182  1  0  0  0  0
 89183  1  0  0  0  0
 89184  1  0  0  0  0
 89185  1  0  0  0  0
 90186  1  0  0  0  0
 91187  1  0  0  0  0
 93188  1  0  0  0  0
 94189  1  0  0  0  0
 97190  1  0  0  0  0
 97191  1  0  0  0  0
 97192  1  0  0  0  0
 98193  1  0  0  0  0
 99194  1  0  0  0  0
111195  1  0  0  0  0
111196  1  0  0  0  0
112197  1  0  0  0  0
112198  1  0  0  0  0
112199  1  0  0  0  0
116200  1  0  0  0  0
116201  1  0  0  0  0
117202  1  0  0  0  0
117203  1  0  0  0  0
117204  1  0  0  0  0
118205  1  0  0  0  0
123206  1  0  0  0  0
124207  1  0  0  0  0
127208  1  0  0  0  0
M  END
