
  xtb     02142210523D
 energy: -290.022499458349 gnorm: 0.000470169907 xtb: 6.4.1 (unknown)
159172  0     0  0            999 V2000
    4.7541    2.3608    4.7754 C   0  0  0  0  0  0  0  0  0  0  0  0
    4.4767    3.2841    5.7515 C   0  0  0  0  0  0  0  0  0  0  0  0
    5.2655    3.3090    7.0007 C   0  0  0  0  0  0  0  0  0  0  0  0
    6.3390    2.7839    7.2051 O   0  0  0  0  0  0  0  0  0  0  0  0
    4.4236    4.0536    7.9682 C   0  0  0  0  0  0  0  0  0  0  0  0
    4.6108    4.2510    9.3222 C   0  0  0  0  0  0  0  0  0  0  0  0
    3.6321    4.9283   10.0353 C   0  0  0  0  0  0  0  0  0  0  0  0
    2.4999    5.3910    9.3795 C   0  0  0  0  0  0  0  0  0  0  0  0
    1.1503    6.2690   10.3923 Br  0  0  0  0  0  0  0  0  0  0  0  0
    2.3045    5.2264    8.0133 C   0  0  0  0  0  0  0  0  0  0  0  0
    3.2826    4.5481    7.3094 C   0  0  0  0  0  0  0  0  0  0  0  0
    3.3863    4.2161    5.8890 C   0  0  0  0  0  0  0  0  0  0  0  0
    2.7531    4.8856    4.8709 C   0  0  0  0  0  0  0  0  0  0  0  0
    1.7234    5.8252    5.0601 C   0  0  0  0  0  0  0  0  0  0  0  0
    0.8642    6.5807    5.1577 N   0  0  0  0  0  0  0  0  0  0  0  0
    3.1373    4.7434    3.5225 C   0  0  0  0  0  0  0  0  0  0  0  0
    3.4725    4.6880    2.4249 N   0  0  0  0  0  0  0  0  0  0  0  0
    3.8597    1.8360    3.8345 C   0  0  0  0  0  0  0  0  0  0  0  0
    4.1395    0.9277    2.7944 C   0  0  0  0  0  0  0  0  0  0  0  0
    5.3921    0.6160    2.3570 N   0  0  0  0  0  0  0  0  0  0  0  0
    6.4614    1.5324    2.4690 C   0  0  0  0  0  0  0  0  0  0  0  0
    6.2779    2.8828    2.1726 C   0  0  0  0  0  0  0  0  0  0  0  0
    7.3293    3.7604    2.3016 C   0  0  0  0  0  0  0  0  0  0  0  0
    8.5840    3.3123    2.7172 C   0  0  0  0  0  0  0  0  0  0  0  0
    9.8469    4.5327    2.8518 S   0  0  0  0  0  0  0  0  0  0  0  0
   11.2193    3.6527    3.6513 C   0  0  0  0  0  0  0  0  0  0  0  0
    8.7731    1.9624    2.9827 C   0  0  0  0  0  0  0  0  0  0  0  0
    7.7167    1.0803    2.8584 C   0  0  0  0  0  0  0  0  0  0  0  0
    5.6260   -0.5930    1.6805 C   0  0  0  0  0  0  0  0  0  0  0  0
    6.4295   -0.6158    0.5405 C   0  0  0  0  0  0  0  0  0  0  0  0
    6.6727   -1.8038   -0.1088 C   0  0  0  0  0  0  0  0  0  0  0  0
    6.1237   -2.9961    0.3636 C   0  0  0  0  0  0  0  0  0  0  0  0
    6.5238   -4.4544   -0.5429 S   0  0  0  0  0  0  0  0  0  0  0  0
    5.5076   -5.7452    0.2274 C   0  0  0  0  0  0  0  0  0  0  0  0
    5.3288   -2.9770    1.5017 C   0  0  0  0  0  0  0  0  0  0  0  0
    5.0851   -1.7844    2.1545 C   0  0  0  0  0  0  0  0  0  0  0  0
    2.9471    0.4253    2.2192 C   0  0  0  0  0  0  0  0  0  0  0  0
    2.5843   -0.6144    0.8737 S   0  0  0  0  0  0  0  0  0  0  0  0
    0.8726   -0.3494    1.1211 C   0  0  0  0  0  0  0  0  0  0  0  0
    0.6022    0.6170    2.0902 C   0  0  0  0  0  0  0  0  0  0  0  0
   -0.6028    1.2473    2.3019 N   0  0  0  0  0  0  0  0  0  0  0  0
   -1.5235    1.4469    1.2615 C   0  0  0  0  0  0  0  0  0  0  0  0
   -1.1023    1.6932   -0.0451 C   0  0  0  0  0  0  0  0  0  0  0  0
   -2.0179    1.7741   -1.0740 C   0  0  0  0  0  0  0  0  0  0  0  0
   -3.3736    1.6330   -0.8078 C   0  0  0  0  0  0  0  0  0  0  0  0
   -4.5900    1.6349   -2.0971 S   0  0  0  0  0  0  0  0  0  0  0  0
   -3.9993    2.9865   -3.1640 C   0  0  0  0  0  0  0  0  0  0  0  0
   -3.8049    1.4438    0.5003 C   0  0  0  0  0  0  0  0  0  0  0  0
   -2.8894    1.3565    1.5277 C   0  0  0  0  0  0  0  0  0  0  0  0
   -0.8119    1.8837    3.5404 C   0  0  0  0  0  0  0  0  0  0  0  0
   -0.5779    1.1968    4.7272 C   0  0  0  0  0  0  0  0  0  0  0  0
   -0.6750    1.8449    5.9443 C   0  0  0  0  0  0  0  0  0  0  0  0
   -1.0069    3.1923    5.9861 C   0  0  0  0  0  0  0  0  0  0  0  0
   -1.0889    4.1474    7.4633 S   0  0  0  0  0  0  0  0  0  0  0  0
   -0.5385    3.0048    8.7639 C   0  0  0  0  0  0  0  0  0  0  0  0
   -1.2942    3.8687    4.7995 C   0  0  0  0  0  0  0  0  0  0  0  0
   -1.2023    3.2220    3.5888 C   0  0  0  0  0  0  0  0  0  0  0  0
    1.7963    0.9892    2.7482 C   0  0  0  0  0  0  0  0  0  0  0  0
    2.1255    2.0989    4.0223 S   0  0  0  0  0  0  0  0  0  0  0  0
   -0.0709   -1.0151    0.2787 C   0  0  0  0  0  0  0  0  0  0  0  0
   -1.3716   -1.3085    0.6619 C   0  0  0  0  0  0  0  0  0  0  0  0
   -1.7220   -1.2290    1.9595 F   0  0  0  0  0  0  0  0  0  0  0  0
   -2.3487   -1.6726   -0.2698 C   0  0  0  0  0  0  0  0  0  0  0  0
   -3.6116   -1.7906    0.1635 F   0  0  0  0  0  0  0  0  0  0  0  0
   -2.0558   -1.8114   -1.6121 C   0  0  0  0  0  0  0  0  0  0  0  0
   -0.6922   -1.7253   -1.9997 C   0  0  0  0  0  0  0  0  0  0  0  0
   -0.3277   -2.0150   -3.2578 N   0  0  0  0  0  0  0  0  0  0  0  0
    0.9348   -1.9605   -3.5941 C   0  0  0  0  0  0  0  0  0  0  0  0
    1.2807   -2.2995   -5.0126 C   0  0  0  0  0  0  0  0  0  0  0  0
    0.0465   -2.5023   -5.8815 C   0  0  0  0  0  0  0  0  0  0  0  0
    1.9304   -1.6030   -2.6345 C   0  0  0  0  0  0  0  0  0  0  0  0
    1.5811   -1.3001   -1.4089 N   0  0  0  0  0  0  0  0  0  0  0  0
    0.2906   -1.3541   -1.0546 C   0  0  0  0  0  0  0  0  0  0  0  0
    3.4006   -1.6287   -2.9124 C   0  0  0  0  0  0  0  0  0  0  0  0
    3.9508   -3.0260   -2.6176 C   0  0  0  0  0  0  0  0  0  0  0  0
   -3.0865   -1.9916   -2.6284 C   0  0  0  0  0  0  0  0  0  0  0  0
   -3.0996   -1.1319   -3.7557 C   0  0  0  0  0  0  0  0  0  0  0  0
   -2.1706   -0.1548   -3.8563 N   0  0  0  0  0  0  0  0  0  0  0  0
   -2.1885    0.6038   -4.9067 C   0  0  0  0  0  0  0  0  0  0  0  0
   -3.1882    0.4651   -5.9161 C   0  0  0  0  0  0  0  0  0  0  0  0
   -3.1526    1.3033   -6.9434 O   0  0  0  0  0  0  0  0  0  0  0  0
   -4.1961    1.1913   -7.9130 C   0  0  0  0  0  0  0  0  0  0  0  0
   -5.4869    1.8351   -7.4278 C   0  0  0  0  0  0  0  0  0  0  0  0
   -4.1176   -0.4550   -5.8232 N   0  0  0  0  0  0  0  0  0  0  0  0
   -4.0880   -1.2779   -4.7578 C   0  0  0  0  0  0  0  0  0  0  0  0
   -5.0568   -2.3168   -4.6785 C   0  0  0  0  0  0  0  0  0  0  0  0
   -5.0146   -3.1318   -3.5586 C   0  0  0  0  0  0  0  0  0  0  0  0
   -4.0585   -2.9681   -2.5513 C   0  0  0  0  0  0  0  0  0  0  0  0
   -4.0720   -3.8329   -1.5286 F   0  0  0  0  0  0  0  0  0  0  0  0
   -5.9277   -4.1050   -3.4015 F   0  0  0  0  0  0  0  0  0  0  0  0
   -6.0397   -2.4239   -5.7235 C   0  0  0  0  0  0  0  0  0  0  0  0
   -6.6692   -3.5134   -6.2162 C   0  0  0  0  0  0  0  0  0  0  0  0
   -7.9029   -3.3317   -7.0417 C   0  0  0  0  0  0  0  0  0  0  0  0
   -8.2867   -2.3051   -7.5483 O   0  0  0  0  0  0  0  0  0  0  0  0
   -8.5515   -4.6570   -7.0548 C   0  0  0  0  0  0  0  0  0  0  0  0
   -9.7907   -5.0161   -7.5534 C   0  0  0  0  0  0  0  0  0  0  0  0
  -10.2027   -6.3319   -7.4191 C   0  0  0  0  0  0  0  0  0  0  0  0
   -9.3742   -7.2525   -6.7880 C   0  0  0  0  0  0  0  0  0  0  0  0
   -9.9734   -9.0436   -6.6011 Br  0  0  0  0  0  0  0  0  0  0  0  0
   -8.1234   -6.9124   -6.2875 C   0  0  0  0  0  0  0  0  0  0  0  0
   -7.7114   -5.5985   -6.4304 C   0  0  0  0  0  0  0  0  0  0  0  0
   -6.4654   -4.9405   -6.0425 C   0  0  0  0  0  0  0  0  0  0  0  0
   -5.2780   -5.5702   -5.7977 C   0  0  0  0  0  0  0  0  0  0  0  0
   -4.0463   -4.8980   -5.6544 C   0  0  0  0  0  0  0  0  0  0  0  0
   -3.0148   -4.4021   -5.5704 N   0  0  0  0  0  0  0  0  0  0  0  0
   -5.1276   -6.9736   -5.7507 C   0  0  0  0  0  0  0  0  0  0  0  0
   -4.9543   -8.1064   -5.7058 N   0  0  0  0  0  0  0  0  0  0  0  0
    5.7319    1.8970    4.8395 H   0  0  0  0  0  0  0  0  0  0  0  0
    5.4976    3.8776    9.8102 H   0  0  0  0  0  0  0  0  0  0  0  0
    3.7412    5.0922   11.0962 H   0  0  0  0  0  0  0  0  0  0  0  0
    1.4090    5.5965    7.5394 H   0  0  0  0  0  0  0  0  0  0  0  0
    5.3117    3.2449    1.8562 H   0  0  0  0  0  0  0  0  0  0  0  0
    7.1911    4.8066    2.0781 H   0  0  0  0  0  0  0  0  0  0  0  0
   11.9737    4.4079    3.8489 H   0  0  0  0  0  0  0  0  0  0  0  0
   11.6233    2.8974    2.9833 H   0  0  0  0  0  0  0  0  0  0  0  0
   10.8792    3.2167    4.5858 H   0  0  0  0  0  0  0  0  0  0  0  0
    9.7329    1.5832    3.2927 H   0  0  0  0  0  0  0  0  0  0  0  0
    7.8637    0.0322    3.0747 H   0  0  0  0  0  0  0  0  0  0  0  0
    6.8531    0.3047    0.1684 H   0  0  0  0  0  0  0  0  0  0  0  0
    7.2903   -1.8258   -0.9933 H   0  0  0  0  0  0  0  0  0  0  0  0
    4.4597   -5.4634    0.1871 H   0  0  0  0  0  0  0  0  0  0  0  0
    5.8331   -5.9193    1.2488 H   0  0  0  0  0  0  0  0  0  0  0  0
    5.6721   -6.6388   -0.3666 H   0  0  0  0  0  0  0  0  0  0  0  0
    4.9022   -3.8832    1.8997 H   0  0  0  0  0  0  0  0  0  0  0  0
    4.4822   -1.7791    3.0502 H   0  0  0  0  0  0  0  0  0  0  0  0
   -0.0499    1.8040   -0.2598 H   0  0  0  0  0  0  0  0  0  0  0  0
   -1.6706    1.9248   -2.0832 H   0  0  0  0  0  0  0  0  0  0  0  0
   -4.8388    3.2587   -3.7958 H   0  0  0  0  0  0  0  0  0  0  0  0
   -3.7101    3.8277   -2.5426 H   0  0  0  0  0  0  0  0  0  0  0  0
   -3.1687    2.6524   -3.7790 H   0  0  0  0  0  0  0  0  0  0  0  0
   -4.8596    1.3415    0.7008 H   0  0  0  0  0  0  0  0  0  0  0  0
   -3.2212    1.1835    2.5400 H   0  0  0  0  0  0  0  0  0  0  0  0
   -0.3120    0.1507    4.6913 H   0  0  0  0  0  0  0  0  0  0  0  0
   -0.4817    1.2888    6.8472 H   0  0  0  0  0  0  0  0  0  0  0  0
   -0.5353    3.5888    9.6792 H   0  0  0  0  0  0  0  0  0  0  0  0
    0.4652    2.6485    8.5467 H   0  0  0  0  0  0  0  0  0  0  0  0
   -1.2390    2.1805    8.8597 H   0  0  0  0  0  0  0  0  0  0  0  0
   -1.5600    4.9133    4.8430 H   0  0  0  0  0  0  0  0  0  0  0  0
   -1.4020    3.7535    2.6705 H   0  0  0  0  0  0  0  0  0  0  0  0
    1.8885   -3.2087   -5.0156 H   0  0  0  0  0  0  0  0  0  0  0  0
    1.8993   -1.4973   -5.4256 H   0  0  0  0  0  0  0  0  0  0  0  0
   -0.5357   -1.5856   -5.9252 H   0  0  0  0  0  0  0  0  0  0  0  0
   -0.5888   -3.2810   -5.4716 H   0  0  0  0  0  0  0  0  0  0  0  0
    0.3418   -2.7786   -6.8906 H   0  0  0  0  0  0  0  0  0  0  0  0
    3.6068   -1.3569   -3.9473 H   0  0  0  0  0  0  0  0  0  0  0  0
    3.8868   -0.9146   -2.2465 H   0  0  0  0  0  0  0  0  0  0  0  0
    5.0212   -3.0561   -2.8001 H   0  0  0  0  0  0  0  0  0  0  0  0
    3.4702   -3.7759   -3.2417 H   0  0  0  0  0  0  0  0  0  0  0  0
    3.7692   -3.2732   -1.5748 H   0  0  0  0  0  0  0  0  0  0  0  0
   -1.4234    1.3630   -5.0000 H   0  0  0  0  0  0  0  0  0  0  0  0
   -4.3597    0.1337   -8.1398 H   0  0  0  0  0  0  0  0  0  0  0  0
   -3.8088    1.7076   -8.7937 H   0  0  0  0  0  0  0  0  0  0  0  0
   -5.8431    1.3305   -6.5334 H   0  0  0  0  0  0  0  0  0  0  0  0
   -5.3222    2.8856   -7.1999 H   0  0  0  0  0  0  0  0  0  0  0  0
   -6.2449    1.7544   -8.2009 H   0  0  0  0  0  0  0  0  0  0  0  0
   -6.3383   -1.4751   -6.1572 H   0  0  0  0  0  0  0  0  0  0  0  0
  -10.4174   -4.2807   -8.0333 H   0  0  0  0  0  0  0  0  0  0  0  0
  -11.1631   -6.6479   -7.7957 H   0  0  0  0  0  0  0  0  0  0  0  0
   -7.5139   -7.6532   -5.7955 H   0  0  0  0  0  0  0  0  0  0  0  0
  1  2  2  0  0  0  0
  2  3  1  0  0  0  0
  3  4  2  0  0  0  0
  3  5  1  0  0  0  0
  5  6  2  0  0  0  0
  6  7  1  0  0  0  0
  7  8  2  0  0  0  0
  8  9  1  0  0  0  0
  8 10  1  0  0  0  0
 10 11  2  0  0  0  0
 11 12  1  0  0  0  0
 12 13  2  0  0  0  0
 13 14  1  0  0  0  0
 14 15  3  0  0  0  0
 13 16  1  0  0  0  0
 16 17  3  0  0  0  0
  1 18  1  0  0  0  0
 18 19  2  0  0  0  0
 19 20  1  0  0  0  0
 20 21  1  0  0  0  0
 21 22  2  0  0  0  0
 22 23  1  0  0  0  0
 23 24  2  0  0  0  0
 24 25  1  0  0  0  0
 25 26  1  0  0  0  0
 24 27  1  0  0  0  0
 27 28  2  0  0  0  0
 20 29  1  0  0  0  0
 29 30  2  0  0  0  0
 30 31  1  0  0  0  0
 31 32  2  0  0  0  0
 32 33  1  0  0  0  0
 33 34  1  0  0  0  0
 32 35  1  0  0  0  0
 35 36  2  0  0  0  0
 19 37  1  0  0  0  0
 37 38  1  0  0  0  0
 38 39  1  0  0  0  0
 39 40  2  0  0  0  0
 40 41  1  0  0  0  0
 41 42  1  0  0  0  0
 42 43  2  0  0  0  0
 43 44  1  0  0  0  0
 44 45  2  0  0  0  0
 45 46  1  0  0  0  0
 46 47  1  0  0  0  0
 45 48  1  0  0  0  0
 48 49  2  0  0  0  0
 41 50  1  0  0  0  0
 50 51  2  0  0  0  0
 51 52  1  0  0  0  0
 52 53  2  0  0  0  0
 53 54  1  0  0  0  0
 54 55  1  0  0  0  0
 53 56  1  0  0  0  0
 56 57  2  0  0  0  0
 40 58  1  0  0  0  0
 58 59  1  0  0  0  0
 39 60  1  0  0  0  0
 60 61  2  0  0  0  0
 61 62  1  0  0  0  0
 61 63  1  0  0  0  0
 63 64  1  0  0  0  0
 63 65  2  0  0  0  0
 65 66  1  0  0  0  0
 66 67  2  0  0  0  0
 67 68  1  0  0  0  0
 68 69  1  0  0  0  0
 69 70  1  0  0  0  0
 68 71  2  0  0  0  0
 71 72  1  0  0  0  0
 72 73  2  0  0  0  0
 71 74  1  0  0  0  0
 74 75  1  0  0  0  0
 65 76  1  0  0  0  0
 76 77  1  0  0  0  0
 77 78  2  0  0  0  0
 78 79  1  0  0  0  0
 79 80  2  0  0  0  0
 80 81  1  0  0  0  0
 81 82  1  0  0  0  0
 82 83  1  0  0  0  0
 80 84  1  0  0  0  0
 84 85  2  0  0  0  0
 85 86  1  0  0  0  0
 86 87  2  0  0  0  0
 87 88  1  0  0  0  0
 88 89  1  0  0  0  0
 87 90  1  0  0  0  0
 86 91  1  0  0  0  0
 91 92  2  0  0  0  0
 92 93  1  0  0  0  0
 93 94  2  0  0  0  0
 93 95  1  0  0  0  0
 95 96  2  0  0  0  0
 96 97  1  0  0  0  0
 97 98  2  0  0  0  0
 98 99  1  0  0  0  0
 98100  1  0  0  0  0
100101  2  0  0  0  0
101102  1  0  0  0  0
102103  2  0  0  0  0
103104  1  0  0  0  0
104105  3  0  0  0  0
103106  1  0  0  0  0
106107  3  0  0  0  0
 12  2  1  0  0  0  0
 59 18  1  0  0  0  0
 73 60  1  0  0  0  0
 88 76  2  0  0  0  0
102 92  1  0  0  0  0
 11  5  1  0  0  0  0
 28 21  1  0  0  0  0
 36 29  1  0  0  0  0
 58 37  2  0  0  0  0
 73 66  1  0  0  0  0
 85 77  1  0  0  0  0
101 95  1  0  0  0  0
 49 42  1  0  0  0  0
 57 50  1  0  0  0  0
  1108  1  0  0  0  0
  6109  1  0  0  0  0
  7110  1  0  0  0  0
 10111  1  0  0  0  0
 22112  1  0  0  0  0
 23113  1  0  0  0  0
 26114  1  0  0  0  0
 26115  1  0  0  0  0
 26116  1  0  0  0  0
 27117  1  0  0  0  0
 28118  1  0  0  0  0
 30119  1  0  0  0  0
 31120  1  0  0  0  0
 34121  1  0  0  0  0
 34122  1  0  0  0  0
 34123  1  0  0  0  0
 35124  1  0  0  0  0
 36125  1  0  0  0  0
 43126  1  0  0  0  0
 44127  1  0  0  0  0
 47128  1  0  0  0  0
 47129  1  0  0  0  0
 47130  1  0  0  0  0
 48131  1  0  0  0  0
 49132  1  0  0  0  0
 51133  1  0  0  0  0
 52134  1  0  0  0  0
 55135  1  0  0  0  0
 55136  1  0  0  0  0
 55137  1  0  0  0  0
 56138  1  0  0  0  0
 57139  1  0  0  0  0
 69140  1  0  0  0  0
 69141  1  0  0  0  0
 70142  1  0  0  0  0
 70143  1  0  0  0  0
 70144  1  0  0  0  0
 74145  1  0  0  0  0
 74146  1  0  0  0  0
 75147  1  0  0  0  0
 75148  1  0  0  0  0
 75149  1  0  0  0  0
 79150  1  0  0  0  0
 82151  1  0  0  0  0
 82152  1  0  0  0  0
 83153  1  0  0  0  0
 83154  1  0  0  0  0
 83155  1  0  0  0  0
 91156  1  0  0  0  0
 96157  1  0  0  0  0
 97158  1  0  0  0  0
100159  1  0  0  0  0
M  END
