159

C          4.75410        2.36080        4.77540
C          4.47670        3.28410        5.75150
C          5.26550        3.30900        7.00070
O          6.33900        2.78390        7.20510
C          4.42360        4.05360        7.96820
C          4.61080        4.25100        9.32220
C          3.63210        4.92830       10.03530
C          2.49990        5.39100        9.37950
Br         1.15030        6.26900       10.39230
C          2.30450        5.22640        8.01330
C          3.28260        4.54810        7.30940
C          3.38630        4.21610        5.88900
C          2.75310        4.88560        4.87090
C          1.72340        5.82520        5.06010
N          0.86420        6.58070        5.15770
C          3.13730        4.74340        3.52250
N          3.47250        4.68800        2.42490
C          3.85970        1.83600        3.83450
C          4.13950        0.92770        2.79440
N          5.39210        0.61600        2.35700
C          6.46140        1.53240        2.46900
C          6.27790        2.88280        2.17260
C          7.32930        3.76040        2.30160
C          8.58400        3.31230        2.71720
S          9.84690        4.53270        2.85180
C         11.21930        3.65270        3.65130
C          8.77310        1.96240        2.98270
C          7.71670        1.08030        2.85840
C          5.62600       -0.59300        1.68050
C          6.42950       -0.61580        0.54050
C          6.67270       -1.80380       -0.10880
C          6.12370       -2.99610        0.36360
S          6.52380       -4.45440       -0.54290
C          5.50760       -5.74520        0.22740
C          5.32880       -2.97700        1.50170
C          5.08510       -1.78440        2.15450
C          2.94710        0.42530        2.21920
S          2.58430       -0.61440        0.87370
C          0.87260       -0.34940        1.12110
C          0.60220        0.61700        2.09020
N         -0.60280        1.24730        2.30190
C         -1.52350        1.44690        1.26150
C         -1.10230        1.69320       -0.04510
C         -2.01790        1.77410       -1.07400
C         -3.37360        1.63300       -0.80780
S         -4.59000        1.63490       -2.09710
C         -3.99930        2.98650       -3.16400
C         -3.80490        1.44380        0.50030
C         -2.88940        1.35650        1.52770
C         -0.81190        1.88370        3.54040
C         -0.57790        1.19680        4.72720
C         -0.67500        1.84490        5.94430
C         -1.00690        3.19230        5.98610
S         -1.08890        4.14740        7.46330
C         -0.53850        3.00480        8.76390
C         -1.29420        3.86870        4.79950
C         -1.20230        3.22200        3.58880
C          1.79630        0.98920        2.74820
S          2.12550        2.09890        4.02230
C         -0.07090       -1.01510        0.27870
C         -1.37160       -1.30850        0.66190
F         -1.72200       -1.22900        1.95950
C         -2.34870       -1.67260       -0.26980
F         -3.61160       -1.79060        0.16350
C         -2.05580       -1.81140       -1.61210
C         -0.69220       -1.72530       -1.99970
N         -0.32770       -2.01500       -3.25780
C          0.93480       -1.96050       -3.59410
C          1.28070       -2.29950       -5.01260
C          0.04650       -2.50230       -5.88150
C          1.93040       -1.60300       -2.63450
N          1.58110       -1.30010       -1.40890
C          0.29060       -1.35410       -1.05460
C          3.40060       -1.62870       -2.91240
C          3.95080       -3.02600       -2.61760
C         -3.08650       -1.99160       -2.62840
C         -3.09960       -1.13190       -3.75570
N         -2.17060       -0.15480       -3.85630
C         -2.18850        0.60380       -4.90670
C         -3.18820        0.46510       -5.91610
O         -3.15260        1.30330       -6.94340
C         -4.19610        1.19130       -7.91300
C         -5.48690        1.83510       -7.42780
N         -4.11760       -0.45500       -5.82320
C         -4.08800       -1.27790       -4.75780
C         -5.05680       -2.31680       -4.67850
C         -5.01460       -3.13180       -3.55860
C         -4.05850       -2.96810       -2.55130
F         -4.07200       -3.83290       -1.52860
F         -5.92770       -4.10500       -3.40150
C         -6.03970       -2.42390       -5.72350
C         -6.66920       -3.51340       -6.21620
C         -7.90290       -3.33170       -7.04170
O         -8.28670       -2.30510       -7.54830
C         -8.55150       -4.65700       -7.05480
C         -9.79070       -5.01610       -7.55340
C        -10.20270       -6.33190       -7.41910
C         -9.37420       -7.25250       -6.78800
Br        -9.97340       -9.04360       -6.60110
C         -8.12340       -6.91240       -6.28750
C         -7.71140       -5.59850       -6.43040
C         -6.46540       -4.94050       -6.04250
C         -5.27800       -5.57020       -5.79770
C         -4.04630       -4.89800       -5.65440
N         -3.01480       -4.40210       -5.57040
C         -5.12760       -6.97360       -5.75070
N         -4.95430       -8.10640       -5.70580
H          5.73190        1.89700        4.83950
H          5.49760        3.87760        9.81020
H          3.74120        5.09220       11.09620
H          1.40900        5.59650        7.53940
H          5.31170        3.24490        1.85620
H          7.19110        4.80660        2.07810
H         11.97370        4.40790        3.84890
H         11.62330        2.89740        2.98330
H         10.87920        3.21670        4.58580
H          9.73290        1.58320        3.29270
H          7.86370        0.03220        3.07470
H          6.85310        0.30470        0.16840
H          7.29030       -1.82580       -0.99330
H          4.45970       -5.46340        0.18710
H          5.83310       -5.91930        1.24880
H          5.67210       -6.63880       -0.36660
H          4.90220       -3.88320        1.89970
H          4.48220       -1.77910        3.05020
H         -0.04990        1.80400       -0.25980
H         -1.67060        1.92480       -2.08320
H         -4.83880        3.25870       -3.79580
H         -3.71010        3.82770       -2.54260
H         -3.16870        2.65240       -3.77900
H         -4.85960        1.34150        0.70080
H         -3.22120        1.18350        2.54000
H         -0.31200        0.15070        4.69130
H         -0.48170        1.28880        6.84720
H         -0.53530        3.58880        9.67920
H          0.46520        2.64850        8.54670
H         -1.23900        2.18050        8.85970
H         -1.56000        4.91330        4.84300
H         -1.40200        3.75350        2.67050
H          1.88850       -3.20870       -5.01560
H          1.89930       -1.49730       -5.42560
H         -0.53570       -1.58560       -5.92520
H         -0.58880       -3.28100       -5.47160
H          0.34180       -2.77860       -6.89060
H          3.60680       -1.35690       -3.94730
H          3.88680       -0.91460       -2.24650
H          5.02120       -3.05610       -2.80010
H          3.47020       -3.77590       -3.24170
H          3.76920       -3.27320       -1.57480
H         -1.42340        1.36300       -5.00000
H         -4.35970        0.13370       -8.13980
H         -3.80880        1.70760       -8.79370
H         -5.84310        1.33050       -6.53340
H         -5.32220        2.88560       -7.19990
H         -6.24490        1.75440       -8.20090
H         -6.33830       -1.47510       -6.15720
H        -10.41740       -4.28070       -8.03330
H        -11.16310       -6.64790       -7.79570
H         -7.51390       -7.65320       -5.79550
