252

C         -1.21180       -6.82530        6.07180
C         -1.48880       -8.13730        5.72980
C         -1.75050       -8.63680        4.38450
O         -1.83300       -8.00260        3.34230
C         -1.83550      -10.10580        4.50160
C         -2.08000      -11.04250        3.51720
C         -2.11180      -12.38240        3.87350
C         -1.89860      -12.74210        5.19600
Br        -1.94050      -14.58560        5.66030
C         -1.65580      -11.81010        6.19980
C         -1.62560      -10.47400        5.84170
C         -1.41740       -9.25710        6.63320
C         -1.21800       -9.22570        7.99320
C         -1.11160       -8.06150        8.77790
N         -1.04000       -7.16280        9.49180
C         -1.11520      -10.37550        8.80150
N         -1.01220      -11.27430        9.50890
C         -1.30180       -5.66720        5.31280
C         -0.89110       -4.38650        5.77890
N         -0.19230       -4.15870        6.93490
C         -0.45320       -2.98980        7.67110
C         -1.76640       -2.58560        7.89510
C         -2.03770       -1.48620        8.68390
C         -0.99330       -0.77170        9.25730
S         -1.23240        0.62650       10.30680
C         -2.92890        0.40660       10.91860
C          0.32320       -1.14840        8.99970
C          0.59310       -2.24780        8.21700
C          0.82480       -5.02520        7.37070
C          1.02840       -5.24540        8.73340
C          2.02370       -6.09890        9.15230
C          2.83280       -6.75620        8.22670
S          4.05630       -7.83950        8.88670
C          4.88910       -8.51420        7.42050
C          2.64160       -6.52600        6.86950
C          1.65120       -5.66190        6.44810
C         -1.25020       -3.38180        4.87260
S         -0.93500       -1.67290        4.77320
C         -1.57480       -1.63830        3.13240
C         -2.12950       -2.86680        2.75770
N         -2.79450       -3.12420        1.56260
C         -2.53820       -4.35820        0.93930
C         -3.57920       -5.13930        0.44260
C         -3.31660       -6.38840       -0.07700
C         -2.01550       -6.87790       -0.09930
S         -1.74740       -8.51620       -0.70880
C         -0.41800       -9.07780        0.39660
C         -0.96890       -6.08150        0.34370
C         -1.23070       -4.82890        0.85710
C         -3.74790       -2.25050        1.04200
C         -4.47180       -1.39190        1.86860
C         -5.32280       -0.45260        1.32420
C         -5.47780       -0.35720       -0.05480
S         -6.52510        0.92680       -0.67920
C         -7.03230        0.29350       -2.30460
C         -4.79220       -1.23540       -0.88280
C         -3.94290       -2.17500       -0.33940
C         -1.89830       -3.85480        3.73420
S         -2.05190       -5.57450        3.71810
C         -1.30800       -0.57100        2.24230
C         -0.92640        0.75620        2.45910
N         -0.92650        1.41970        3.66890
C         -0.14640        2.58910        3.77530
C          1.19520        2.57430        3.40740
C          1.94180        3.73830        3.41220
C          1.35550        4.93610        3.79630
S          2.15730        6.50670        3.74950
C          3.86720        6.12250        3.28860
C          0.02720        4.94040        4.22330
C         -0.71800        3.78510        4.21010
C         -1.93200        1.20620        4.62280
C         -1.64430        1.38450        5.97570
C         -2.63130        1.21760        6.91960
C         -3.91660        0.84110        6.53740
S         -5.10410        0.60160        7.82580
C         -6.69900        0.66300        6.96500
C         -4.20700        0.66150        5.19260
C         -3.22510        0.86250        4.24320
C         -0.59120        1.38770        1.23740
S         -0.13630        2.99660        0.77900
C         -0.24650        2.57250       -0.92660
C         -0.64600        1.25380       -1.10500
N         -0.99860        0.71020       -2.34040
C         -2.11350        1.27740       -2.98110
C         -3.10330        1.94300       -2.26430
C         -4.20620        2.46760       -2.90950
C         -4.33820        2.33870       -4.28460
S         -5.73820        2.92220       -5.19310
C         -6.59000        4.00810       -4.01350
C         -3.34140        1.68520       -5.00800
C         -2.24290        1.16160       -4.36410
C         -0.68710       -0.64580       -2.53260
C         -1.61510       -1.56000       -3.01870
C         -1.30640       -2.90370       -3.10060
C         -0.06070       -3.35930       -2.69400
S          0.41790       -5.05570       -2.68520
C         -1.02800       -5.92800       -3.34340
C          0.88660       -2.44040       -2.24570
C          0.58070       -1.10150       -2.16960
C         -0.77970        0.58850        0.12100
S         -1.25520       -1.00590        0.52680
C          0.24280        3.40800       -1.95420
C          0.60400        4.75240       -1.89440
N          0.31400        5.61420       -0.84810
C         -0.94810        5.59870       -0.24830
C         -1.10530        5.92290        1.10200
C         -2.33650        5.80700        1.70460
C         -3.44240        5.36010        0.98420
S         -4.94820        5.16630        1.88580
C         -6.12250        4.52970        0.65600
C         -3.30190        5.08380       -0.36810
C         -2.06920        5.20810       -0.97750
C          1.33590        6.47160       -0.41420
C          1.06770        7.77460        0.00220
C          2.09890        8.60800        0.37470
C          3.42000        8.17110        0.31640
S          4.68040        9.31360        0.78820
C          6.14680        8.68310       -0.08280
C          3.69130        6.86910       -0.08080
C          2.65590        6.02620       -0.42950
C          1.35720        5.11810       -3.03160
S          2.19390        6.55470       -3.48600
C          2.86310        5.74590       -4.91780
C          2.48380        4.38110       -4.97310
N          3.00590        3.40400       -5.76790
C          2.24960        2.21770       -5.94610
C          2.76040        0.99780       -5.50740
C          2.01240       -0.14930       -5.64800
C          0.75830       -0.10210       -6.25620
S         -0.11160       -1.63290       -6.35120
C         -1.54610       -1.26260       -7.40550
C          0.26640        1.11030       -6.72640
C          1.00410        2.26700       -6.55810
C          4.28640        3.42990       -6.32600
C          4.49910        2.82870       -7.57060
C          5.73500        2.88710       -8.16980
C          6.79890        3.54030       -7.54530
S          8.29740        3.63460       -8.45870
C          9.45870        4.47590       -7.34810
C          6.61020        4.07840       -6.27710
C          5.36760        4.02300       -5.67680
C          1.57150        4.08620       -3.93730
S          0.73590        2.64200       -3.46060
C          3.69480        6.51260       -5.71930
C          4.11120        6.21000       -7.00690
C          3.32810        5.43510       -7.97420
O          2.22490        4.94250       -7.81460
C          4.11140        5.47370       -9.23170
C          3.84090        4.87860      -10.44640
C          4.76520        5.01440      -11.47250
C          5.92240        5.74750      -11.25980
Br         7.17870        5.90930      -12.67540
C          6.20300        6.36890      -10.04810
C          5.28240        6.22370       -9.02760
C          5.29990        6.68830       -7.64010
C          6.35740        7.29950       -7.00550
C          6.41520        7.52070       -5.61630
N          6.55910        7.67440       -4.48580
C          7.55170        7.67910       -7.64210
N          8.56020        7.99040       -8.09730
H         -0.86830       -6.66630        7.08560
H         -2.25010      -10.73200        2.49790
H         -2.30200      -13.14430        3.13360
H         -1.49920      -12.13880        7.21410
H         -2.57970       -3.15370        7.46810
H         -3.06330       -1.20130        8.85300
H         -3.04630       -0.60720       11.28800
H         -3.03930        1.11530       11.73330
H         -3.65220        0.62690       10.13850
H          1.12830       -0.57420        9.43140
H          1.61350       -2.54820        8.03290
H          0.39390       -4.75890        9.45650
H          2.17420       -6.28090       10.20450
H          5.36500       -7.71470        6.86020
H          5.64360       -9.19420        7.80330
H          4.17920       -9.06110        6.80680
H          3.26180       -7.00460        6.12900
H          1.51330       -5.48230        5.39180
H         -4.59450       -4.77500        0.49620
H         -4.12080       -7.00910       -0.44150
H         -0.41960      -10.16270        0.35200
H          0.54240       -8.70030        0.05770
H         -0.64650       -8.73400        1.40160
H          0.04980       -6.42880        0.28760
H         -0.41980       -4.20510        1.20330
H         -4.35890       -1.46600        2.93980
H         -5.87510        0.22040        1.96310
H         -7.31620       -0.74980       -2.20760
H         -7.89400        0.88310       -2.60290
H         -6.23110        0.41850       -3.02840
H         -4.89400       -1.17700       -1.95500
H         -3.38280       -2.82960       -0.98920
H          1.65160        1.64500        3.09900
H          2.97430        3.69650        3.10550
H          4.32020        5.48810        4.04500
H          3.88790        5.65710        2.30780
H          4.37660        7.08070        3.25120
H         -0.41380        5.87140        4.54430
H         -1.75390        3.80350        4.51320
H         -0.64740        1.66550        6.27800
H         -2.41120        1.38640        7.96050
H         -6.84740       -0.23960        6.37870
H         -6.73910        1.55180        6.34240
H         -7.45230        0.72050        7.74470
H         -5.19750        0.38310        4.86850
H         -3.46540        0.76480        3.19520
H         -3.02890        2.03450       -1.19070
H         -4.97160        2.94750       -2.32210
H         -7.00630        3.43000       -3.19330
H         -7.39170        4.47680       -4.57580
H         -5.89960        4.76510       -3.65310
H         -3.44800        1.60060       -6.07930
H         -1.46260        0.65860       -4.91050
H         -2.59760       -1.22310       -3.31290
H         -2.05470       -3.58650       -3.46970
H         -1.22060       -5.60470       -4.36230
H         -1.88650       -5.76160       -2.69890
H         -0.76810       -6.98190       -3.33120
H          1.86260       -2.79550       -1.95230
H          1.31510       -0.39210       -1.81760
H         -0.25100        6.23230        1.68290
H         -2.45140        6.04080        2.75120
H         -7.05860        4.39580        1.18910
H         -5.78360        3.57100        0.27340
H         -6.25700        5.25610       -0.14040
H         -4.14310        4.76820       -0.96250
H         -1.97660        4.98150       -2.02990
H          0.05020        8.13390        0.01550
H          1.89400        9.61710        0.69620
H          5.88820        8.45540       -1.11230
H          6.87510        9.48740       -0.05300
H          6.54740        7.81080        0.42630
H          4.70460        6.50090       -0.11750
H          2.87130        5.00690       -0.71800
H          3.73600        0.96150       -5.04600
H          2.38410       -1.09600       -5.28780
H         -1.21110       -0.84120       -8.34830
H         -2.23200       -0.59510       -6.89250
H         -2.02990       -2.21820       -7.58190
H         -0.68810        1.17140       -7.22380
H          0.63640        3.21450       -6.92040
H          3.67570        2.34250       -8.07060
H          5.89170        2.44640       -9.14220
H          9.56850        3.90950       -6.42810
H          9.12930        5.49270       -7.15640
H         10.40270        4.49710       -7.88370
H          7.41930        4.55720       -5.74900
H          5.24010        4.45090       -4.69370
H          4.03440        7.44380       -5.28110
H          2.93480        4.30960      -10.58540
H          4.59320        4.55070      -12.43160
H          7.11170        6.93640       -9.92800
