
  xtb     02152210273D
 energy: -411.966700170897 gnorm: 0.000541402049 xtb: 6.4.1 (unknown)
248269  0     0  0            999 V2000
   -4.8918   -0.8481    8.2321 C   0  0  0  0  0  0  0  0  0  0  0  0
   -6.1011   -1.4219    8.4933 C   0  0  0  0  0  0  0  0  0  0  0  0
   -6.3540   -2.0096    9.8353 C   0  0  0  0  0  0  0  0  0  0  0  0
   -5.6244   -1.9586   10.7990 O   0  0  0  0  0  0  0  0  0  0  0  0
   -7.6593   -2.6933    9.7214 C   0  0  0  0  0  0  0  0  0  0  0  0
   -8.3074   -3.4988   10.6386 C   0  0  0  0  0  0  0  0  0  0  0  0
   -9.5258   -4.0581   10.2854 C   0  0  0  0  0  0  0  0  0  0  0  0
  -10.0640   -3.7897    9.0342 C   0  0  0  0  0  0  0  0  0  0  0  0
  -11.7140   -4.5976    8.5481 Br  0  0  0  0  0  0  0  0  0  0  0  0
   -9.4369   -2.9657    8.1090 C   0  0  0  0  0  0  0  0  0  0  0  0
   -8.2148   -2.4211    8.4597 C   0  0  0  0  0  0  0  0  0  0  0  0
   -7.3063   -1.5496    7.7125 C   0  0  0  0  0  0  0  0  0  0  0  0
   -7.6613   -0.8156    6.6105 C   0  0  0  0  0  0  0  0  0  0  0  0
   -8.9361   -0.8600    6.0107 C   0  0  0  0  0  0  0  0  0  0  0  0
   -9.9532   -0.8357    5.4776 N   0  0  0  0  0  0  0  0  0  0  0  0
   -6.8393    0.1344    5.9724 C   0  0  0  0  0  0  0  0  0  0  0  0
   -6.2442    0.9338    5.4016 N   0  0  0  0  0  0  0  0  0  0  0  0
   -4.2792   -0.5674    6.9871 C   0  0  0  0  0  0  0  0  0  0  0  0
   -4.1148   -1.3802    5.8655 C   0  0  0  0  0  0  0  0  0  0  0  0
   -4.4378   -2.7358    5.7952 N   0  0  0  0  0  0  0  0  0  0  0  0
   -3.3794   -3.6408    5.6473 C   0  0  0  0  0  0  0  0  0  0  0  0
   -3.5501   -4.8524    4.9816 C   0  0  0  0  0  0  0  0  0  0  0  0
   -2.5002   -5.7436    4.8775 C   0  0  0  0  0  0  0  0  0  0  0  0
   -1.2493   -5.4549    5.4080 C   0  0  0  0  0  0  0  0  0  0  0  0
   -0.1084   -6.4154    5.2818 C   0  0  0  0  0  0  0  0  0  0  0  0
   -1.0825   -4.2357    6.0550 C   0  0  0  0  0  0  0  0  0  0  0  0
   -2.1268   -3.3439    6.1844 C   0  0  0  0  0  0  0  0  0  0  0  0
   -5.7587   -3.1530    5.5538 C   0  0  0  0  0  0  0  0  0  0  0  0
   -6.3172   -4.1898    6.2942 C   0  0  0  0  0  0  0  0  0  0  0  0
   -7.6077   -4.6079    6.0331 C   0  0  0  0  0  0  0  0  0  0  0  0
   -8.3678   -4.0113    5.0330 C   0  0  0  0  0  0  0  0  0  0  0  0
   -9.7689   -4.4524    4.7460 C   0  0  0  0  0  0  0  0  0  0  0  0
   -7.7967   -2.9817    4.2932 C   0  0  0  0  0  0  0  0  0  0  0  0
   -6.5082   -2.5503    4.5483 C   0  0  0  0  0  0  0  0  0  0  0  0
   -3.3363   -0.7269    4.8883 C   0  0  0  0  0  0  0  0  0  0  0  0
   -2.7803   -1.1863    3.3255 S   0  0  0  0  0  0  0  0  0  0  0  0
   -2.0246    0.3931    3.1093 C   0  0  0  0  0  0  0  0  0  0  0  0
   -2.1660    1.2080    4.2220 C   0  0  0  0  0  0  0  0  0  0  0  0
   -1.5937    2.4528    4.3914 N   0  0  0  0  0  0  0  0  0  0  0  0
   -0.3320    2.7418    3.8487 C   0  0  0  0  0  0  0  0  0  0  0  0
   -0.0359    4.0336    3.4203 C   0  0  0  0  0  0  0  0  0  0  0  0
    1.2080    4.3254    2.8988 C   0  0  0  0  0  0  0  0  0  0  0  0
    2.1785    3.3386    2.7538 C   0  0  0  0  0  0  0  0  0  0  0  0
    3.5024    3.6629    2.1306 C   0  0  0  0  0  0  0  0  0  0  0  0
    1.8802    2.0557    3.1923 C   0  0  0  0  0  0  0  0  0  0  0  0
    0.6518    1.7610    3.7526 C   0  0  0  0  0  0  0  0  0  0  0  0
   -2.1949    3.3708    5.2742 C   0  0  0  0  0  0  0  0  0  0  0  0
   -3.5797    3.4986    5.3290 C   0  0  0  0  0  0  0  0  0  0  0  0
   -4.1616    4.4016    6.1986 C   0  0  0  0  0  0  0  0  0  0  0  0
   -3.3888    5.1977    7.0315 C   0  0  0  0  0  0  0  0  0  0  0  0
   -4.0144    6.1718    7.9820 C   0  0  0  0  0  0  0  0  0  0  0  0
   -2.0056    5.0577    6.9762 C   0  0  0  0  0  0  0  0  0  0  0  0
   -1.4115    4.1564    6.1176 C   0  0  0  0  0  0  0  0  0  0  0  0
   -2.9308    0.5551    5.2233 C   0  0  0  0  0  0  0  0  0  0  0  0
   -3.4270    0.9616    6.8243 S   0  0  0  0  0  0  0  0  0  0  0  0
   -1.2362    0.5524    1.9190 C   0  0  0  0  0  0  0  0  0  0  0  0
   -1.2784    1.4913    0.9006 C   0  0  0  0  0  0  0  0  0  0  0  0
   -2.1774    2.5380    0.8299 N   0  0  0  0  0  0  0  0  0  0  0  0
   -1.8247    3.7533    0.2275 C   0  0  0  0  0  0  0  0  0  0  0  0
   -0.5085    4.2143    0.2419 C   0  0  0  0  0  0  0  0  0  0  0  0
   -0.2006    5.4628   -0.2506 C   0  0  0  0  0  0  0  0  0  0  0  0
   -1.1947    6.2915   -0.7621 C   0  0  0  0  0  0  0  0  0  0  0  0
   -0.7035    7.9200   -1.2339 S   0  0  0  0  0  0  0  0  0  0  0  0
   -2.2269    8.6817   -1.8568 C   0  0  0  0  0  0  0  0  0  0  0  0
   -2.4946    5.8121   -0.8451 C   0  0  0  0  0  0  0  0  0  0  0  0
   -2.7989    4.5520   -0.3710 C   0  0  0  0  0  0  0  0  0  0  0  0
   -3.4685    2.3978    1.3747 C   0  0  0  0  0  0  0  0  0  0  0  0
   -4.1906    1.2193    1.2134 C   0  0  0  0  0  0  0  0  0  0  0  0
   -5.4838    1.1088    1.6903 C   0  0  0  0  0  0  0  0  0  0  0  0
   -6.0897    2.1861    2.3227 C   0  0  0  0  0  0  0  0  0  0  0  0
   -7.7546    2.2082    2.9011 S   0  0  0  0  0  0  0  0  0  0  0  0
   -8.3461    0.5225    2.6009 C   0  0  0  0  0  0  0  0  0  0  0  0
   -5.3610    3.3611    2.5037 C   0  0  0  0  0  0  0  0  0  0  0  0
   -4.0653    3.4620    2.0502 C   0  0  0  0  0  0  0  0  0  0  0  0
   -0.3115    1.1908   -0.0980 C   0  0  0  0  0  0  0  0  0  0  0  0
    0.1586    1.9052   -1.6108 S   0  0  0  0  0  0  0  0  0  0  0  0
    1.3647    0.6466   -1.8647 C   0  0  0  0  0  0  0  0  0  0  0  0
    1.4223   -0.2300   -0.7906 C   0  0  0  0  0  0  0  0  0  0  0  0
    2.4388   -1.1662   -0.6214 N   0  0  0  0  0  0  0  0  0  0  0  0
    3.7552   -0.6903   -0.7253 C   0  0  0  0  0  0  0  0  0  0  0  0
    4.7588   -1.4867   -1.2723 C   0  0  0  0  0  0  0  0  0  0  0  0
    6.0294   -0.9837   -1.4405 C   0  0  0  0  0  0  0  0  0  0  0  0
    6.3317    0.3240   -1.0630 C   0  0  0  0  0  0  0  0  0  0  0  0
    7.9769    0.8812   -1.3760 S   0  0  0  0  0  0  0  0  0  0  0  0
    8.0413    2.5194   -0.5956 C   0  0  0  0  0  0  0  0  0  0  0  0
    5.3403    1.1119   -0.4923 C   0  0  0  0  0  0  0  0  0  0  0  0
    4.0656    0.6069   -0.3261 C   0  0  0  0  0  0  0  0  0  0  0  0
    2.1200   -2.4301   -0.1333 C   0  0  0  0  0  0  0  0  0  0  0  0
    0.8823   -2.9886   -0.4488 C   0  0  0  0  0  0  0  0  0  0  0  0
    0.4973   -4.2025    0.0824 C   0  0  0  0  0  0  0  0  0  0  0  0
    1.3520   -4.8877    0.9332 C   0  0  0  0  0  0  0  0  0  0  0  0
    0.9464   -6.4436    1.6723 S   0  0  0  0  0  0  0  0  0  0  0  0
   -0.8678   -6.4871    1.5845 C   0  0  0  0  0  0  0  0  0  0  0  0
    2.6080   -4.3587    1.2151 C   0  0  0  0  0  0  0  0  0  0  0  0
    2.9888   -3.1426    0.6941 C   0  0  0  0  0  0  0  0  0  0  0  0
    0.4388    0.0593    0.1746 C   0  0  0  0  0  0  0  0  0  0  0  0
   -0.0452   -0.7157    1.6290 S   0  0  0  0  0  0  0  0  0  0  0  0
    2.1391    0.4677   -3.0512 C   0  0  0  0  0  0  0  0  0  0  0  0
    2.7396    1.3685   -3.9143 C   0  0  0  0  0  0  0  0  0  0  0  0
    2.7073    2.7589   -3.8196 N   0  0  0  0  0  0  0  0  0  0  0  0
    1.4968    3.4452   -3.9173 C   0  0  0  0  0  0  0  0  0  0  0  0
    0.3519    2.8224   -4.4119 C   0  0  0  0  0  0  0  0  0  0  0  0
   -0.8428    3.5095   -4.4997 C   0  0  0  0  0  0  0  0  0  0  0  0
   -0.9094    4.8358   -4.1050 C   0  0  0  0  0  0  0  0  0  0  0  0
   -2.3996    5.7824   -4.2094 S   0  0  0  0  0  0  0  0  0  0  0  0
   -3.6864    4.5145   -4.0192 C   0  0  0  0  0  0  0  0  0  0  0  0
    0.2355    5.4736   -3.6376 C   0  0  0  0  0  0  0  0  0  0  0  0
    1.4213    4.7840   -3.5303 C   0  0  0  0  0  0  0  0  0  0  0  0
    3.9241    3.3803   -4.1694 C   0  0  0  0  0  0  0  0  0  0  0  0
    3.9986    4.3671   -5.1473 C   0  0  0  0  0  0  0  0  0  0  0  0
    5.2265    4.8332   -5.5689 C   0  0  0  0  0  0  0  0  0  0  0  0
    6.3946    4.3064   -5.0343 C   0  0  0  0  0  0  0  0  0  0  0  0
    7.9914    4.7820   -5.6252 S   0  0  0  0  0  0  0  0  0  0  0  0
    7.6493    4.9812   -7.4007 C   0  0  0  0  0  0  0  0  0  0  0  0
    6.3243    3.3611   -4.0180 C   0  0  0  0  0  0  0  0  0  0  0  0
    5.0982    2.9067   -3.5842 C   0  0  0  0  0  0  0  0  0  0  0  0
    3.4696    0.7103   -4.9345 C   0  0  0  0  0  0  0  0  0  0  0  0
    4.3908    1.2861   -6.2776 S   0  0  0  0  0  0  0  0  0  0  0  0
    4.6507   -0.3741   -6.8214 C   0  0  0  0  0  0  0  0  0  0  0  0
    3.9709   -1.3130   -5.9971 C   0  0  0  0  0  0  0  0  0  0  0  0
    3.8613   -2.6549   -6.2343 N   0  0  0  0  0  0  0  0  0  0  0  0
    3.7222   -3.1991   -7.5196 C   0  0  0  0  0  0  0  0  0  0  0  0
    4.2380   -4.4617   -7.7980 C   0  0  0  0  0  0  0  0  0  0  0  0
    4.1482   -4.9904   -9.0710 C   0  0  0  0  0  0  0  0  0  0  0  0
    3.5589   -4.2555  -10.0897 C   0  0  0  0  0  0  0  0  0  0  0  0
    3.4773   -4.8005  -11.7646 S   0  0  0  0  0  0  0  0  0  0  0  0
    4.7818   -6.0603  -11.8511 C   0  0  0  0  0  0  0  0  0  0  0  0
    2.9887   -3.0154   -9.7993 C   0  0  0  0  0  0  0  0  0  0  0  0
    3.0585   -2.4962   -8.5281 C   0  0  0  0  0  0  0  0  0  0  0  0
    3.7837   -3.5237   -5.1233 C   0  0  0  0  0  0  0  0  0  0  0  0
    2.7188   -4.4063   -4.9876 C   0  0  0  0  0  0  0  0  0  0  0  0
    2.6458   -5.2522   -3.8985 C   0  0  0  0  0  0  0  0  0  0  0  0
    3.6543   -5.2434   -2.9421 C   0  0  0  0  0  0  0  0  0  0  0  0
    3.6778   -6.2677   -1.5118 S   0  0  0  0  0  0  0  0  0  0  0  0
    2.1197   -7.1879   -1.6070 C   0  0  0  0  0  0  0  0  0  0  0  0
    4.7397   -4.3809   -3.0991 C   0  0  0  0  0  0  0  0  0  0  0  0
    4.7979   -3.5157   -4.1687 C   0  0  0  0  0  0  0  0  0  0  0  0
    3.3697   -0.6726   -4.9020 C   0  0  0  0  0  0  0  0  0  0  0  0
    2.4111   -1.2055   -3.5612 S   0  0  0  0  0  0  0  0  0  0  0  0
    5.4821   -0.7479   -7.8690 C   0  0  0  0  0  0  0  0  0  0  0  0
    6.1838    0.0122   -8.7850 C   0  0  0  0  0  0  0  0  0  0  0  0
    6.1828    1.4685   -8.8989 C   0  0  0  0  0  0  0  0  0  0  0  0
    5.6675    2.2867   -8.1526 O   0  0  0  0  0  0  0  0  0  0  0  0
    6.9449    1.7824  -10.1254 C   0  0  0  0  0  0  0  0  0  0  0  0
    7.2211    3.0113  -10.6915 C   0  0  0  0  0  0  0  0  0  0  0  0
    7.9616    3.0500  -11.8635 C   0  0  0  0  0  0  0  0  0  0  0  0
    8.4020    1.8646  -12.4337 C   0  0  0  0  0  0  0  0  0  0  0  0
    9.4147    1.9426  -14.0401 Br  0  0  0  0  0  0  0  0  0  0  0  0
    8.1323    0.6191  -11.8773 C   0  0  0  0  0  0  0  0  0  0  0  0
    7.3924    0.5844  -10.7088 C   0  0  0  0  0  0  0  0  0  0  0  0
    6.9589   -0.5351   -9.8694 C   0  0  0  0  0  0  0  0  0  0  0  0
    7.2682   -1.8544  -10.1007 C   0  0  0  0  0  0  0  0  0  0  0  0
    7.9346   -2.3261  -11.2493 C   0  0  0  0  0  0  0  0  0  0  0  0
    8.4453   -2.7934  -12.1658 N   0  0  0  0  0  0  0  0  0  0  0  0
    7.0049   -2.9281   -9.2306 C   0  0  0  0  0  0  0  0  0  0  0  0
    6.8754   -3.8628   -8.5724 N   0  0  0  0  0  0  0  0  0  0  0  0
   -4.2998   -0.6083    9.1119 H   0  0  0  0  0  0  0  0  0  0  0  0
   -7.8655   -3.6881   11.6044 H   0  0  0  0  0  0  0  0  0  0  0  0
  -10.0556   -4.7005   10.9717 H   0  0  0  0  0  0  0  0  0  0  0  0
   -9.8911   -2.7834    7.1498 H   0  0  0  0  0  0  0  0  0  0  0  0
   -4.5073   -5.0966    4.5454 H   0  0  0  0  0  0  0  0  0  0  0  0
   -2.6610   -6.6838    4.3692 H   0  0  0  0  0  0  0  0  0  0  0  0
    0.5236   -6.1437    4.4358 H   0  0  0  0  0  0  0  0  0  0  0  0
   -0.4679   -7.4292    5.1222 H   0  0  0  0  0  0  0  0  0  0  0  0
    0.5097   -6.3984    6.1766 H   0  0  0  0  0  0  0  0  0  0  0  0
   -0.1202   -3.9862    6.4780 H   0  0  0  0  0  0  0  0  0  0  0  0
   -1.9760   -2.4155    6.7154 H   0  0  0  0  0  0  0  0  0  0  0  0
   -5.7308   -4.6609    7.0695 H   0  0  0  0  0  0  0  0  0  0  0  0
   -8.0330   -5.4103    6.6189 H   0  0  0  0  0  0  0  0  0  0  0  0
   -9.8103   -4.9778    3.7921 H   0  0  0  0  0  0  0  0  0  0  0  0
  -10.4298   -3.5896    4.6754 H   0  0  0  0  0  0  0  0  0  0  0  0
  -10.1379   -5.1210    5.5197 H   0  0  0  0  0  0  0  0  0  0  0  0
   -8.3739   -2.5169    3.5066 H   0  0  0  0  0  0  0  0  0  0  0  0
   -6.0607   -1.7587    3.9633 H   0  0  0  0  0  0  0  0  0  0  0  0
   -0.7859    4.8064    3.4982 H   0  0  0  0  0  0  0  0  0  0  0  0
    1.4218    5.3336    2.5756 H   0  0  0  0  0  0  0  0  0  0  0  0
    4.1827    2.8176    2.2039 H   0  0  0  0  0  0  0  0  0  0  0  0
    3.9563    4.5220    2.6220 H   0  0  0  0  0  0  0  0  0  0  0  0
    3.3720    3.9155    1.0774 H   0  0  0  0  0  0  0  0  0  0  0  0
    2.6220    1.2735    3.1107 H   0  0  0  0  0  0  0  0  0  0  0  0
    0.4603    0.7679    4.1308 H   0  0  0  0  0  0  0  0  0  0  0  0
   -4.2043    2.8942    4.6911 H   0  0  0  0  0  0  0  0  0  0  0  0
   -5.2384    4.4813    6.2233 H   0  0  0  0  0  0  0  0  0  0  0  0
   -3.5369    7.1469    7.9027 H   0  0  0  0  0  0  0  0  0  0  0  0
   -5.0767    6.2831    7.7809 H   0  0  0  0  0  0  0  0  0  0  0  0
   -3.8934    5.8250    9.0083 H   0  0  0  0  0  0  0  0  0  0  0  0
   -1.3843    5.6590    7.6243 H   0  0  0  0  0  0  0  0  0  0  0  0
   -0.3364    4.0540    6.0995 H   0  0  0  0  0  0  0  0  0  0  0  0
    0.2683    3.6093    0.6785 H   0  0  0  0  0  0  0  0  0  0  0  0
    0.8164    5.8215   -0.2176 H   0  0  0  0  0  0  0  0  0  0  0  0
   -2.5857    8.1284   -2.7199 H   0  0  0  0  0  0  0  0  0  0  0  0
   -2.9705    8.7208   -1.0663 H   0  0  0  0  0  0  0  0  0  0  0  0
   -1.9487    9.6888   -2.1514 H   0  0  0  0  0  0  0  0  0  0  0  0
   -3.2814    6.4091   -1.2759 H   0  0  0  0  0  0  0  0  0  0  0  0
   -3.8161    4.1950   -0.4394 H   0  0  0  0  0  0  0  0  0  0  0  0
   -3.7446    0.3840    0.6933 H   0  0  0  0  0  0  0  0  0  0  0  0
   -6.0126    0.1813    1.5391 H   0  0  0  0  0  0  0  0  0  0  0  0
   -7.6900   -0.1823    3.1016 H   0  0  0  0  0  0  0  0  0  0  0  0
   -9.3372    0.4722    3.0417 H   0  0  0  0  0  0  0  0  0  0  0  0
   -8.4012    0.3276    1.5334 H   0  0  0  0  0  0  0  0  0  0  0  0
   -5.8256    4.1919    3.0117 H   0  0  0  0  0  0  0  0  0  0  0  0
   -3.5079    4.3726    2.2101 H   0  0  0  0  0  0  0  0  0  0  0  0
    4.5209   -2.4929   -1.5766 H   0  0  0  0  0  0  0  0  0  0  0  0
    6.8048   -1.5948   -1.8766 H   0  0  0  0  0  0  0  0  0  0  0  0
    9.0612    2.8650   -0.7330 H   0  0  0  0  0  0  0  0  0  0  0  0
    7.8213    2.4313    0.4644 H   0  0  0  0  0  0  0  0  0  0  0  0
    7.3544    3.2013   -1.0889 H   0  0  0  0  0  0  0  0  0  0  0  0
    5.5446    2.1216   -0.1737 H   0  0  0  0  0  0  0  0  0  0  0  0
    3.3026    1.2305    0.1163 H   0  0  0  0  0  0  0  0  0  0  0  0
    0.2175   -2.4632   -1.1186 H   0  0  0  0  0  0  0  0  0  0  0  0
   -0.4717   -4.6010   -0.1745 H   0  0  0  0  0  0  0  0  0  0  0  0
   -1.2734   -5.5657    1.9921 H   0  0  0  0  0  0  0  0  0  0  0  0
   -1.1958   -6.6469    0.5612 H   0  0  0  0  0  0  0  0  0  0  0  0
   -1.1698   -7.3299    2.1978 H   0  0  0  0  0  0  0  0  0  0  0  0
    3.2767   -4.9071    1.8601 H   0  0  0  0  0  0  0  0  0  0  0  0
    3.9531   -2.7287    0.9455 H   0  0  0  0  0  0  0  0  0  0  0  0
    0.3987    1.7969   -4.7472 H   0  0  0  0  0  0  0  0  0  0  0  0
   -1.7094    3.0024   -4.8936 H   0  0  0  0  0  0  0  0  0  0  0  0
   -3.8218    3.9688   -4.9486 H   0  0  0  0  0  0  0  0  0  0  0  0
   -4.6008    5.0453   -3.7733 H   0  0  0  0  0  0  0  0  0  0  0  0
   -3.4070    3.8505   -3.2067 H   0  0  0  0  0  0  0  0  0  0  0  0
    0.1874    6.5123   -3.3536 H   0  0  0  0  0  0  0  0  0  0  0  0
    2.3007    5.2786   -3.1471 H   0  0  0  0  0  0  0  0  0  0  0  0
    3.0952    4.7434   -5.6028 H   0  0  0  0  0  0  0  0  0  0  0  0
    5.2669    5.5863   -6.3392 H   0  0  0  0  0  0  0  0  0  0  0  0
    7.2594    5.9750   -7.6032 H   0  0  0  0  0  0  0  0  0  0  0  0
    6.9431    4.2106   -7.6971 H   0  0  0  0  0  0  0  0  0  0  0  0
    8.5983    4.8477   -7.9112 H   0  0  0  0  0  0  0  0  0  0  0  0
    7.2374    2.9626   -3.6036 H   0  0  0  0  0  0  0  0  0  0  0  0
    5.0369    2.1437   -2.8214 H   0  0  0  0  0  0  0  0  0  0  0  0
    4.7321   -5.0219   -7.0200 H   0  0  0  0  0  0  0  0  0  0  0  0
    4.5682   -5.9643   -9.2589 H   0  0  0  0  0  0  0  0  0  0  0  0
    5.6900   -5.6700  -11.4015 H   0  0  0  0  0  0  0  0  0  0  0  0
    4.9410   -6.2469  -12.9085 H   0  0  0  0  0  0  0  0  0  0  0  0
    4.4591   -6.9745  -11.3614 H   0  0  0  0  0  0  0  0  0  0  0  0
    2.4949   -2.4673  -10.5869 H   0  0  0  0  0  0  0  0  0  0  0  0
    2.6195   -1.5336   -8.3121 H   0  0  0  0  0  0  0  0  0  0  0  0
    1.9419   -4.4212   -5.7376 H   0  0  0  0  0  0  0  0  0  0  0  0
    1.8011   -5.9152   -3.8099 H   0  0  0  0  0  0  0  0  0  0  0  0
    1.2872   -6.4907   -1.6215 H   0  0  0  0  0  0  0  0  0  0  0  0
    2.0817   -7.7866   -0.7021 H   0  0  0  0  0  0  0  0  0  0  0  0
    2.1183   -7.8323   -2.4813 H   0  0  0  0  0  0  0  0  0  0  0  0
    5.5395   -4.4137   -2.3747 H   0  0  0  0  0  0  0  0  0  0  0  0
    5.6316   -2.8392   -4.2832 H   0  0  0  0  0  0  0  0  0  0  0  0
    5.5814   -1.8193   -7.9876 H   0  0  0  0  0  0  0  0  0  0  0  0
    6.8654    3.9196  -10.2306 H   0  0  0  0  0  0  0  0  0  0  0  0
    8.1966    3.9919  -12.3342 H   0  0  0  0  0  0  0  0  0  0  0  0
    8.4947   -0.2758  -12.3564 H   0  0  0  0  0  0  0  0  0  0  0  0
  1  2  2  0  0  0  0
  2  3  1  0  0  0  0
  3  4  2  0  0  0  0
  3  5  1  0  0  0  0
  5  6  2  0  0  0  0
  6  7  1  0  0  0  0
  7  8  2  0  0  0  0
  8  9  1  0  0  0  0
  8 10  1  0  0  0  0
 10 11  2  0  0  0  0
 11 12  1  0  0  0  0
 12 13  2  0  0  0  0
 13 14  1  0  0  0  0
 14 15  3  0  0  0  0
 13 16  1  0  0  0  0
 16 17  3  0  0  0  0
  1 18  1  0  0  0  0
 18 19  2  0  0  0  0
 19 20  1  0  0  0  0
 20 21  1  0  0  0  0
 21 22  2  0  0  0  0
 22 23  1  0  0  0  0
 23 24  2  0  0  0  0
 24 25  1  0  0  0  0
 24 26  1  0  0  0  0
 26 27  2  0  0  0  0
 20 28  1  0  0  0  0
 28 29  2  0  0  0  0
 29 30  1  0  0  0  0
 30 31  2  0  0  0  0
 31 32  1  0  0  0  0
 31 33  1  0  0  0  0
 33 34  2  0  0  0  0
 19 35  1  0  0  0  0
 35 36  1  0  0  0  0
 36 37  1  0  0  0  0
 37 38  2  0  0  0  0
 38 39  1  0  0  0  0
 39 40  1  0  0  0  0
 40 41  2  0  0  0  0
 41 42  1  0  0  0  0
 42 43  2  0  0  0  0
 43 44  1  0  0  0  0
 43 45  1  0  0  0  0
 45 46  2  0  0  0  0
 39 47  1  0  0  0  0
 47 48  2  0  0  0  0
 48 49  1  0  0  0  0
 49 50  2  0  0  0  0
 50 51  1  0  0  0  0
 50 52  1  0  0  0  0
 52 53  2  0  0  0  0
 38 54  1  0  0  0  0
 54 55  1  0  0  0  0
 37 56  1  0  0  0  0
 56 57  2  0  0  0  0
 57 58  1  0  0  0  0
 58 59  1  0  0  0  0
 59 60  2  0  0  0  0
 60 61  1  0  0  0  0
 61 62  2  0  0  0  0
 62 63  1  0  0  0  0
 63 64  1  0  0  0  0
 62 65  1  0  0  0  0
 65 66  2  0  0  0  0
 58 67  1  0  0  0  0
 67 68  2  0  0  0  0
 68 69  1  0  0  0  0
 69 70  2  0  0  0  0
 70 71  1  0  0  0  0
 71 72  1  0  0  0  0
 70 73  1  0  0  0  0
 73 74  2  0  0  0  0
 57 75  1  0  0  0  0
 75 76  1  0  0  0  0
 76 77  1  0  0  0  0
 77 78  2  0  0  0  0
 78 79  1  0  0  0  0
 79 80  1  0  0  0  0
 80 81  2  0  0  0  0
 81 82  1  0  0  0  0
 82 83  2  0  0  0  0
 83 84  1  0  0  0  0
 84 85  1  0  0  0  0
 83 86  1  0  0  0  0
 86 87  2  0  0  0  0
 79 88  1  0  0  0  0
 88 89  2  0  0  0  0
 89 90  1  0  0  0  0
 90 91  2  0  0  0  0
 91 92  1  0  0  0  0
 92 93  1  0  0  0  0
 91 94  1  0  0  0  0
 94 95  2  0  0  0  0
 78 96  1  0  0  0  0
 96 97  1  0  0  0  0
 77 98  1  0  0  0  0
 98 99  2  0  0  0  0
 99100  1  0  0  0  0
100101  1  0  0  0  0
101102  2  0  0  0  0
102103  1  0  0  0  0
103104  2  0  0  0  0
104105  1  0  0  0  0
105106  1  0  0  0  0
104107  1  0  0  0  0
107108  2  0  0  0  0
100109  1  0  0  0  0
109110  2  0  0  0  0
110111  1  0  0  0  0
111112  2  0  0  0  0
112113  1  0  0  0  0
113114  1  0  0  0  0
112115  1  0  0  0  0
115116  2  0  0  0  0
 99117  1  0  0  0  0
117118  1  0  0  0  0
118119  1  0  0  0  0
119120  2  0  0  0  0
120121  1  0  0  0  0
121122  1  0  0  0  0
122123  2  0  0  0  0
123124  1  0  0  0  0
124125  2  0  0  0  0
125126  1  0  0  0  0
126127  1  0  0  0  0
125128  1  0  0  0  0
128129  2  0  0  0  0
121130  1  0  0  0  0
130131  2  0  0  0  0
131132  1  0  0  0  0
132133  2  0  0  0  0
133134  1  0  0  0  0
134135  1  0  0  0  0
133136  1  0  0  0  0
136137  2  0  0  0  0
120138  1  0  0  0  0
138139  1  0  0  0  0
119140  1  0  0  0  0
140141  2  0  0  0  0
141142  1  0  0  0  0
142143  2  0  0  0  0
142144  1  0  0  0  0
144145  2  0  0  0  0
145146  1  0  0  0  0
146147  2  0  0  0  0
147148  1  0  0  0  0
147149  1  0  0  0  0
149150  2  0  0  0  0
150151  1  0  0  0  0
151152  2  0  0  0  0
152153  1  0  0  0  0
153154  3  0  0  0  0
152155  1  0  0  0  0
155156  3  0  0  0  0
 12  2  1  0  0  0  0
 55 18  1  0  0  0  0
 97 56  1  0  0  0  0
139 98  1  0  0  0  0
151141  1  0  0  0  0
 11  5  1  0  0  0  0
 27 21  1  0  0  0  0
 34 28  1  0  0  0  0
 54 35  2  0  0  0  0
 66 59  1  0  0  0  0
 74 67  1  0  0  0  0
 96 75  2  0  0  0  0
108101  1  0  0  0  0
116109  1  0  0  0  0
138117  2  0  0  0  0
150144  1  0  0  0  0
 46 40  1  0  0  0  0
 53 47  1  0  0  0  0
 87 80  1  0  0  0  0
 95 88  1  0  0  0  0
129122  1  0  0  0  0
137130  1  0  0  0  0
  1157  1  0  0  0  0
  6158  1  0  0  0  0
  7159  1  0  0  0  0
 10160  1  0  0  0  0
 22161  1  0  0  0  0
 23162  1  0  0  0  0
 25163  1  0  0  0  0
 25164  1  0  0  0  0
 25165  1  0  0  0  0
 26166  1  0  0  0  0
 27167  1  0  0  0  0
 29168  1  0  0  0  0
 30169  1  0  0  0  0
 32170  1  0  0  0  0
 32171  1  0  0  0  0
 32172  1  0  0  0  0
 33173  1  0  0  0  0
 34174  1  0  0  0  0
 41175  1  0  0  0  0
 42176  1  0  0  0  0
 44177  1  0  0  0  0
 44178  1  0  0  0  0
 44179  1  0  0  0  0
 45180  1  0  0  0  0
 46181  1  0  0  0  0
 48182  1  0  0  0  0
 49183  1  0  0  0  0
 51184  1  0  0  0  0
 51185  1  0  0  0  0
 51186  1  0  0  0  0
 52187  1  0  0  0  0
 53188  1  0  0  0  0
 60189  1  0  0  0  0
 61190  1  0  0  0  0
 64191  1  0  0  0  0
 64192  1  0  0  0  0
 64193  1  0  0  0  0
 65194  1  0  0  0  0
 66195  1  0  0  0  0
 68196  1  0  0  0  0
 69197  1  0  0  0  0
 72198  1  0  0  0  0
 72199  1  0  0  0  0
 72200  1  0  0  0  0
 73201  1  0  0  0  0
 74202  1  0  0  0  0
 81203  1  0  0  0  0
 82204  1  0  0  0  0
 85205  1  0  0  0  0
 85206  1  0  0  0  0
 85207  1  0  0  0  0
 86208  1  0  0  0  0
 87209  1  0  0  0  0
 89210  1  0  0  0  0
 90211  1  0  0  0  0
 93212  1  0  0  0  0
 93213  1  0  0  0  0
 93214  1  0  0  0  0
 94215  1  0  0  0  0
 95216  1  0  0  0  0
102217  1  0  0  0  0
103218  1  0  0  0  0
106219  1  0  0  0  0
106220  1  0  0  0  0
106221  1  0  0  0  0
107222  1  0  0  0  0
108223  1  0  0  0  0
110224  1  0  0  0  0
111225  1  0  0  0  0
114226  1  0  0  0  0
114227  1  0  0  0  0
114228  1  0  0  0  0
115229  1  0  0  0  0
116230  1  0  0  0  0
123231  1  0  0  0  0
124232  1  0  0  0  0
127233  1  0  0  0  0
127234  1  0  0  0  0
127235  1  0  0  0  0
128236  1  0  0  0  0
129237  1  0  0  0  0
131238  1  0  0  0  0
132239  1  0  0  0  0
135240  1  0  0  0  0
135241  1  0  0  0  0
135242  1  0  0  0  0
136243  1  0  0  0  0
137244  1  0  0  0  0
140245  1  0  0  0  0
145246  1  0  0  0  0
146247  1  0  0  0  0
149248  1  0  0  0  0
M  END
