202

C         -1.75950        7.39640        5.90650
C         -1.46210        8.70010        5.70570
C         -0.26520        9.20680        4.96070
O          0.71610        8.58690        4.62180
C         -0.45990       10.66740        4.89640
C          0.20330       11.77860        4.35470
C         -0.44450       12.93840        4.68430
Cl         0.01020       14.51340        4.22350
S         -1.86220       12.69840        5.67540
C         -1.58240       11.00460        5.63900
C         -2.21260        9.84750        6.20520
C         -3.31290        9.87070        7.02310
C         -3.92240       11.09360        7.37470
N         -4.42480       12.08370        7.66450
C         -3.92940        8.74820        7.60480
N         -4.47790        7.88180        8.12140
C         -1.17980        6.31100        5.16240
C         -0.89480        5.09230        5.75630
F         -1.05050        4.96150        7.08420
C         -0.41610        3.99920        5.03620
F         -0.04350        2.89980        5.71850
C         -0.27900        4.03770        3.65480
C         -0.48700        5.30020        3.02740
N         -0.25860        5.40740        1.71250
C         -0.46030        6.55060        1.10650
C         -0.19970        6.56940       -0.36660
C         -1.46510        6.16440       -1.12670
C         -0.99160        7.65520        1.83020
N         -1.23940        7.55700        3.11280
C         -0.95490        6.41660        3.75900
C         -1.25390        8.99500        1.21390
C          0.04100        9.81270        1.19470
C          0.01190        2.88230        2.86000
C         -0.44930        1.58260        3.06270
N         -1.35610        1.19090        4.03470
C         -1.08160        0.03250        4.77210
C          0.23760       -0.31130        5.06100
C          0.52030       -1.40630        5.84860
C         -0.51600       -2.17150        6.36480
S         -0.21430       -3.54580        7.44350
C          1.19180       -2.93530        8.42530
C         -1.83230       -1.86750        6.03600
C         -2.11500       -0.77530        5.24350
C         -2.39310        2.06190        4.39520
C         -2.98810        2.87290        3.42490
C         -3.89740        3.83880        3.78660
C         -4.25890        4.00970        5.12340
S         -5.35390        5.34450        5.48020
C         -5.71400        5.15230        7.24700
C         -3.72870        3.15530        6.08060
C         -2.80410        2.19450        5.71920
C          0.03680        0.71730        2.05940
S         -0.17350       -0.96700        1.70810
C          0.78900       -0.79490        0.24220
C          1.31380        0.48920        0.10830
N          2.24690        0.86900       -0.84710
C          2.05520        2.09570       -1.49650
C          0.78770        2.42670       -1.97370
C          0.58430        3.61740       -2.63330
C          1.63960        4.50660       -2.82230
S          1.27090        6.00500       -3.68860
C          2.90000        6.74550       -3.98270
C          2.89840        4.19010       -2.33190
C          3.10270        2.99330       -1.67540
C          3.39080        0.09530       -1.06280
C          3.85190       -0.78770       -0.08760
C          4.91010       -1.63400       -0.34820
C          5.54400       -1.60150       -1.58310
S          6.88160       -2.67990       -2.00220
C          6.38930       -4.22940       -1.18930
C          5.14010       -0.66470       -2.52810
C          4.07320        0.16890       -2.27710
C          0.83910        1.35000        1.11900
S          0.93820        3.05570        1.38640
C          0.82290       -1.80350       -0.75230
C          0.51910       -3.16000       -0.66010
N          0.22020       -3.87530        0.48690
C         -0.69250       -4.93980        0.33160
C         -1.92600       -4.70470       -0.26620
C         -2.81470       -5.74060       -0.48060
C         -2.47940       -7.03130       -0.09470
S         -3.51320       -8.43910       -0.33490
C         -5.03660       -7.75200       -1.04590
C         -1.24780       -7.26750        0.51630
C         -0.36300       -6.23560        0.72810
C          0.97170       -3.79720        1.66010
C          0.38180       -4.16140        2.87050
C          1.11700       -4.15840        4.03500
C          2.45080       -3.77420        4.01040
S          3.44230       -3.77460        5.48190
C          2.94060       -5.35130        6.24210
C          3.03400       -3.37260        2.81570
C          2.30520       -3.39540        1.64470
C          0.51970       -3.76210       -1.93590
S          0.27990       -5.38460       -2.46330
C          0.59790       -4.91020       -4.13820
C          0.71260       -3.50720       -4.26740
N          0.73320       -2.80380       -5.43310
C          0.09230       -3.25260       -6.60060
C          0.68400       -3.03010       -7.84270
C          0.11640       -3.55960       -8.98170
C         -1.04540       -4.32200       -8.89950
S         -1.64820       -5.09260      -10.36530
C         -2.34830       -6.63280       -9.69690
C         -1.68890       -4.46140       -7.67480
C         -1.12890       -3.92230       -6.53660
C          1.27490       -1.49490       -5.46470
C          2.63240       -1.28040       -5.24740
C          3.14380       -0.00520       -5.35210
C          2.30550        1.07640       -5.61670
S          3.05770        2.66920       -5.65290
C          1.78770        3.72550       -6.40590
C          0.94860        0.86160       -5.81950
C          0.44430       -0.42240       -5.76680
C          0.77260       -2.90110       -2.99300
S          1.09630       -1.30040       -2.42350
C          0.67280       -5.88270       -5.13540
C          0.82370       -7.24190       -4.99860
C          0.30670       -8.12610       -6.06830
O         -0.11950       -7.78780       -7.15490
C          0.34750       -9.48120       -5.48590
C         -0.00600      -10.78690       -5.86010
C          0.29850      -11.67330       -4.86380
Cl         0.04090      -13.35760       -4.89580
S          1.02870      -10.93350       -3.45960
C          0.90750       -9.40250       -4.22050
C          1.31860       -8.05490       -3.91390
C          2.21440       -7.72530       -2.92090
C          2.88940       -6.49640       -2.81770
N          3.52340       -5.54200       -2.71820
C          2.60580       -8.66970       -1.95370
N          2.91940       -9.41880       -1.14170
H         -2.51440        7.12090        6.63230
H          1.09760       11.74010        3.76170
H          0.58480        5.84240       -0.57940
H          0.12600        7.55500       -0.69450
H         -2.29090        6.83470       -0.89800
H         -1.27490        6.19730       -2.19620
H         -1.75360        5.15380       -0.84920
H         -1.99160        9.50910        1.83190
H         -1.64680        8.89180        0.20260
H          0.47880        9.82900        2.18860
H         -0.16520       10.83300        0.88070
H          0.76780        9.37880        0.51200
H          1.04450        0.30390        4.69320
H          1.54820       -1.64540        6.06860
H          1.27560       -3.60370        9.27650
H          2.10840       -2.95950        7.84360
H          0.97290       -1.92640        8.76030
H         -2.62990       -2.48640        6.41750
H         -3.13810       -0.52930        5.00100
H         -2.71330        2.75580        2.38710
H         -4.33770        4.48070        3.03890
H         -6.41270        5.94680        7.48800
H         -6.17090        4.18300        7.42490
H         -4.80860        5.28540        7.83040
H         -3.99950        3.24620        7.11960
H         -2.36170        1.57090        6.48090
H         -0.02750        1.73130       -1.83970
H         -0.39290        3.86780       -3.01720
H          3.54490        6.02540       -4.47810
H          2.72370        7.59770       -4.63190
H          3.33220        7.08200       -3.04470
H          3.72950        4.86570       -2.44880
H          4.08320        2.75330       -1.29330
H          3.38000       -0.80930        0.88360
H          5.24460       -2.31320        0.42030
H          6.50160       -4.15040       -0.11210
H          7.06450       -4.98900       -1.57070
H          5.36760       -4.47060       -1.46740
H          5.66410       -0.61580       -3.46990
H          3.74190        0.86840       -3.02720
H         -2.18520       -3.70060       -0.56980
H         -3.76120       -5.52570       -0.94970
H         -5.70810       -8.59640       -1.16530
H         -5.47170       -7.02950       -0.36170
H         -4.82960       -7.30700       -2.01480
H         -0.99060       -8.27410        0.80770
H          0.59550       -6.42750        1.18630
H         -0.65740       -4.45220        2.89180
H          0.64410       -4.45260        4.95790
H          1.93910       -5.27900        6.65510
H          3.65610       -5.54400        7.03530
H          2.99320       -6.13390        5.49180
H          4.06980       -3.06850        2.80980
H          2.77190       -3.13510        0.70700
H          1.60930       -2.47710       -7.90090
H          0.58820       -3.42150       -9.94180
H         -3.34400       -6.45730       -9.29930
H         -2.40650       -7.32070      -10.53440
H         -1.67910       -7.02340       -8.93530
H         -2.62180       -4.99670       -7.60260
H         -1.62160       -4.04500       -5.58330
H          3.27900       -2.11420       -5.01970
H          4.20230        0.16760       -5.24130
H          2.27260        4.67580       -6.60660
H          1.45190        3.28110       -7.33780
H          0.96440        3.87590       -5.71410
H          0.27790        1.68100       -6.01910
H         -0.60590       -0.59840       -5.94750
H          0.52070       -5.56300       -6.15920
H         -0.44720      -11.06310       -6.79910
