
  xtb     02092204243D
 energy: -331.663806713925 gnorm: 0.000417607140 xtb: 6.4.1 (unknown)
190206  0     0  0            999 V2000
    7.7077   -1.4083   -0.0251 C   0  0  0  0  0  0  0  0  0  0  0  0
    8.7616   -0.7892    0.6077 C   0  0  0  0  0  0  0  0  0  0  0  0
    8.7745    0.6218    1.0422 C   0  0  0  0  0  0  0  0  0  0  0  0
    7.8833    1.4396    0.9253 O   0  0  0  0  0  0  0  0  0  0  0  0
   10.1505    0.8530    1.5352 C   0  0  0  0  0  0  0  0  0  0  0  0
   10.8846    1.8966    2.1148 C   0  0  0  0  0  0  0  0  0  0  0  0
   12.1542    1.4825    2.4182 C   0  0  0  0  0  0  0  0  0  0  0  0
   13.3735    2.4232    3.1471 Cl  0  0  0  0  0  0  0  0  0  0  0  0
   12.4744   -0.1801    1.9991 S   0  0  0  0  0  0  0  0  0  0  0  0
   10.8748   -0.3182    1.3964 C   0  0  0  0  0  0  0  0  0  0  0  0
   10.0634   -1.3659    0.8397 C   0  0  0  0  0  0  0  0  0  0  0  0
   10.4378   -2.6830    0.7178 C   0  0  0  0  0  0  0  0  0  0  0  0
   11.7355   -3.1072    1.0611 C   0  0  0  0  0  0  0  0  0  0  0  0
   12.7829   -3.4791    1.3494 N   0  0  0  0  0  0  0  0  0  0  0  0
    9.5755   -3.7255    0.3377 C   0  0  0  0  0  0  0  0  0  0  0  0
    8.9123   -4.6288    0.0820 N   0  0  0  0  0  0  0  0  0  0  0  0
    6.3608   -1.0457    0.0522 C   0  0  0  0  0  0  0  0  0  0  0  0
    5.6353   -0.3333    1.0284 C   0  0  0  0  0  0  0  0  0  0  0  0
    6.0794    0.0248    2.2688 N   0  0  0  0  0  0  0  0  0  0  0  0
    7.1139   -0.6580    2.9224 C   0  0  0  0  0  0  0  0  0  0  0  0
    7.2395   -2.0422    2.8309 C   0  0  0  0  0  0  0  0  0  0  0  0
    8.3008   -2.6956    3.4211 C   0  0  0  0  0  0  0  0  0  0  0  0
    9.2633   -1.9742    4.1203 C   0  0  0  0  0  0  0  0  0  0  0  0
   10.7104   -2.6783    4.8317 S   0  0  0  0  0  0  0  0  0  0  0  0
   10.6372   -4.4272    4.3600 C   0  0  0  0  0  0  0  0  0  0  0  0
    9.1031   -0.5975    4.2734 C   0  0  0  0  0  0  0  0  0  0  0  0
    8.0433    0.0542    3.6839 C   0  0  0  0  0  0  0  0  0  0  0  0
    5.4414    1.0748    2.9543 C   0  0  0  0  0  0  0  0  0  0  0  0
    5.1325    2.2672    2.3011 C   0  0  0  0  0  0  0  0  0  0  0  0
    4.4929    3.2777    2.9830 C   0  0  0  0  0  0  0  0  0  0  0  0
    4.1537    3.1222    4.3268 C   0  0  0  0  0  0  0  0  0  0  0  0
    3.3164    4.4774    5.0819 S   0  0  0  0  0  0  0  0  0  0  0  0
    3.2084    4.0118    6.8345 C   0  0  0  0  0  0  0  0  0  0  0  0
    4.4843    1.9439    4.9846 C   0  0  0  0  0  0  0  0  0  0  0  0
    5.1265    0.9299    4.3008 C   0  0  0  0  0  0  0  0  0  0  0  0
    4.2852   -0.1824    0.6232 C   0  0  0  0  0  0  0  0  0  0  0  0
    2.9087    0.6040    1.3121 S   0  0  0  0  0  0  0  0  0  0  0  0
    1.8760   -0.0624    0.0600 C   0  0  0  0  0  0  0  0  0  0  0  0
    2.5821   -0.7659   -0.8973 C   0  0  0  0  0  0  0  0  0  0  0  0
    2.0321   -1.2999   -2.0518 N   0  0  0  0  0  0  0  0  0  0  0  0
    2.5759   -2.4753   -2.5895 C   0  0  0  0  0  0  0  0  0  0  0  0
    3.0155   -3.4904   -1.7450 C   0  0  0  0  0  0  0  0  0  0  0  0
    3.5991   -4.6343   -2.2537 C   0  0  0  0  0  0  0  0  0  0  0  0
    3.7497   -4.7847   -3.6245 C   0  0  0  0  0  0  0  0  0  0  0  0
    4.4984   -6.1921   -4.3815 S   0  0  0  0  0  0  0  0  0  0  0  0
    5.3703   -6.9979   -3.0069 C   0  0  0  0  0  0  0  0  0  0  0  0
    3.2847   -3.7838   -4.4760 C   0  0  0  0  0  0  0  0  0  0  0  0
    2.7091   -2.6413   -3.9684 C   0  0  0  0  0  0  0  0  0  0  0  0
    1.0627   -0.5761   -2.7634 C   0  0  0  0  0  0  0  0  0  0  0  0
    1.1323    0.8138   -2.8526 C   0  0  0  0  0  0  0  0  0  0  0  0
    0.1605    1.5200   -3.5264 C   0  0  0  0  0  0  0  0  0  0  0  0
   -0.9028    0.8579   -4.1337 C   0  0  0  0  0  0  0  0  0  0  0  0
   -2.1122    1.8717   -4.9309 S   0  0  0  0  0  0  0  0  0  0  0  0
   -3.0560    0.7075   -5.9523 C   0  0  0  0  0  0  0  0  0  0  0  0
   -0.9610   -0.5288   -4.0769 C   0  0  0  0  0  0  0  0  0  0  0  0
    0.0178   -1.2368   -3.4055 C   0  0  0  0  0  0  0  0  0  0  0  0
    3.9561   -0.8409   -0.5519 C   0  0  0  0  0  0  0  0  0  0  0  0
    5.3162   -1.6321   -1.2510 S   0  0  0  0  0  0  0  0  0  0  0  0
    0.4459    0.1298    0.0928 C   0  0  0  0  0  0  0  0  0  0  0  0
   -0.4987   -0.8302    0.3931 C   0  0  0  0  0  0  0  0  0  0  0  0
   -0.2010   -2.1108    0.8380 N   0  0  0  0  0  0  0  0  0  0  0  0
   -0.9918   -3.1889    0.4230 C   0  0  0  0  0  0  0  0  0  0  0  0
   -1.2475   -4.2568    1.2784 C   0  0  0  0  0  0  0  0  0  0  0  0
   -2.0424   -5.3113    0.8732 C   0  0  0  0  0  0  0  0  0  0  0  0
   -2.6092   -5.3111   -0.3941 C   0  0  0  0  0  0  0  0  0  0  0  0
   -3.6488   -6.5917   -1.0216 S   0  0  0  0  0  0  0  0  0  0  0  0
   -3.8384   -7.7309    0.3788 C   0  0  0  0  0  0  0  0  0  0  0  0
   -2.3567   -4.2434   -1.2529 C   0  0  0  0  0  0  0  0  0  0  0  0
   -1.5558   -3.1982   -0.8530 C   0  0  0  0  0  0  0  0  0  0  0  0
    0.8440   -2.2912    1.7517 C   0  0  0  0  0  0  0  0  0  0  0  0
    1.0505   -1.3707    2.7773 C   0  0  0  0  0  0  0  0  0  0  0  0
    2.1084   -1.5127    3.6519 C   0  0  0  0  0  0  0  0  0  0  0  0
    2.9764   -2.5867    3.5220 C   0  0  0  0  0  0  0  0  0  0  0  0
    4.3854   -2.8000    4.5759 S   0  0  0  0  0  0  0  0  0  0  0  0
    3.7639   -2.1765    6.1682 C   0  0  0  0  0  0  0  0  0  0  0  0
    2.7602   -3.5274    2.5197 C   0  0  0  0  0  0  0  0  0  0  0  0
    1.6995   -3.3888    1.6503 C   0  0  0  0  0  0  0  0  0  0  0  0
   -1.8113   -0.3247    0.2083 C   0  0  0  0  0  0  0  0  0  0  0  0
   -3.3947   -1.0056    0.3356 S   0  0  0  0  0  0  0  0  0  0  0  0
   -4.1015    0.5147   -0.1869 C   0  0  0  0  0  0  0  0  0  0  0  0
   -3.1494    1.4708   -0.5094 C   0  0  0  0  0  0  0  0  0  0  0  0
   -3.4021    2.6621   -1.1621 N   0  0  0  0  0  0  0  0  0  0  0  0
   -4.4228    2.7522   -2.1231 C   0  0  0  0  0  0  0  0  0  0  0  0
   -5.1739    3.9187   -2.2319 C   0  0  0  0  0  0  0  0  0  0  0  0
   -6.2611    3.9836   -3.0816 C   0  0  0  0  0  0  0  0  0  0  0  0
   -6.6110    2.8787   -3.8446 C   0  0  0  0  0  0  0  0  0  0  0  0
   -8.0318    2.8207   -4.8935 S   0  0  0  0  0  0  0  0  0  0  0  0
   -9.1041    4.1245   -4.2216 C   0  0  0  0  0  0  0  0  0  0  0  0
   -5.8101    1.7403   -3.8087 C   0  0  0  0  0  0  0  0  0  0  0  0
   -4.7269    1.6787   -2.9603 C   0  0  0  0  0  0  0  0  0  0  0  0
   -2.5096    3.7319   -0.9930 C   0  0  0  0  0  0  0  0  0  0  0  0
   -2.0748    4.4690   -2.0901 C   0  0  0  0  0  0  0  0  0  0  0  0
   -1.1869    5.5134   -1.9251 C   0  0  0  0  0  0  0  0  0  0  0  0
   -0.7144    5.8338   -0.6586 C   0  0  0  0  0  0  0  0  0  0  0  0
    0.4278    7.1364   -0.3240 S   0  0  0  0  0  0  0  0  0  0  0  0
    0.8025    7.8263   -1.9608 C   0  0  0  0  0  0  0  0  0  0  0  0
   -1.1525    5.1005    0.4423 C   0  0  0  0  0  0  0  0  0  0  0  0
   -2.0440    4.0636    0.2796 C   0  0  0  0  0  0  0  0  0  0  0  0
   -1.8462    0.9925   -0.2155 C   0  0  0  0  0  0  0  0  0  0  0  0
   -0.2688    1.6829   -0.3050 S   0  0  0  0  0  0  0  0  0  0  0  0
   -5.5116    0.6557   -0.3925 C   0  0  0  0  0  0  0  0  0  0  0  0
   -6.2674    1.7556   -0.0783 C   0  0  0  0  0  0  0  0  0  0  0  0
   -7.5513    1.7560   -0.6511 C   0  0  0  0  0  0  0  0  0  0  0  0
   -8.6097    3.1313   -0.5697 S   0  0  0  0  0  0  0  0  0  0  0  0
   -8.0781    4.0158    0.9456 C   0  0  0  0  0  0  0  0  0  0  0  0
   -7.0880    5.1348    0.6881 C   0  0  0  0  0  0  0  0  0  0  0  0
   -7.7894    0.6237   -1.4389 C   0  0  0  0  0  0  0  0  0  0  0  0
   -6.4121   -0.4663   -1.3558 S   0  0  0  0  0  0  0  0  0  0  0  0
   -8.7442    0.2887   -2.4129 C   0  0  0  0  0  0  0  0  0  0  0  0
  -10.0106    0.7580   -2.6383 C   0  0  0  0  0  0  0  0  0  0  0  0
  -10.9011    1.4005   -1.6600 C   0  0  0  0  0  0  0  0  0  0  0  0
  -10.6721    1.5937   -0.4809 O   0  0  0  0  0  0  0  0  0  0  0  0
  -12.1575    1.6574   -2.3905 C   0  0  0  0  0  0  0  0  0  0  0  0
  -13.4127    2.2258   -2.1313 C   0  0  0  0  0  0  0  0  0  0  0  0
  -14.2141    2.1519   -3.2385 C   0  0  0  0  0  0  0  0  0  0  0  0
  -15.8124    2.7284   -3.3675 Cl  0  0  0  0  0  0  0  0  0  0  0  0
  -13.4553    1.3857   -4.6115 S   0  0  0  0  0  0  0  0  0  0  0  0
  -12.0321    1.1572   -3.6766 C   0  0  0  0  0  0  0  0  0  0  0  0
  -10.7302    0.5888   -3.8924 C   0  0  0  0  0  0  0  0  0  0  0  0
  -10.2726    0.0892   -5.0854 C   0  0  0  0  0  0  0  0  0  0  0  0
  -11.1188    0.0460   -6.2126 C   0  0  0  0  0  0  0  0  0  0  0  0
  -11.8085    0.0059   -7.1290 N   0  0  0  0  0  0  0  0  0  0  0  0
   -8.9723   -0.3890   -5.3346 C   0  0  0  0  0  0  0  0  0  0  0  0
   -7.9290   -0.7844   -5.6083 N   0  0  0  0  0  0  0  0  0  0  0  0
    7.9245   -2.2539   -0.6675 H   0  0  0  0  0  0  0  0  0  0  0  0
   10.5115    2.8851    2.3059 H   0  0  0  0  0  0  0  0  0  0  0  0
    6.5011   -2.6153    2.2920 H   0  0  0  0  0  0  0  0  0  0  0  0
    8.3687   -3.7665    3.3220 H   0  0  0  0  0  0  0  0  0  0  0  0
   10.6216   -4.5236    3.2785 H   0  0  0  0  0  0  0  0  0  0  0  0
    9.7716   -4.9004    4.8142 H   0  0  0  0  0  0  0  0  0  0  0  0
   11.5490   -4.8686    4.7501 H   0  0  0  0  0  0  0  0  0  0  0  0
    9.8353   -0.0452    4.8422 H   0  0  0  0  0  0  0  0  0  0  0  0
    7.9365    1.1231    3.7894 H   0  0  0  0  0  0  0  0  0  0  0  0
    5.4307    2.3976    1.2731 H   0  0  0  0  0  0  0  0  0  0  0  0
    4.2525    4.2051    2.4868 H   0  0  0  0  0  0  0  0  0  0  0  0
    2.7609    4.8651    7.3345 H   0  0  0  0  0  0  0  0  0  0  0  0
    2.5698    3.1413    6.9543 H   0  0  0  0  0  0  0  0  0  0  0  0
    4.2028    3.8320    7.2323 H   0  0  0  0  0  0  0  0  0  0  0  0
    4.2461    1.8032    6.0272 H   0  0  0  0  0  0  0  0  0  0  0  0
    5.3906    0.0134    4.8074 H   0  0  0  0  0  0  0  0  0  0  0  0
    2.9058   -3.3767   -0.6774 H   0  0  0  0  0  0  0  0  0  0  0  0
    3.9312   -5.3977   -1.5691 H   0  0  0  0  0  0  0  0  0  0  0  0
    4.6599   -7.4678   -2.3327 H   0  0  0  0  0  0  0  0  0  0  0  0
    5.9869   -6.2698   -2.4886 H   0  0  0  0  0  0  0  0  0  0  0  0
    5.9977   -7.7572   -3.4632 H   0  0  0  0  0  0  0  0  0  0  0  0
    3.3995   -3.9077   -5.5418 H   0  0  0  0  0  0  0  0  0  0  0  0
    2.3770   -1.8614   -4.6370 H   0  0  0  0  0  0  0  0  0  0  0  0
    1.9544    1.3394   -2.3899 H   0  0  0  0  0  0  0  0  0  0  0  0
    0.2119    2.5964   -3.5833 H   0  0  0  0  0  0  0  0  0  0  0  0
   -3.7307    1.3188   -6.5435 H   0  0  0  0  0  0  0  0  0  0  0  0
   -2.3777    0.1633   -6.6027 H   0  0  0  0  0  0  0  0  0  0  0  0
   -3.6339    0.0329   -5.3284 H   0  0  0  0  0  0  0  0  0  0  0  0
   -1.7655   -1.0714   -4.5473 H   0  0  0  0  0  0  0  0  0  0  0  0
   -0.0216   -2.3160   -3.3824 H   0  0  0  0  0  0  0  0  0  0  0  0
   -0.8262   -4.2589    2.2729 H   0  0  0  0  0  0  0  0  0  0  0  0
   -2.2187   -6.1208    1.5629 H   0  0  0  0  0  0  0  0  0  0  0  0
   -2.8778   -8.1644    0.6419 H   0  0  0  0  0  0  0  0  0  0  0  0
   -4.5096   -8.5099    0.0309 H   0  0  0  0  0  0  0  0  0  0  0  0
   -4.2833   -7.2104    1.2219 H   0  0  0  0  0  0  0  0  0  0  0  0
   -2.7966   -4.2479   -2.2382 H   0  0  0  0  0  0  0  0  0  0  0  0
   -1.3603   -2.3779   -1.5263 H   0  0  0  0  0  0  0  0  0  0  0  0
    0.3841   -0.5271    2.8785 H   0  0  0  0  0  0  0  0  0  0  0  0
    2.2581   -0.7709    4.4202 H   0  0  0  0  0  0  0  0  0  0  0  0
    2.7906   -2.6143    6.3667 H   0  0  0  0  0  0  0  0  0  0  0  0
    4.4808   -2.5020    6.9155 H   0  0  0  0  0  0  0  0  0  0  0  0
    3.7067   -1.0921    6.1607 H   0  0  0  0  0  0  0  0  0  0  0  0
    3.4340   -4.3658    2.4287 H   0  0  0  0  0  0  0  0  0  0  0  0
    1.5182   -4.1328    0.8889 H   0  0  0  0  0  0  0  0  0  0  0  0
   -4.9054    4.7803   -1.6382 H   0  0  0  0  0  0  0  0  0  0  0  0
   -6.8375    4.8931   -3.1280 H   0  0  0  0  0  0  0  0  0  0  0  0
  -10.0718    3.9799   -4.6924 H   0  0  0  0  0  0  0  0  0  0  0  0
   -9.1894    4.0016   -3.1457 H   0  0  0  0  0  0  0  0  0  0  0  0
   -8.7166    5.1052   -4.4811 H   0  0  0  0  0  0  0  0  0  0  0  0
   -6.0651    0.9022   -4.4397 H   0  0  0  0  0  0  0  0  0  0  0  0
   -4.1201    0.7870   -2.9194 H   0  0  0  0  0  0  0  0  0  0  0  0
   -2.4241    4.2079   -3.0779 H   0  0  0  0  0  0  0  0  0  0  0  0
   -0.8645    6.0603   -2.7962 H   0  0  0  0  0  0  0  0  0  0  0  0
    1.5213    8.6205   -1.7839 H   0  0  0  0  0  0  0  0  0  0  0  0
    1.2458    7.0627   -2.5930 H   0  0  0  0  0  0  0  0  0  0  0  0
   -0.0977    8.2379   -2.4079 H   0  0  0  0  0  0  0  0  0  0  0  0
   -0.7851    5.3568    1.4239 H   0  0  0  0  0  0  0  0  0  0  0  0
   -2.3862    3.5030    1.1373 H   0  0  0  0  0  0  0  0  0  0  0  0
   -5.8710    2.5565    0.5171 H   0  0  0  0  0  0  0  0  0  0  0  0
   -7.6979    3.2715    1.6421 H   0  0  0  0  0  0  0  0  0  0  0  0
   -9.0121    4.4175    1.3392 H   0  0  0  0  0  0  0  0  0  0  0  0
   -7.4983    5.8448   -0.0257 H   0  0  0  0  0  0  0  0  0  0  0  0
   -6.1516    4.7532    0.2906 H   0  0  0  0  0  0  0  0  0  0  0  0
   -6.8816    5.6597    1.6190 H   0  0  0  0  0  0  0  0  0  0  0  0
   -8.3805   -0.4453   -3.1227 H   0  0  0  0  0  0  0  0  0  0  0  0
  -13.7121    2.6643   -1.1981 H   0  0  0  0  0  0  0  0  0  0  0  0
  1  2  2  0  0  0  0
  2  3  1  0  0  0  0
  3  4  2  0  0  0  0
  3  5  1  0  0  0  0
  5  6  1  0  0  0  0
  6  7  2  0  0  0  0
  7  8  1  0  0  0  0
  7  9  1  0  0  0  0
  9 10  1  0  0  0  0
 10 11  1  0  0  0  0
 11 12  2  0  0  0  0
 12 13  1  0  0  0  0
 13 14  3  0  0  0  0
 12 15  1  0  0  0  0
 15 16  3  0  0  0  0
  1 17  1  0  0  0  0
 17 18  2  0  0  0  0
 18 19  1  0  0  0  0
 19 20  1  0  0  0  0
 20 21  2  0  0  0  0
 21 22  1  0  0  0  0
 22 23  2  0  0  0  0
 23 24  1  0  0  0  0
 24 25  1  0  0  0  0
 23 26  1  0  0  0  0
 26 27  2  0  0  0  0
 19 28  1  0  0  0  0
 28 29  2  0  0  0  0
 29 30  1  0  0  0  0
 30 31  2  0  0  0  0
 31 32  1  0  0  0  0
 32 33  1  0  0  0  0
 31 34  1  0  0  0  0
 34 35  2  0  0  0  0
 18 36  1  0  0  0  0
 36 37  1  0  0  0  0
 37 38  1  0  0  0  0
 38 39  2  0  0  0  0
 39 40  1  0  0  0  0
 40 41  1  0  0  0  0
 41 42  2  0  0  0  0
 42 43  1  0  0  0  0
 43 44  2  0  0  0  0
 44 45  1  0  0  0  0
 45 46  1  0  0  0  0
 44 47  1  0  0  0  0
 47 48  2  0  0  0  0
 40 49  1  0  0  0  0
 49 50  2  0  0  0  0
 50 51  1  0  0  0  0
 51 52  2  0  0  0  0
 52 53  1  0  0  0  0
 53 54  1  0  0  0  0
 52 55  1  0  0  0  0
 55 56  2  0  0  0  0
 39 57  1  0  0  0  0
 57 58  1  0  0  0  0
 38 59  1  0  0  0  0
 59 60  2  0  0  0  0
 60 61  1  0  0  0  0
 61 62  1  0  0  0  0
 62 63  2  0  0  0  0
 63 64  1  0  0  0  0
 64 65  2  0  0  0  0
 65 66  1  0  0  0  0
 66 67  1  0  0  0  0
 65 68  1  0  0  0  0
 68 69  2  0  0  0  0
 61 70  1  0  0  0  0
 70 71  2  0  0  0  0
 71 72  1  0  0  0  0
 72 73  2  0  0  0  0
 73 74  1  0  0  0  0
 74 75  1  0  0  0  0
 73 76  1  0  0  0  0
 76 77  2  0  0  0  0
 60 78  1  0  0  0  0
 78 79  1  0  0  0  0
 79 80  1  0  0  0  0
 80 81  2  0  0  0  0
 81 82  1  0  0  0  0
 82 83  1  0  0  0  0
 83 84  2  0  0  0  0
 84 85  1  0  0  0  0
 85 86  2  0  0  0  0
 86 87  1  0  0  0  0
 87 88  1  0  0  0  0
 86 89  1  0  0  0  0
 89 90  2  0  0  0  0
 82 91  1  0  0  0  0
 91 92  2  0  0  0  0
 92 93  1  0  0  0  0
 93 94  2  0  0  0  0
 94 95  1  0  0  0  0
 95 96  1  0  0  0  0
 94 97  1  0  0  0  0
 97 98  2  0  0  0  0
 81 99  1  0  0  0  0
 99100  1  0  0  0  0
 80101  1  0  0  0  0
101102  2  0  0  0  0
102103  1  0  0  0  0
103104  1  0  0  0  0
104105  1  0  0  0  0
105106  1  0  0  0  0
103107  2  0  0  0  0
107108  1  0  0  0  0
107109  1  0  0  0  0
109110  2  0  0  0  0
110111  1  0  0  0  0
111112  2  0  0  0  0
111113  1  0  0  0  0
113114  1  0  0  0  0
114115  2  0  0  0  0
115116  1  0  0  0  0
115117  1  0  0  0  0
117118  1  0  0  0  0
118119  1  0  0  0  0
119120  2  0  0  0  0
120121  1  0  0  0  0
121122  3  0  0  0  0
120123  1  0  0  0  0
123124  3  0  0  0  0
 11  2  1  0  0  0  0
 58 17  1  0  0  0  0
100 59  1  0  0  0  0
108101  1  0  0  0  0
119110  1  0  0  0  0
 10  5  2  0  0  0  0
 27 20  1  0  0  0  0
 35 28  1  0  0  0  0
 57 36  2  0  0  0  0
 69 62  1  0  0  0  0
 77 70  1  0  0  0  0
 99 78  2  0  0  0  0
118113  2  0  0  0  0
 48 41  1  0  0  0  0
 56 49  1  0  0  0  0
 90 83  1  0  0  0  0
 98 91  1  0  0  0  0
  1125  1  0  0  0  0
  6126  1  0  0  0  0
 21127  1  0  0  0  0
 22128  1  0  0  0  0
 25129  1  0  0  0  0
 25130  1  0  0  0  0
 25131  1  0  0  0  0
 26132  1  0  0  0  0
 27133  1  0  0  0  0
 29134  1  0  0  0  0
 30135  1  0  0  0  0
 33136  1  0  0  0  0
 33137  1  0  0  0  0
 33138  1  0  0  0  0
 34139  1  0  0  0  0
 35140  1  0  0  0  0
 42141  1  0  0  0  0
 43142  1  0  0  0  0
 46143  1  0  0  0  0
 46144  1  0  0  0  0
 46145  1  0  0  0  0
 47146  1  0  0  0  0
 48147  1  0  0  0  0
 50148  1  0  0  0  0
 51149  1  0  0  0  0
 54150  1  0  0  0  0
 54151  1  0  0  0  0
 54152  1  0  0  0  0
 55153  1  0  0  0  0
 56154  1  0  0  0  0
 63155  1  0  0  0  0
 64156  1  0  0  0  0
 67157  1  0  0  0  0
 67158  1  0  0  0  0
 67159  1  0  0  0  0
 68160  1  0  0  0  0
 69161  1  0  0  0  0
 71162  1  0  0  0  0
 72163  1  0  0  0  0
 75164  1  0  0  0  0
 75165  1  0  0  0  0
 75166  1  0  0  0  0
 76167  1  0  0  0  0
 77168  1  0  0  0  0
 84169  1  0  0  0  0
 85170  1  0  0  0  0
 88171  1  0  0  0  0
 88172  1  0  0  0  0
 88173  1  0  0  0  0
 89174  1  0  0  0  0
 90175  1  0  0  0  0
 92176  1  0  0  0  0
 93177  1  0  0  0  0
 96178  1  0  0  0  0
 96179  1  0  0  0  0
 96180  1  0  0  0  0
 97181  1  0  0  0  0
 98182  1  0  0  0  0
102183  1  0  0  0  0
105184  1  0  0  0  0
105185  1  0  0  0  0
106186  1  0  0  0  0
106187  1  0  0  0  0
106188  1  0  0  0  0
109189  1  0  0  0  0
114190  1  0  0  0  0
M  END
