
  xtb     02092206183D
 energy: -396.623686913292 gnorm: 0.000717116296 xtb: 6.4.1 (unknown)
226246  0     0  0            999 V2000
   -4.2181   -0.8149    7.7561 C   0  0  0  0  0  0  0  0  0  0  0  0
   -4.7459    0.2882    8.3920 C   0  0  0  0  0  0  0  0  0  0  0  0
   -4.8876    1.6245    7.7800 C   0  0  0  0  0  0  0  0  0  0  0  0
   -4.5605    1.9647    6.6594 O   0  0  0  0  0  0  0  0  0  0  0  0
   -5.6247    2.4254    8.7811 C   0  0  0  0  0  0  0  0  0  0  0  0
   -6.0778    3.7436    8.9288 C   0  0  0  0  0  0  0  0  0  0  0  0
   -6.6747    3.9144   10.1491 C   0  0  0  0  0  0  0  0  0  0  0  0
   -7.3498    5.3598   10.7477 Cl  0  0  0  0  0  0  0  0  0  0  0  0
   -6.6976    2.4735   11.1323 S   0  0  0  0  0  0  0  0  0  0  0  0
   -5.8975    1.6244    9.8759 C   0  0  0  0  0  0  0  0  0  0  0  0
   -5.3667    0.3005    9.6933 C   0  0  0  0  0  0  0  0  0  0  0  0
   -5.3352   -0.6793   10.6573 C   0  0  0  0  0  0  0  0  0  0  0  0
   -4.6407   -1.8945   10.5335 C   0  0  0  0  0  0  0  0  0  0  0  0
   -4.0455   -2.8774   10.5184 N   0  0  0  0  0  0  0  0  0  0  0  0
   -5.9363   -0.4827   11.9147 C   0  0  0  0  0  0  0  0  0  0  0  0
   -6.4058   -0.3376   12.9527 N   0  0  0  0  0  0  0  0  0  0  0  0
   -3.3152   -0.7972    6.6915 C   0  0  0  0  0  0  0  0  0  0  0  0
   -2.3875    0.1810    6.2721 C   0  0  0  0  0  0  0  0  0  0  0  0
   -2.0049    1.3021    6.9567 N   0  0  0  0  0  0  0  0  0  0  0  0
   -1.4054    2.3661    6.2512 C   0  0  0  0  0  0  0  0  0  0  0  0
   -1.9866    2.8629    5.0890 C   0  0  0  0  0  0  0  0  0  0  0  0
   -1.3786    3.8824    4.3824 C   0  0  0  0  0  0  0  0  0  0  0  0
   -0.1866    4.4285    4.8391 C   0  0  0  0  0  0  0  0  0  0  0  0
    0.6913    5.7050    3.9928 S   0  0  0  0  0  0  0  0  0  0  0  0
   -0.5540    6.4088    2.8770 C   0  0  0  0  0  0  0  0  0  0  0  0
    0.3812    3.9517    6.0197 C   0  0  0  0  0  0  0  0  0  0  0  0
   -0.2197    2.9288    6.7195 C   0  0  0  0  0  0  0  0  0  0  0  0
   -2.1325    1.4258    8.3456 C   0  0  0  0  0  0  0  0  0  0  0  0
   -2.5007    2.6542    8.9001 C   0  0  0  0  0  0  0  0  0  0  0  0
   -2.7067    2.7703   10.2561 C   0  0  0  0  0  0  0  0  0  0  0  0
   -2.5491    1.6677   11.0959 C   0  0  0  0  0  0  0  0  0  0  0  0
   -2.9448    1.9110   12.7927 S   0  0  0  0  0  0  0  0  0  0  0  0
   -2.7097    0.2797   13.5480 C   0  0  0  0  0  0  0  0  0  0  0  0
   -2.1105    0.4627   10.5565 C   0  0  0  0  0  0  0  0  0  0  0  0
   -1.9041    0.3469    9.1972 C   0  0  0  0  0  0  0  0  0  0  0  0
   -1.7640   -0.2201    5.0718 C   0  0  0  0  0  0  0  0  0  0  0  0
   -0.5731    0.5075    4.0492 S   0  0  0  0  0  0  0  0  0  0  0  0
   -0.5642   -0.9051    3.0051 C   0  0  0  0  0  0  0  0  0  0  0  0
   -1.4056   -1.9115    3.4787 C   0  0  0  0  0  0  0  0  0  0  0  0
   -1.5376   -3.1674    2.8992 N   0  0  0  0  0  0  0  0  0  0  0  0
   -0.3961   -3.9324    2.6369 C   0  0  0  0  0  0  0  0  0  0  0  0
    0.7669   -3.7469    3.3798 C   0  0  0  0  0  0  0  0  0  0  0  0
    1.9121   -4.4642    3.0930 C   0  0  0  0  0  0  0  0  0  0  0  0
    1.9141   -5.3901    2.0594 C   0  0  0  0  0  0  0  0  0  0  0  0
    3.3179   -6.3530    1.5912 S   0  0  0  0  0  0  0  0  0  0  0  0
    4.5620   -5.9563    2.8526 C   0  0  0  0  0  0  0  0  0  0  0  0
    0.7495   -5.5857    1.3181 C   0  0  0  0  0  0  0  0  0  0  0  0
   -0.3892   -4.8674    1.5984 C   0  0  0  0  0  0  0  0  0  0  0  0
   -2.8312   -3.6787    2.7409 C   0  0  0  0  0  0  0  0  0  0  0  0
   -3.8741   -2.8130    2.4094 C   0  0  0  0  0  0  0  0  0  0  0  0
   -5.1566   -3.2916    2.2645 C   0  0  0  0  0  0  0  0  0  0  0  0
   -5.4246   -4.6485    2.4250 C   0  0  0  0  0  0  0  0  0  0  0  0
   -7.0942   -5.1702    2.1794 S   0  0  0  0  0  0  0  0  0  0  0  0
   -6.9299   -6.9581    1.9077 C   0  0  0  0  0  0  0  0  0  0  0  0
   -4.3931   -5.5112    2.7687 C   0  0  0  0  0  0  0  0  0  0  0  0
   -3.1107   -5.0286    2.9317 C   0  0  0  0  0  0  0  0  0  0  0  0
   -2.0996   -1.4950    4.6323 C   0  0  0  0  0  0  0  0  0  0  0  0
   -3.2453   -2.2502    5.6758 S   0  0  0  0  0  0  0  0  0  0  0  0
    0.0828   -0.8419    1.7509 C   0  0  0  0  0  0  0  0  0  0  0  0
    0.9147    0.1762    1.2853 C   0  0  0  0  0  0  0  0  0  0  0  0
    1.5332    1.1240    2.0888 N   0  0  0  0  0  0  0  0  0  0  0  0
    2.1997    0.7193    3.2516 C   0  0  0  0  0  0  0  0  0  0  0  0
    2.7205   -0.5707    3.3676 C   0  0  0  0  0  0  0  0  0  0  0  0
    3.3240   -0.9723    4.5374 C   0  0  0  0  0  0  0  0  0  0  0  0
    3.4317   -0.1011    5.6198 C   0  0  0  0  0  0  0  0  0  0  0  0
    4.2094   -0.7436    7.0685 S   0  0  0  0  0  0  0  0  0  0  0  0
    4.1647    0.6392    8.2422 C   0  0  0  0  0  0  0  0  0  0  0  0
    2.9321    1.1888    5.5030 C   0  0  0  0  0  0  0  0  0  0  0  0
    2.3218    1.5910    4.3325 C   0  0  0  0  0  0  0  0  0  0  0  0
    1.6335    2.4350    1.6100 C   0  0  0  0  0  0  0  0  0  0  0  0
    0.5762    2.9903    0.8885 C   0  0  0  0  0  0  0  0  0  0  0  0
    0.6673    4.2739    0.3971 C   0  0  0  0  0  0  0  0  0  0  0  0
    1.8044    5.0401    0.6357 C   0  0  0  0  0  0  0  0  0  0  0  0
    1.8231    6.6918    0.0080 S   0  0  0  0  0  0  0  0  0  0  0  0
    2.9922    7.5230    1.1252 C   0  0  0  0  0  0  0  0  0  0  0  0
    2.8653    4.4866    1.3389 C   0  0  0  0  0  0  0  0  0  0  0  0
    2.7824    3.1948    1.8147 C   0  0  0  0  0  0  0  0  0  0  0  0
    1.0860    0.0895   -0.1113 C   0  0  0  0  0  0  0  0  0  0  0  0
    1.8953    1.0637   -1.2816 S   0  0  0  0  0  0  0  0  0  0  0  0
    1.4090   -0.0385   -2.5713 C   0  0  0  0  0  0  0  0  0  0  0  0
    0.7230   -1.1541   -2.0863 C   0  0  0  0  0  0  0  0  0  0  0  0
    0.3398   -2.2803   -2.7864 N   0  0  0  0  0  0  0  0  0  0  0  0
   -0.7692   -3.0083   -2.3077 C   0  0  0  0  0  0  0  0  0  0  0  0
   -1.9680   -2.3570   -2.0328 C   0  0  0  0  0  0  0  0  0  0  0  0
   -3.0593   -3.0597   -1.5589 C   0  0  0  0  0  0  0  0  0  0  0  0
   -2.9701   -4.4316   -1.3695 C   0  0  0  0  0  0  0  0  0  0  0  0
   -4.3036   -5.4238   -0.7797 S   0  0  0  0  0  0  0  0  0  0  0  0
   -5.7612   -4.3828   -1.0701 C   0  0  0  0  0  0  0  0  0  0  0  0
   -1.7698   -5.0867   -1.6424 C   0  0  0  0  0  0  0  0  0  0  0  0
   -0.6789   -4.3844   -2.1019 C   0  0  0  0  0  0  0  0  0  0  0  0
    1.1002   -2.8275   -3.8276 C   0  0  0  0  0  0  0  0  0  0  0  0
    2.4749   -2.6244   -3.9173 C   0  0  0  0  0  0  0  0  0  0  0  0
    3.1911   -3.1018   -4.9977 C   0  0  0  0  0  0  0  0  0  0  0  0
    2.5491   -3.8089   -6.0046 C   0  0  0  0  0  0  0  0  0  0  0  0
    3.3619   -4.4419   -7.4346 S   0  0  0  0  0  0  0  0  0  0  0  0
    4.9058   -3.4896   -7.5056 C   0  0  0  0  0  0  0  0  0  0  0  0
    1.1831   -4.0634   -5.8923 C   0  0  0  0  0  0  0  0  0  0  0  0
    0.4652   -3.5711   -4.8274 C   0  0  0  0  0  0  0  0  0  0  0  0
    0.4913   -1.0192   -0.6938 C   0  0  0  0  0  0  0  0  0  0  0  0
   -0.3537   -1.9728    0.4756 S   0  0  0  0  0  0  0  0  0  0  0  0
    1.7516    0.3483   -3.8930 C   0  0  0  0  0  0  0  0  0  0  0  0
    1.3566   -0.1645   -5.0996 C   0  0  0  0  0  0  0  0  0  0  0  0
    1.9567    0.4673   -6.2116 C   0  0  0  0  0  0  0  0  0  0  0  0
    1.8228    0.1283   -7.5709 C   0  0  0  0  0  0  0  0  0  0  0  0
    0.9824   -0.9946   -8.0026 C   0  0  0  0  0  0  0  0  0  0  0  0
    1.4982   -1.9873   -8.8343 C   0  0  0  0  0  0  0  0  0  0  0  0
    0.7200   -3.0540   -9.2246 C   0  0  0  0  0  0  0  0  0  0  0  0
   -0.6006   -3.1826   -8.7950 C   0  0  0  0  0  0  0  0  0  0  0  0
   -1.4714   -4.6320   -9.2961 S   0  0  0  0  0  0  0  0  0  0  0  0
   -3.2190   -4.0769   -9.4384 C   0  0  0  0  0  0  0  0  0  0  0  0
   -3.9444   -4.9982  -10.3991 C   0  0  0  0  0  0  0  0  0  0  0  0
   -1.0988   -2.1914   -7.9548 C   0  0  0  0  0  0  0  0  0  0  0  0
   -2.3590   -2.2625   -7.4629 F   0  0  0  0  0  0  0  0  0  0  0  0
   -0.3358   -1.1072   -7.5737 C   0  0  0  0  0  0  0  0  0  0  0  0
    2.5733    0.8697   -8.4668 C   0  0  0  0  0  0  0  0  0  0  0  0
    3.4037    1.9558   -8.0867 C   0  0  0  0  0  0  0  0  0  0  0  0
    3.5104    2.3156   -6.7301 C   0  0  0  0  0  0  0  0  0  0  0  0
    4.2590    3.4935   -6.2830 C   0  0  0  0  0  0  0  0  0  0  0  0
    5.1332    3.4292   -5.2013 C   0  0  0  0  0  0  0  0  0  0  0  0
    5.7365    4.5661   -4.7028 C   0  0  0  0  0  0  0  0  0  0  0  0
    5.4769    5.8138   -5.2589 C   0  0  0  0  0  0  0  0  0  0  0  0
    6.1334    7.3367   -4.6673 S   0  0  0  0  0  0  0  0  0  0  0  0
    6.5759    6.9654   -2.9343 C   0  0  0  0  0  0  0  0  0  0  0  0
    5.3651    6.6473   -2.0780 C   0  0  0  0  0  0  0  0  0  0  0  0
    4.6408    5.8571   -6.3762 C   0  0  0  0  0  0  0  0  0  0  0  0
    4.0386    4.7302   -6.8886 C   0  0  0  0  0  0  0  0  0  0  0  0
    4.3914    7.0434   -6.9643 F   0  0  0  0  0  0  0  0  0  0  0  0
    2.8163    1.5277   -5.8271 C   0  0  0  0  0  0  0  0  0  0  0  0
    2.8486    1.7051   -4.0939 S   0  0  0  0  0  0  0  0  0  0  0  0
    4.0932    2.5056   -9.1897 C   0  0  0  0  0  0  0  0  0  0  0  0
    3.8399    1.8653  -10.3735 C   0  0  0  0  0  0  0  0  0  0  0  0
    2.6190    0.6141  -10.1886 S   0  0  0  0  0  0  0  0  0  0  0  0
    4.4253    2.1490  -11.6371 C   0  0  0  0  0  0  0  0  0  0  0  0
    4.6012    1.3018  -12.6818 C   0  0  0  0  0  0  0  0  0  0  0  0
    4.8429    1.8461  -14.0545 C   0  0  0  0  0  0  0  0  0  0  0  0
    5.1306    2.9833  -14.3402 O   0  0  0  0  0  0  0  0  0  0  0  0
    4.6035    0.7016  -14.9498 C   0  0  0  0  0  0  0  0  0  0  0  0
    4.5743    0.4546  -16.3306 C   0  0  0  0  0  0  0  0  0  0  0  0
    4.3163   -0.8656  -16.5804 C   0  0  0  0  0  0  0  0  0  0  0  0
    4.1939   -1.5999  -18.1117 Cl  0  0  0  0  0  0  0  0  0  0  0  0
    4.1199   -1.8319  -15.1374 S   0  0  0  0  0  0  0  0  0  0  0  0
    4.3685   -0.4306  -14.1809 C   0  0  0  0  0  0  0  0  0  0  0  0
    4.4800   -0.1462  -12.7767 C   0  0  0  0  0  0  0  0  0  0  0  0
    4.6719   -1.0935  -11.8027 C   0  0  0  0  0  0  0  0  0  0  0  0
    4.5486   -2.4688  -12.0889 C   0  0  0  0  0  0  0  0  0  0  0  0
    4.4328   -3.5929  -12.2883 N   0  0  0  0  0  0  0  0  0  0  0  0
    5.0975   -0.8407  -10.4845 C   0  0  0  0  0  0  0  0  0  0  0  0
    5.5116   -0.7283   -9.4185 N   0  0  0  0  0  0  0  0  0  0  0  0
   -4.5391   -1.7969    8.0836 H   0  0  0  0  0  0  0  0  0  0  0  0
   -5.9702    4.5219    8.1971 H   0  0  0  0  0  0  0  0  0  0  0  0
   -2.9288    2.4546    4.7592 H   0  0  0  0  0  0  0  0  0  0  0  0
   -1.8423    4.2419    3.4784 H   0  0  0  0  0  0  0  0  0  0  0  0
   -0.1073    7.3045    2.4568 H   0  0  0  0  0  0  0  0  0  0  0  0
   -1.4419    6.6672    3.4457 H   0  0  0  0  0  0  0  0  0  0  0  0
   -0.7778    5.7069    2.0796 H   0  0  0  0  0  0  0  0  0  0  0  0
    1.3004    4.3927    6.3745 H   0  0  0  0  0  0  0  0  0  0  0  0
    0.2225    2.5581    7.6325 H   0  0  0  0  0  0  0  0  0  0  0  0
   -2.6463    3.5058    8.2533 H   0  0  0  0  0  0  0  0  0  0  0  0
   -3.0168    3.7121   10.6818 H   0  0  0  0  0  0  0  0  0  0  0  0
   -3.3562   -0.4518   13.0726 H   0  0  0  0  0  0  0  0  0  0  0  0
   -3.0016    0.3995   14.5866 H   0  0  0  0  0  0  0  0  0  0  0  0
   -1.6655   -0.0131   13.4877 H   0  0  0  0  0  0  0  0  0  0  0  0
   -1.9370   -0.3982   11.1815 H   0  0  0  0  0  0  0  0  0  0  0  0
   -1.5728   -0.5980    8.7936 H   0  0  0  0  0  0  0  0  0  0  0  0
    0.7818   -3.0336    4.1910 H   0  0  0  0  0  0  0  0  0  0  0  0
    2.7926   -4.2919    3.6903 H   0  0  0  0  0  0  0  0  0  0  0  0
    4.1756   -6.1917    3.8398 H   0  0  0  0  0  0  0  0  0  0  0  0
    4.8519   -4.9120    2.7787 H   0  0  0  0  0  0  0  0  0  0  0  0
    5.4147   -6.5902    2.6298 H   0  0  0  0  0  0  0  0  0  0  0  0
    0.7547   -6.3020    0.5112 H   0  0  0  0  0  0  0  0  0  0  0  0
   -1.2770   -5.0087    1.0022 H   0  0  0  0  0  0  0  0  0  0  0  0
   -3.6686   -1.7634    2.2573 H   0  0  0  0  0  0  0  0  0  0  0  0
   -5.9662   -2.6198    2.0196 H   0  0  0  0  0  0  0  0  0  0  0  0
   -6.7206   -7.4646    2.8454 H   0  0  0  0  0  0  0  0  0  0  0  0
   -6.1471   -7.1389    1.1766 H   0  0  0  0  0  0  0  0  0  0  0  0
   -7.8890   -7.2884    1.5210 H   0  0  0  0  0  0  0  0  0  0  0  0
   -4.5772   -6.5615    2.9239 H   0  0  0  0  0  0  0  0  0  0  0  0
   -2.3194   -5.7042    3.2186 H   0  0  0  0  0  0  0  0  0  0  0  0
    2.6484   -1.2598    2.5393 H   0  0  0  0  0  0  0  0  0  0  0  0
    3.7265   -1.9695    4.6284 H   0  0  0  0  0  0  0  0  0  0  0  0
    4.6390    0.2693    9.1460 H   0  0  0  0  0  0  0  0  0  0  0  0
    4.7279    1.4801    7.8484 H   0  0  0  0  0  0  0  0  0  0  0  0
    3.1355    0.9152    8.4529 H   0  0  0  0  0  0  0  0  0  0  0  0
    2.9968    1.8906    6.3182 H   0  0  0  0  0  0  0  0  0  0  0  0
    1.9137    2.5870    4.2615 H   0  0  0  0  0  0  0  0  0  0  0  0
   -0.3207    2.4105    0.7274 H   0  0  0  0  0  0  0  0  0  0  0  0
   -0.1453    4.7004   -0.1723 H   0  0  0  0  0  0  0  0  0  0  0  0
    2.7766    7.2313    2.1490 H   0  0  0  0  0  0  0  0  0  0  0  0
    2.8252    8.5875    0.9939 H   0  0  0  0  0  0  0  0  0  0  0  0
    4.0151    7.2788    0.8543 H   0  0  0  0  0  0  0  0  0  0  0  0
    3.7676    5.0505    1.5114 H   0  0  0  0  0  0  0  0  0  0  0  0
    3.6203    2.7659    2.3430 H   0  0  0  0  0  0  0  0  0  0  0  0
   -2.0433   -1.2912   -2.1924 H   0  0  0  0  0  0  0  0  0  0  0  0
   -3.9716   -2.5278   -1.3435 H   0  0  0  0  0  0  0  0  0  0  0  0
   -5.7755   -3.5558   -0.3668 H   0  0  0  0  0  0  0  0  0  0  0  0
   -6.6229   -5.0196   -0.8968 H   0  0  0  0  0  0  0  0  0  0  0  0
   -5.7557   -4.0348   -2.0985 H   0  0  0  0  0  0  0  0  0  0  0  0
   -1.7067   -6.1529   -1.4877 H   0  0  0  0  0  0  0  0  0  0  0  0
    0.2499   -4.8942   -2.3080 H   0  0  0  0  0  0  0  0  0  0  0  0
    2.9921   -2.0917   -3.1340 H   0  0  0  0  0  0  0  0  0  0  0  0
    4.2525   -2.9186   -5.0402 H   0  0  0  0  0  0  0  0  0  0  0  0
    4.6893   -2.4271   -7.4435 H   0  0  0  0  0  0  0  0  0  0  0  0
    5.3445   -3.7172   -8.4724 H   0  0  0  0  0  0  0  0  0  0  0  0
    5.5825   -3.8027   -6.7161 H   0  0  0  0  0  0  0  0  0  0  0  0
    0.6919   -4.6365   -6.6628 H   0  0  0  0  0  0  0  0  0  0  0  0
   -0.5991   -3.7443   -4.7706 H   0  0  0  0  0  0  0  0  0  0  0  0
    0.6549   -0.9673   -5.2027 H   0  0  0  0  0  0  0  0  0  0  0  0
    2.5257   -1.9371   -9.1589 H   0  0  0  0  0  0  0  0  0  0  0  0
    1.1320   -3.8226   -9.8592 H   0  0  0  0  0  0  0  0  0  0  0  0
   -3.2026   -3.0535   -9.8100 H   0  0  0  0  0  0  0  0  0  0  0  0
   -3.6723   -4.1037   -8.4486 H   0  0  0  0  0  0  0  0  0  0  0  0
   -3.4768   -4.9711  -11.3806 H   0  0  0  0  0  0  0  0  0  0  0  0
   -4.9820   -4.6857  -10.4958 H   0  0  0  0  0  0  0  0  0  0  0  0
   -3.9210   -6.0228  -10.0349 H   0  0  0  0  0  0  0  0  0  0  0  0
   -0.7851   -0.3518   -6.9476 H   0  0  0  0  0  0  0  0  0  0  0  0
    5.3585    2.4748   -4.7519 H   0  0  0  0  0  0  0  0  0  0  0  0
    6.4137    4.4726   -3.8696 H   0  0  0  0  0  0  0  0  0  0  0  0
    7.3129    6.1635   -2.9243 H   0  0  0  0  0  0  0  0  0  0  0  0
    7.0597    7.8826   -2.5981 H   0  0  0  0  0  0  0  0  0  0  0  0
    4.8463    5.7617   -2.4396 H   0  0  0  0  0  0  0  0  0  0  0  0
    4.6655    7.4798   -2.0867 H   0  0  0  0  0  0  0  0  0  0  0  0
    5.6840    6.4653   -1.0528 H   0  0  0  0  0  0  0  0  0  0  0  0
    3.3655    4.8288   -7.7260 H   0  0  0  0  0  0  0  0  0  0  0  0
    4.8153    3.2978   -9.1027 H   0  0  0  0  0  0  0  0  0  0  0  0
    4.7210    3.1790  -11.8101 H   0  0  0  0  0  0  0  0  0  0  0  0
    4.7351    1.1933  -17.0930 H   0  0  0  0  0  0  0  0  0  0  0  0
  1  2  2  0  0  0  0
  2  3  1  0  0  0  0
  3  4  2  0  0  0  0
  3  5  1  0  0  0  0
  5  6  1  0  0  0  0
  6  7  2  0  0  0  0
  7  8  1  0  0  0  0
  7  9  1  0  0  0  0
  9 10  1  0  0  0  0
 10 11  1  0  0  0  0
 11 12  2  0  0  0  0
 12 13  1  0  0  0  0
 13 14  3  0  0  0  0
 12 15  1  0  0  0  0
 15 16  3  0  0  0  0
  1 17  1  0  0  0  0
 17 18  2  0  0  0  0
 18 19  1  0  0  0  0
 19 20  1  0  0  0  0
 20 21  2  0  0  0  0
 21 22  1  0  0  0  0
 22 23  2  0  0  0  0
 23 24  1  0  0  0  0
 24 25  1  0  0  0  0
 23 26  1  0  0  0  0
 26 27  2  0  0  0  0
 19 28  1  0  0  0  0
 28 29  2  0  0  0  0
 29 30  1  0  0  0  0
 30 31  2  0  0  0  0
 31 32  1  0  0  0  0
 32 33  1  0  0  0  0
 31 34  1  0  0  0  0
 34 35  2  0  0  0  0
 18 36  1  0  0  0  0
 36 37  1  0  0  0  0
 37 38  1  0  0  0  0
 38 39  2  0  0  0  0
 39 40  1  0  0  0  0
 40 41  1  0  0  0  0
 41 42  2  0  0  0  0
 42 43  1  0  0  0  0
 43 44  2  0  0  0  0
 44 45  1  0  0  0  0
 45 46  1  0  0  0  0
 44 47  1  0  0  0  0
 47 48  2  0  0  0  0
 40 49  1  0  0  0  0
 49 50  2  0  0  0  0
 50 51  1  0  0  0  0
 51 52  2  0  0  0  0
 52 53  1  0  0  0  0
 53 54  1  0  0  0  0
 52 55  1  0  0  0  0
 55 56  2  0  0  0  0
 39 57  1  0  0  0  0
 57 58  1  0  0  0  0
 38 59  1  0  0  0  0
 59 60  2  0  0  0  0
 60 61  1  0  0  0  0
 61 62  1  0  0  0  0
 62 63  2  0  0  0  0
 63 64  1  0  0  0  0
 64 65  2  0  0  0  0
 65 66  1  0  0  0  0
 66 67  1  0  0  0  0
 65 68  1  0  0  0  0
 68 69  2  0  0  0  0
 61 70  1  0  0  0  0
 70 71  2  0  0  0  0
 71 72  1  0  0  0  0
 72 73  2  0  0  0  0
 73 74  1  0  0  0  0
 74 75  1  0  0  0  0
 73 76  1  0  0  0  0
 76 77  2  0  0  0  0
 60 78  1  0  0  0  0
 78 79  1  0  0  0  0
 79 80  1  0  0  0  0
 80 81  2  0  0  0  0
 81 82  1  0  0  0  0
 82 83  1  0  0  0  0
 83 84  2  0  0  0  0
 84 85  1  0  0  0  0
 85 86  2  0  0  0  0
 86 87  1  0  0  0  0
 87 88  1  0  0  0  0
 86 89  1  0  0  0  0
 89 90  2  0  0  0  0
 82 91  1  0  0  0  0
 91 92  2  0  0  0  0
 92 93  1  0  0  0  0
 93 94  2  0  0  0  0
 94 95  1  0  0  0  0
 95 96  1  0  0  0  0
 94 97  1  0  0  0  0
 97 98  2  0  0  0  0
 81 99  1  0  0  0  0
 99100  1  0  0  0  0
 80101  1  0  0  0  0
101102  2  0  0  0  0
102103  1  0  0  0  0
103104  2  0  0  0  0
104105  1  0  0  0  0
105106  2  0  0  0  0
106107  1  0  0  0  0
107108  2  0  0  0  0
108109  1  0  0  0  0
109110  1  0  0  0  0
110111  1  0  0  0  0
108112  1  0  0  0  0
112113  1  0  0  0  0
112114  2  0  0  0  0
104115  1  0  0  0  0
115116  2  0  0  0  0
116117  1  0  0  0  0
117118  1  0  0  0  0
118119  2  0  0  0  0
119120  1  0  0  0  0
120121  2  0  0  0  0
121122  1  0  0  0  0
122123  1  0  0  0  0
123124  1  0  0  0  0
121125  1  0  0  0  0
125126  2  0  0  0  0
125127  1  0  0  0  0
117128  2  0  0  0  0
128129  1  0  0  0  0
116130  1  0  0  0  0
130131  2  0  0  0  0
131132  1  0  0  0  0
131133  1  0  0  0  0
133134  2  0  0  0  0
134135  1  0  0  0  0
135136  2  0  0  0  0
135137  1  0  0  0  0
137138  1  0  0  0  0
138139  2  0  0  0  0
139140  1  0  0  0  0
139141  1  0  0  0  0
141142  1  0  0  0  0
142143  1  0  0  0  0
143144  2  0  0  0  0
144145  1  0  0  0  0
145146  3  0  0  0  0
144147  1  0  0  0  0
147148  3  0  0  0  0
 11  2  1  0  0  0  0
 58 17  1  0  0  0  0
100 59  1  0  0  0  0
129101  1  0  0  0  0
143134  1  0  0  0  0
 10  5  2  0  0  0  0
 27 20  1  0  0  0  0
 35 28  1  0  0  0  0
 57 36  2  0  0  0  0
 69 62  1  0  0  0  0
 77 70  1  0  0  0  0
 99 78  2  0  0  0  0
128103  1  0  0  0  0
142137  2  0  0  0  0
 48 41  1  0  0  0  0
 56 49  1  0  0  0  0
 90 83  1  0  0  0  0
 98 91  1  0  0  0  0
114105  1  0  0  0  0
132115  1  0  0  0  0
126118  1  0  0  0  0
  1149  1  0  0  0  0
  6150  1  0  0  0  0
 21151  1  0  0  0  0
 22152  1  0  0  0  0
 25153  1  0  0  0  0
 25154  1  0  0  0  0
 25155  1  0  0  0  0
 26156  1  0  0  0  0
 27157  1  0  0  0  0
 29158  1  0  0  0  0
 30159  1  0  0  0  0
 33160  1  0  0  0  0
 33161  1  0  0  0  0
 33162  1  0  0  0  0
 34163  1  0  0  0  0
 35164  1  0  0  0  0
 42165  1  0  0  0  0
 43166  1  0  0  0  0
 46167  1  0  0  0  0
 46168  1  0  0  0  0
 46169  1  0  0  0  0
 47170  1  0  0  0  0
 48171  1  0  0  0  0
 50172  1  0  0  0  0
 51173  1  0  0  0  0
 54174  1  0  0  0  0
 54175  1  0  0  0  0
 54176  1  0  0  0  0
 55177  1  0  0  0  0
 56178  1  0  0  0  0
 63179  1  0  0  0  0
 64180  1  0  0  0  0
 67181  1  0  0  0  0
 67182  1  0  0  0  0
 67183  1  0  0  0  0
 68184  1  0  0  0  0
 69185  1  0  0  0  0
 71186  1  0  0  0  0
 72187  1  0  0  0  0
 75188  1  0  0  0  0
 75189  1  0  0  0  0
 75190  1  0  0  0  0
 76191  1  0  0  0  0
 77192  1  0  0  0  0
 84193  1  0  0  0  0
 85194  1  0  0  0  0
 88195  1  0  0  0  0
 88196  1  0  0  0  0
 88197  1  0  0  0  0
 89198  1  0  0  0  0
 90199  1  0  0  0  0
 92200  1  0  0  0  0
 93201  1  0  0  0  0
 96202  1  0  0  0  0
 96203  1  0  0  0  0
 96204  1  0  0  0  0
 97205  1  0  0  0  0
 98206  1  0  0  0  0
102207  1  0  0  0  0
106208  1  0  0  0  0
107209  1  0  0  0  0
110210  1  0  0  0  0
110211  1  0  0  0  0
111212  1  0  0  0  0
111213  1  0  0  0  0
111214  1  0  0  0  0
114215  1  0  0  0  0
119216  1  0  0  0  0
120217  1  0  0  0  0
123218  1  0  0  0  0
123219  1  0  0  0  0
124220  1  0  0  0  0
124221  1  0  0  0  0
124222  1  0  0  0  0
126223  1  0  0  0  0
130224  1  0  0  0  0
133225  1  0  0  0  0
138226  1  0  0  0  0
M  END
