190

C          7.70770       -1.40830       -0.02510
C          8.76160       -0.78920        0.60770
C          8.77450        0.62180        1.04220
O          7.88330        1.43960        0.92530
C         10.15050        0.85300        1.53520
C         10.88460        1.89660        2.11480
C         12.15420        1.48250        2.41820
Cl        13.37350        2.42320        3.14710
S         12.47440       -0.18010        1.99910
C         10.87480       -0.31820        1.39640
C         10.06340       -1.36590        0.83970
C         10.43780       -2.68300        0.71780
C         11.73550       -3.10720        1.06110
N         12.78290       -3.47910        1.34940
C          9.57550       -3.72550        0.33770
N          8.91230       -4.62880        0.08200
C          6.36080       -1.04570        0.05220
C          5.63530       -0.33330        1.02840
N          6.07940        0.02480        2.26880
C          7.11390       -0.65800        2.92240
C          7.23950       -2.04220        2.83090
C          8.30080       -2.69560        3.42110
C          9.26330       -1.97420        4.12030
S         10.71040       -2.67830        4.83170
C         10.63720       -4.42720        4.36000
C          9.10310       -0.59750        4.27340
C          8.04330        0.05420        3.68390
C          5.44140        1.07480        2.95430
C          5.13250        2.26720        2.30110
C          4.49290        3.27770        2.98300
C          4.15370        3.12220        4.32680
S          3.31640        4.47740        5.08190
C          3.20840        4.01180        6.83450
C          4.48430        1.94390        4.98460
C          5.12650        0.92990        4.30080
C          4.28520       -0.18240        0.62320
S          2.90870        0.60400        1.31210
C          1.87600       -0.06240        0.06000
C          2.58210       -0.76590       -0.89730
N          2.03210       -1.29990       -2.05180
C          2.57590       -2.47530       -2.58950
C          3.01550       -3.49040       -1.74500
C          3.59910       -4.63430       -2.25370
C          3.74970       -4.78470       -3.62450
S          4.49840       -6.19210       -4.38150
C          5.37030       -6.99790       -3.00690
C          3.28470       -3.78380       -4.47600
C          2.70910       -2.64130       -3.96840
C          1.06270       -0.57610       -2.76340
C          1.13230        0.81380       -2.85260
C          0.16050        1.52000       -3.52640
C         -0.90280        0.85790       -4.13370
S         -2.11220        1.87170       -4.93090
C         -3.05600        0.70750       -5.95230
C         -0.96100       -0.52880       -4.07690
C          0.01780       -1.23680       -3.40550
C          3.95610       -0.84090       -0.55190
S          5.31620       -1.63210       -1.25100
C          0.44590        0.12980        0.09280
C         -0.49870       -0.83020        0.39310
N         -0.20100       -2.11080        0.83800
C         -0.99180       -3.18890        0.42300
C         -1.24750       -4.25680        1.27840
C         -2.04240       -5.31130        0.87320
C         -2.60920       -5.31110       -0.39410
S         -3.64880       -6.59170       -1.02160
C         -3.83840       -7.73090        0.37880
C         -2.35670       -4.24340       -1.25290
C         -1.55580       -3.19820       -0.85300
C          0.84400       -2.29120        1.75170
C          1.05050       -1.37070        2.77730
C          2.10840       -1.51270        3.65190
C          2.97640       -2.58670        3.52200
S          4.38540       -2.80000        4.57590
C          3.76390       -2.17650        6.16820
C          2.76020       -3.52740        2.51970
C          1.69950       -3.38880        1.65030
C         -1.81130       -0.32470        0.20830
S         -3.39470       -1.00560        0.33560
C         -4.10150        0.51470       -0.18690
C         -3.14940        1.47080       -0.50940
N         -3.40210        2.66210       -1.16210
C         -4.42280        2.75220       -2.12310
C         -5.17390        3.91870       -2.23190
C         -6.26110        3.98360       -3.08160
C         -6.61100        2.87870       -3.84460
S         -8.03180        2.82070       -4.89350
C         -9.10410        4.12450       -4.22160
C         -5.81010        1.74030       -3.80870
C         -4.72690        1.67870       -2.96030
C         -2.50960        3.73190       -0.99300
C         -2.07480        4.46900       -2.09010
C         -1.18690        5.51340       -1.92510
C         -0.71440        5.83380       -0.65860
S          0.42780        7.13640       -0.32400
C          0.80250        7.82630       -1.96080
C         -1.15250        5.10050        0.44230
C         -2.04400        4.06360        0.27960
C         -1.84620        0.99250       -0.21550
S         -0.26880        1.68290       -0.30500
C         -5.51160        0.65570       -0.39250
C         -6.26740        1.75560       -0.07830
C         -7.55130        1.75600       -0.65110
S         -8.60970        3.13130       -0.56970
C         -8.07810        4.01580        0.94560
C         -7.08800        5.13480        0.68810
C         -7.78940        0.62370       -1.43890
S         -6.41210       -0.46630       -1.35580
C         -8.74420        0.28870       -2.41290
C        -10.01060        0.75800       -2.63830
C        -10.90110        1.40050       -1.66000
O        -10.67210        1.59370       -0.48090
C        -12.15750        1.65740       -2.39050
C        -13.41270        2.22580       -2.13130
C        -14.21410        2.15190       -3.23850
Cl       -15.81240        2.72840       -3.36750
S        -13.45530        1.38570       -4.61150
C        -12.03210        1.15720       -3.67660
C        -10.73020        0.58880       -3.89240
C        -10.27260        0.08920       -5.08540
C        -11.11880        0.04600       -6.21260
N        -11.80850        0.00590       -7.12900
C         -8.97230       -0.38900       -5.33460
N         -7.92900       -0.78440       -5.60830
H          7.92450       -2.25390       -0.66750
H         10.51150        2.88510        2.30590
H          6.50110       -2.61530        2.29200
H          8.36870       -3.76650        3.32200
H         10.62160       -4.52360        3.27850
H          9.77160       -4.90040        4.81420
H         11.54900       -4.86860        4.75010
H          9.83530       -0.04520        4.84220
H          7.93650        1.12310        3.78940
H          5.43070        2.39760        1.27310
H          4.25250        4.20510        2.48680
H          2.76090        4.86510        7.33450
H          2.56980        3.14130        6.95430
H          4.20280        3.83200        7.23230
H          4.24610        1.80320        6.02720
H          5.39060        0.01340        4.80740
H          2.90580       -3.37670       -0.67740
H          3.93120       -5.39770       -1.56910
H          4.65990       -7.46780       -2.33270
H          5.98690       -6.26980       -2.48860
H          5.99770       -7.75720       -3.46320
H          3.39950       -3.90770       -5.54180
H          2.37700       -1.86140       -4.63700
H          1.95440        1.33940       -2.38990
H          0.21190        2.59640       -3.58330
H         -3.73070        1.31880       -6.54350
H         -2.37770        0.16330       -6.60270
H         -3.63390        0.03290       -5.32840
H         -1.76550       -1.07140       -4.54730
H         -0.02160       -2.31600       -3.38240
H         -0.82620       -4.25890        2.27290
H         -2.21870       -6.12080        1.56290
H         -2.87780       -8.16440        0.64190
H         -4.50960       -8.50990        0.03090
H         -4.28330       -7.21040        1.22190
H         -2.79660       -4.24790       -2.23820
H         -1.36030       -2.37790       -1.52630
H          0.38410       -0.52710        2.87850
H          2.25810       -0.77090        4.42020
H          2.79060       -2.61430        6.36670
H          4.48080       -2.50200        6.91550
H          3.70670       -1.09210        6.16070
H          3.43400       -4.36580        2.42870
H          1.51820       -4.13280        0.88890
H         -4.90540        4.78030       -1.63820
H         -6.83750        4.89310       -3.12800
H        -10.07180        3.97990       -4.69240
H         -9.18940        4.00160       -3.14570
H         -8.71660        5.10520       -4.48110
H         -6.06510        0.90220       -4.43970
H         -4.12010        0.78700       -2.91940
H         -2.42410        4.20790       -3.07790
H         -0.86450        6.06030       -2.79620
H          1.52130        8.62050       -1.78390
H          1.24580        7.06270       -2.59300
H         -0.09770        8.23790       -2.40790
H         -0.78510        5.35680        1.42390
H         -2.38620        3.50300        1.13730
H         -5.87100        2.55650        0.51710
H         -7.69790        3.27150        1.64210
H         -9.01210        4.41750        1.33920
H         -7.49830        5.84480       -0.02570
H         -6.15160        4.75320        0.29060
H         -6.88160        5.65970        1.61900
H         -8.38050       -0.44530       -3.12270
H        -13.71210        2.66430       -1.19810
