
  xtb     02032219343D
 energy: -297.472517915938 gnorm: 0.000673873148 xtb: 6.4.1 (unknown)
148164  0     0  0            999 V2000
    6.8208    7.1561   -2.2405 C   0  0  0  0  0  0  0  0  0  0  0  0
    8.1065    6.8921   -2.6141 C   0  0  0  0  0  0  0  0  0  0  0  0
    8.8069    5.5815   -2.7384 C   0  0  0  0  0  0  0  0  0  0  0  0
    8.3633    4.4647   -2.5890 O   0  0  0  0  0  0  0  0  0  0  0  0
   10.1905    5.9213   -3.1102 C   0  0  0  0  0  0  0  0  0  0  0  0
   11.3818    5.2306   -3.3759 C   0  0  0  0  0  0  0  0  0  0  0  0
   12.3849    6.1064   -3.6915 C   0  0  0  0  0  0  0  0  0  0  0  0
   13.9920    5.7041   -4.0823 Cl  0  0  0  0  0  0  0  0  0  0  0  0
   11.8919    7.7828   -3.6720 S   0  0  0  0  0  0  0  0  0  0  0  0
   10.3064    7.2965   -3.2279 C   0  0  0  0  0  0  0  0  0  0  0  0
    9.0592    7.9503   -2.9510 C   0  0  0  0  0  0  0  0  0  0  0  0
    8.8721    9.3079   -3.0207 C   0  0  0  0  0  0  0  0  0  0  0  0
    9.9454   10.1560   -3.3697 C   0  0  0  0  0  0  0  0  0  0  0  0
   10.8107   10.8544   -3.6528 N   0  0  0  0  0  0  0  0  0  0  0  0
    7.6771   10.0153   -2.7882 C   0  0  0  0  0  0  0  0  0  0  0  0
    6.7473   10.6693   -2.6227 N   0  0  0  0  0  0  0  0  0  0  0  0
    5.7566    6.3093   -1.8561 C   0  0  0  0  0  0  0  0  0  0  0  0
    5.6484    4.9458   -1.7345 C   0  0  0  0  0  0  0  0  0  0  0  0
    4.3814    4.5122   -1.3040 C   0  0  0  0  0  0  0  0  0  0  0  0
    3.9614    3.1812   -1.0756 C   0  0  0  0  0  0  0  0  0  0  0  0
    4.8376    2.0408   -1.2109 C   0  0  0  0  0  0  0  0  0  0  0  0
    4.5233    0.8091   -1.7237 C   0  0  0  0  0  0  0  0  0  0  0  0
    5.5793   -0.1128   -1.6745 C   0  0  0  0  0  0  0  0  0  0  0  0
    6.7048    0.4073   -1.0969 C   0  0  0  0  0  0  0  0  0  0  0  0
    8.2604   -0.3271   -0.8009 S   0  0  0  0  0  0  0  0  0  0  0  0
    7.8681   -2.1106   -0.9091 C   0  0  0  0  0  0  0  0  0  0  0  0
    6.9822   -2.5776    0.2293 C   0  0  0  0  0  0  0  0  0  0  0  0
    6.4825    2.0590   -0.6270 S   0  0  0  0  0  0  0  0  0  0  0  0
    2.6341    3.0173   -0.7016 C   0  0  0  0  0  0  0  0  0  0  0  0
    1.7222    4.0874   -0.5251 C   0  0  0  0  0  0  0  0  0  0  0  0
    2.1550    5.4209   -0.7021 C   0  0  0  0  0  0  0  0  0  0  0  0
    1.2804    6.5346   -0.4261 C   0  0  0  0  0  0  0  0  0  0  0  0
    0.3581    6.6639    0.5800 C   0  0  0  0  0  0  0  0  0  0  0  0
   -0.3173    7.8923    0.5763 C   0  0  0  0  0  0  0  0  0  0  0  0
    0.0866    8.7178   -0.4386 C   0  0  0  0  0  0  0  0  0  0  0  0
   -0.5227   10.3271   -0.7120 S   0  0  0  0  0  0  0  0  0  0  0  0
    0.4421   10.8822   -2.1618 C   0  0  0  0  0  0  0  0  0  0  0  0
   -0.1070   10.3381   -3.4658 C   0  0  0  0  0  0  0  0  0  0  0  0
    1.3218    7.9778   -1.4058 S   0  0  0  0  0  0  0  0  0  0  0  0
    3.4740    5.5898   -1.1181 C   0  0  0  0  0  0  0  0  0  0  0  0
    4.2442    7.1119   -1.4386 S   0  0  0  0  0  0  0  0  0  0  0  0
    0.4251    3.6318   -0.1895 C   0  0  0  0  0  0  0  0  0  0  0  0
    0.3393    2.2759   -0.0368 C   0  0  0  0  0  0  0  0  0  0  0  0
    1.8802    1.4904   -0.3465 S   0  0  0  0  0  0  0  0  0  0  0  0
   -0.7599    1.4214    0.2572 C   0  0  0  0  0  0  0  0  0  0  0  0
   -0.5615   -0.2536   -0.1915 S   0  0  0  0  0  0  0  0  0  0  0  0
   -2.1307   -0.7102    0.4068 C   0  0  0  0  0  0  0  0  0  0  0  0
   -2.7560    0.4022    0.9189 C   0  0  0  0  0  0  0  0  0  0  0  0
   -4.3019    0.6014    1.6694 S   0  0  0  0  0  0  0  0  0  0  0  0
   -3.9585    2.3068    1.9525 C   0  0  0  0  0  0  0  0  0  0  0  0
   -4.9444    3.0915    2.6175 C   0  0  0  0  0  0  0  0  0  0  0  0
   -6.1691    2.6342    3.0649 C   0  0  0  0  0  0  0  0  0  0  0  0
   -6.9347    3.6258    3.6775 C   0  0  0  0  0  0  0  0  0  0  0  0
   -6.3018    4.8449    3.7007 C   0  0  0  0  0  0  0  0  0  0  0  0
   -6.8084    6.0926    4.2637 C   0  0  0  0  0  0  0  0  0  0  0  0
   -7.8783    6.2087    4.8109 O   0  0  0  0  0  0  0  0  0  0  0  0
   -5.9307    7.0904    4.0809 O   0  0  0  0  0  0  0  0  0  0  0  0
   -6.2831    8.3683    4.6085 C   0  0  0  0  0  0  0  0  0  0  0  0
   -5.9208    8.4771    6.0826 C   0  0  0  0  0  0  0  0  0  0  0  0
   -4.7437    4.7822    2.9648 S   0  0  0  0  0  0  0  0  0  0  0  0
   -2.7244    2.6736    1.4760 C   0  0  0  0  0  0  0  0  0  0  0  0
   -2.0029    1.6132    0.8557 C   0  0  0  0  0  0  0  0  0  0  0  0
   -2.1383    4.2670    1.6900 Cl  0  0  0  0  0  0  0  0  0  0  0  0
   -2.5587   -2.0598    0.3448 C   0  0  0  0  0  0  0  0  0  0  0  0
   -1.8477   -3.1084   -0.1710 C   0  0  0  0  0  0  0  0  0  0  0  0
   -2.5131   -4.3480   -0.0648 C   0  0  0  0  0  0  0  0  0  0  0  0
   -2.0808   -5.6052   -0.5226 C   0  0  0  0  0  0  0  0  0  0  0  0
   -0.7834   -5.7679   -1.1571 C   0  0  0  0  0  0  0  0  0  0  0  0
    0.6686   -5.1966   -0.3856 S   0  0  0  0  0  0  0  0  0  0  0  0
    1.6742   -5.7583   -1.6780 C   0  0  0  0  0  0  0  0  0  0  0  0
    3.1471   -5.5401   -1.6555 C   0  0  0  0  0  0  0  0  0  0  0  0
    3.4986   -4.0672   -1.8749 C   0  0  0  0  0  0  0  0  0  0  0  0
    0.9140   -6.3456   -2.6442 C   0  0  0  0  0  0  0  0  0  0  0  0
    1.5490   -7.0154   -4.0896 Cl  0  0  0  0  0  0  0  0  0  0  0  0
   -0.4775   -6.3597   -2.3511 C   0  0  0  0  0  0  0  0  0  0  0  0
   -1.6368   -6.9830   -3.4446 Cl  0  0  0  0  0  0  0  0  0  0  0  0
   -2.9340   -6.6836   -0.3154 C   0  0  0  0  0  0  0  0  0  0  0  0
   -4.1959   -6.5447    0.3230 C   0  0  0  0  0  0  0  0  0  0  0  0
   -4.6509   -5.2742    0.7405 C   0  0  0  0  0  0  0  0  0  0  0  0
   -5.9648   -5.0895    1.3276 C   0  0  0  0  0  0  0  0  0  0  0  0
   -6.1735   -4.2014    2.8077 S   0  0  0  0  0  0  0  0  0  0  0  0
   -7.8926   -4.3974    2.7742 C   0  0  0  0  0  0  0  0  0  0  0  0
   -8.7498   -3.7837    3.8246 C   0  0  0  0  0  0  0  0  0  0  0  0
   -8.7970   -2.2621    3.6695 C   0  0  0  0  0  0  0  0  0  0  0  0
   -8.2688   -5.1034    1.6700 C   0  0  0  0  0  0  0  0  0  0  0  0
   -7.1789   -5.5036    0.8507 C   0  0  0  0  0  0  0  0  0  0  0  0
   -7.4019   -6.3365   -0.6331 Cl  0  0  0  0  0  0  0  0  0  0  0  0
   -9.8956   -5.4872    1.2816 Cl  0  0  0  0  0  0  0  0  0  0  0  0
   -3.7846   -4.2113    0.5526 C   0  0  0  0  0  0  0  0  0  0  0  0
   -4.1117   -2.5519    0.9822 S   0  0  0  0  0  0  0  0  0  0  0  0
   -4.8176   -7.7904    0.4997 C   0  0  0  0  0  0  0  0  0  0  0  0
   -4.0971   -8.8548   -0.0069 C   0  0  0  0  0  0  0  0  0  0  0  0
   -2.5839   -8.3363   -0.7173 S   0  0  0  0  0  0  0  0  0  0  0  0
   -4.5851  -10.1795    0.0629 C   0  0  0  0  0  0  0  0  0  0  0  0
   -4.0725  -11.3401   -0.4337 C   0  0  0  0  0  0  0  0  0  0  0  0
   -2.8208  -11.4957   -1.2149 C   0  0  0  0  0  0  0  0  0  0  0  0
   -1.9989  -10.6428   -1.4736 O   0  0  0  0  0  0  0  0  0  0  0  0
   -2.7811  -12.9138   -1.6023 C   0  0  0  0  0  0  0  0  0  0  0  0
   -1.9434  -13.7599   -2.3430 C   0  0  0  0  0  0  0  0  0  0  0  0
   -2.4376  -15.0363   -2.3559 C   0  0  0  0  0  0  0  0  0  0  0  0
   -1.7448  -16.3802   -3.1359 Cl  0  0  0  0  0  0  0  0  0  0  0  0
   -3.9274  -15.2259   -1.4616 S   0  0  0  0  0  0  0  0  0  0  0  0
   -3.8882  -13.5564   -1.0677 C   0  0  0  0  0  0  0  0  0  0  0  0
   -4.7123  -12.6481   -0.3209 C   0  0  0  0  0  0  0  0  0  0  0  0
   -5.8531  -13.0034    0.3524 C   0  0  0  0  0  0  0  0  0  0  0  0
   -6.6686  -12.1463    1.1157 C   0  0  0  0  0  0  0  0  0  0  0  0
   -7.3702  -11.5065    1.7617 N   0  0  0  0  0  0  0  0  0  0  0  0
   -6.3057  -14.3402    0.3354 C   0  0  0  0  0  0  0  0  0  0  0  0
   -6.6809  -15.4244    0.3226 N   0  0  0  0  0  0  0  0  0  0  0  0
    6.5456    8.2045   -2.2171 H   0  0  0  0  0  0  0  0  0  0  0  0
   11.4981    4.1640   -3.3369 H   0  0  0  0  0  0  0  0  0  0  0  0
    6.4632    4.2854   -1.9634 H   0  0  0  0  0  0  0  0  0  0  0  0
    3.5738    0.5786   -2.1717 H   0  0  0  0  0  0  0  0  0  0  0  0
    5.4992   -1.1118   -2.0611 H   0  0  0  0  0  0  0  0  0  0  0  0
    8.8443   -2.5930   -0.8685 H   0  0  0  0  0  0  0  0  0  0  0  0
    7.4235   -2.2989   -1.8853 H   0  0  0  0  0  0  0  0  0  0  0  0
    6.8069   -3.6484    0.1448 H   0  0  0  0  0  0  0  0  0  0  0  0
    6.0229   -2.0649    0.2115 H   0  0  0  0  0  0  0  0  0  0  0  0
    7.4614   -2.3786    1.1848 H   0  0  0  0  0  0  0  0  0  0  0  0
    0.2104    5.9155    1.3371 H   0  0  0  0  0  0  0  0  0  0  0  0
   -1.0671    8.1727    1.2927 H   0  0  0  0  0  0  0  0  0  0  0  0
    1.4776   10.5835   -1.9990 H   0  0  0  0  0  0  0  0  0  0  0  0
    0.3718   11.9692   -2.1306 H   0  0  0  0  0  0  0  0  0  0  0  0
   -1.1409   10.6469   -3.6012 H   0  0  0  0  0  0  0  0  0  0  0  0
   -0.0624    9.2517   -3.4823 H   0  0  0  0  0  0  0  0  0  0  0  0
    0.4840   10.7190   -4.2958 H   0  0  0  0  0  0  0  0  0  0  0  0
   -0.4224    4.2842   -0.1210 H   0  0  0  0  0  0  0  0  0  0  0  0
   -6.4850    1.6131    2.9443 H   0  0  0  0  0  0  0  0  0  0  0  0
   -7.9148    3.4776    4.0926 H   0  0  0  0  0  0  0  0  0  0  0  0
   -5.7211    9.0870    4.0087 H   0  0  0  0  0  0  0  0  0  0  0  0
   -7.3583    8.5229    4.4699 H   0  0  0  0  0  0  0  0  0  0  0  0
   -4.8617    8.2757    6.2254 H   0  0  0  0  0  0  0  0  0  0  0  0
   -6.4991    7.7603    6.6607 H   0  0  0  0  0  0  0  0  0  0  0  0
   -6.1440    9.4784    6.4392 H   0  0  0  0  0  0  0  0  0  0  0  0
   -0.8769   -2.9810   -0.6140 H   0  0  0  0  0  0  0  0  0  0  0  0
    3.5970   -6.1488   -2.4414 H   0  0  0  0  0  0  0  0  0  0  0  0
    3.5466   -5.8647   -0.6920 H   0  0  0  0  0  0  0  0  0  0  0  0
    3.0622   -3.4527   -1.0908 H   0  0  0  0  0  0  0  0  0  0  0  0
    4.5780   -3.9392   -1.8610 H   0  0  0  0  0  0  0  0  0  0  0  0
    3.1189   -3.7277   -2.8355 H   0  0  0  0  0  0  0  0  0  0  0  0
   -8.3521   -4.0328    4.8107 H   0  0  0  0  0  0  0  0  0  0  0  0
   -9.7556   -4.1977    3.7397 H   0  0  0  0  0  0  0  0  0  0  0  0
   -9.4289   -1.8279    4.4392 H   0  0  0  0  0  0  0  0  0  0  0  0
   -9.1995   -1.9945    2.6959 H   0  0  0  0  0  0  0  0  0  0  0  0
   -7.7968   -1.8444    3.7588 H   0  0  0  0  0  0  0  0  0  0  0  0
   -5.7623   -7.9221    0.9957 H   0  0  0  0  0  0  0  0  0  0  0  0
   -5.5335  -10.2493    0.5836 H   0  0  0  0  0  0  0  0  0  0  0  0
   -1.0397  -13.4555   -2.8364 H   0  0  0  0  0  0  0  0  0  0  0  0
  1  2  2  0  0  0  0
  2  3  1  0  0  0  0
  3  4  2  0  0  0  0
  3  5  1  0  0  0  0
  5  6  1  0  0  0  0
  6  7  2  0  0  0  0
  7  8  1  0  0  0  0
  7  9  1  0  0  0  0
  9 10  1  0  0  0  0
 10 11  1  0  0  0  0
 11 12  2  0  0  0  0
 12 13  1  0  0  0  0
 13 14  3  0  0  0  0
 12 15  1  0  0  0  0
 15 16  3  0  0  0  0
  1 17  1  0  0  0  0
 17 18  2  0  0  0  0
 18 19  1  0  0  0  0
 19 20  2  0  0  0  0
 20 21  1  0  0  0  0
 21 22  2  0  0  0  0
 22 23  1  0  0  0  0
 23 24  2  0  0  0  0
 24 25  1  0  0  0  0
 25 26  1  0  0  0  0
 26 27  1  0  0  0  0
 24 28  1  0  0  0  0
 20 29  1  0  0  0  0
 29 30  2  0  0  0  0
 30 31  1  0  0  0  0
 31 32  1  0  0  0  0
 32 33  2  0  0  0  0
 33 34  1  0  0  0  0
 34 35  2  0  0  0  0
 35 36  1  0  0  0  0
 36 37  1  0  0  0  0
 37 38  1  0  0  0  0
 35 39  1  0  0  0  0
 31 40  2  0  0  0  0
 40 41  1  0  0  0  0
 30 42  1  0  0  0  0
 42 43  2  0  0  0  0
 43 44  1  0  0  0  0
 43 45  1  0  0  0  0
 45 46  1  0  0  0  0
 46 47  1  0  0  0  0
 47 48  2  0  0  0  0
 48 49  1  0  0  0  0
 49 50  1  0  0  0  0
 50 51  1  0  0  0  0
 51 52  2  0  0  0  0
 52 53  1  0  0  0  0
 53 54  2  0  0  0  0
 54 55  1  0  0  0  0
 55 56  2  0  0  0  0
 55 57  1  0  0  0  0
 57 58  1  0  0  0  0
 58 59  1  0  0  0  0
 54 60  1  0  0  0  0
 50 61  2  0  0  0  0
 61 62  1  0  0  0  0
 61 63  1  0  0  0  0
 47 64  1  0  0  0  0
 64 65  2  0  0  0  0
 65 66  1  0  0  0  0
 66 67  2  0  0  0  0
 67 68  1  0  0  0  0
 68 69  1  0  0  0  0
 69 70  1  0  0  0  0
 70 71  1  0  0  0  0
 71 72  1  0  0  0  0
 70 73  2  0  0  0  0
 73 74  1  0  0  0  0
 73 75  1  0  0  0  0
 75 76  1  0  0  0  0
 67 77  1  0  0  0  0
 77 78  2  0  0  0  0
 78 79  1  0  0  0  0
 79 80  1  0  0  0  0
 80 81  1  0  0  0  0
 81 82  1  0  0  0  0
 82 83  1  0  0  0  0
 83 84  1  0  0  0  0
 82 85  2  0  0  0  0
 85 86  1  0  0  0  0
 86 87  1  0  0  0  0
 85 88  1  0  0  0  0
 79 89  2  0  0  0  0
 89 90  1  0  0  0  0
 78 91  1  0  0  0  0
 91 92  2  0  0  0  0
 92 93  1  0  0  0  0
 92 94  1  0  0  0  0
 94 95  2  0  0  0  0
 95 96  1  0  0  0  0
 96 97  2  0  0  0  0
 96 98  1  0  0  0  0
 98 99  1  0  0  0  0
 99100  2  0  0  0  0
100101  1  0  0  0  0
100102  1  0  0  0  0
102103  1  0  0  0  0
103104  1  0  0  0  0
104105  2  0  0  0  0
105106  1  0  0  0  0
106107  3  0  0  0  0
105108  1  0  0  0  0
108109  3  0  0  0  0
 11  2  1  0  0  0  0
 41 17  1  0  0  0  0
 62 45  2  0  0  0  0
 90 64  1  0  0  0  0
104 95  1  0  0  0  0
 10  5  2  0  0  0  0
 40 19  1  0  0  0  0
 62 48  1  0  0  0  0
 89 66  1  0  0  0  0
103 98  2  0  0  0  0
 28 21  1  0  0  0  0
 44 29  1  0  0  0  0
 60 51  1  0  0  0  0
 75 68  2  0  0  0  0
 93 77  1  0  0  0  0
 39 32  1  0  0  0  0
 86 80  2  0  0  0  0
  1110  1  0  0  0  0
  6111  1  0  0  0  0
 18112  1  0  0  0  0
 22113  1  0  0  0  0
 23114  1  0  0  0  0
 26115  1  0  0  0  0
 26116  1  0  0  0  0
 27117  1  0  0  0  0
 27118  1  0  0  0  0
 27119  1  0  0  0  0
 33120  1  0  0  0  0
 34121  1  0  0  0  0
 37122  1  0  0  0  0
 37123  1  0  0  0  0
 38124  1  0  0  0  0
 38125  1  0  0  0  0
 38126  1  0  0  0  0
 42127  1  0  0  0  0
 52128  1  0  0  0  0
 53129  1  0  0  0  0
 58130  1  0  0  0  0
 58131  1  0  0  0  0
 59132  1  0  0  0  0
 59133  1  0  0  0  0
 59134  1  0  0  0  0
 65135  1  0  0  0  0
 71136  1  0  0  0  0
 71137  1  0  0  0  0
 72138  1  0  0  0  0
 72139  1  0  0  0  0
 72140  1  0  0  0  0
 83141  1  0  0  0  0
 83142  1  0  0  0  0
 84143  1  0  0  0  0
 84144  1  0  0  0  0
 84145  1  0  0  0  0
 91146  1  0  0  0  0
 94147  1  0  0  0  0
 99148  1  0  0  0  0
M  END
