
  xtb     02032220103D
 energy: -295.113890127018 gnorm: 0.000746123188 xtb: 6.4.1 (unknown)
152168  0     0  0            999 V2000
   -9.1235   -5.7858    1.5088 C   0  0  0  0  0  0  0  0  0  0  0  0
   -9.8503   -6.5088    0.6075 C   0  0  0  0  0  0  0  0  0  0  0  0
   -9.6107   -6.7243   -0.8479 C   0  0  0  0  0  0  0  0  0  0  0  0
   -8.6940   -6.3307   -1.5355 O   0  0  0  0  0  0  0  0  0  0  0  0
  -10.7412   -7.5502   -1.3043 C   0  0  0  0  0  0  0  0  0  0  0  0
  -11.1794   -8.1164   -2.5104 C   0  0  0  0  0  0  0  0  0  0  0  0
  -12.3440   -8.8096   -2.3211 C   0  0  0  0  0  0  0  0  0  0  0  0
  -13.2251   -9.6494   -3.5111 Cl  0  0  0  0  0  0  0  0  0  0  0  0
  -12.9214   -8.7843   -0.6720 S   0  0  0  0  0  0  0  0  0  0  0  0
  -11.5710   -7.8211   -0.2292 C   0  0  0  0  0  0  0  0  0  0  0  0
  -11.0752   -7.2200    0.9762 C   0  0  0  0  0  0  0  0  0  0  0  0
  -11.6873   -7.3386    2.1983 C   0  0  0  0  0  0  0  0  0  0  0  0
  -11.2583   -6.7920    3.4231 C   0  0  0  0  0  0  0  0  0  0  0  0
  -10.9804   -6.3911    4.4629 N   0  0  0  0  0  0  0  0  0  0  0  0
  -12.8805   -8.0827    2.3248 C   0  0  0  0  0  0  0  0  0  0  0  0
  -13.8539   -8.6798    2.4354 N   0  0  0  0  0  0  0  0  0  0  0  0
   -7.9478   -5.0121    1.3733 C   0  0  0  0  0  0  0  0  0  0  0  0
   -7.1413   -4.7279    0.2979 C   0  0  0  0  0  0  0  0  0  0  0  0
   -6.0558   -3.8864    0.6100 C   0  0  0  0  0  0  0  0  0  0  0  0
   -5.0762   -3.3901   -0.2751 C   0  0  0  0  0  0  0  0  0  0  0  0
   -5.0389   -3.8034   -1.6819 C   0  0  0  0  0  0  0  0  0  0  0  0
   -4.9540   -2.8547   -2.6975 C   0  0  0  0  0  0  0  0  0  0  0  0
   -4.9251   -3.2477   -4.0209 C   0  0  0  0  0  0  0  0  0  0  0  0
   -4.9746   -4.5921   -4.3677 C   0  0  0  0  0  0  0  0  0  0  0  0
   -4.8992   -5.0167   -5.8052 C   0  0  0  0  0  0  0  0  0  0  0  0
   -3.4421   -5.2252   -6.2236 C   0  0  0  0  0  0  0  0  0  0  0  0
   -5.0467   -5.5370   -3.3512 C   0  0  0  0  0  0  0  0  0  0  0  0
   -5.0821   -5.1527   -2.0261 C   0  0  0  0  0  0  0  0  0  0  0  0
   -4.1587   -2.5030    0.2596 C   0  0  0  0  0  0  0  0  0  0  0  0
   -4.1621   -2.1027    1.6216 C   0  0  0  0  0  0  0  0  0  0  0  0
   -5.1283   -2.6077    2.5078 C   0  0  0  0  0  0  0  0  0  0  0  0
   -5.1752   -2.1907    3.9154 C   0  0  0  0  0  0  0  0  0  0  0  0
   -5.2032   -3.1349    4.9373 C   0  0  0  0  0  0  0  0  0  0  0  0
   -5.2523   -2.7332    6.2578 C   0  0  0  0  0  0  0  0  0  0  0  0
   -5.2851   -1.3856    6.5942 C   0  0  0  0  0  0  0  0  0  0  0  0
   -5.2918   -0.9526    8.0312 C   0  0  0  0  0  0  0  0  0  0  0  0
   -3.8597   -0.7706    8.5392 C   0  0  0  0  0  0  0  0  0  0  0  0
   -5.2663   -0.4460    5.5705 C   0  0  0  0  0  0  0  0  0  0  0  0
   -5.2124   -0.8393    4.2482 C   0  0  0  0  0  0  0  0  0  0  0  0
   -6.0494   -3.4975    1.9779 C   0  0  0  0  0  0  0  0  0  0  0  0
   -7.3700   -4.2218    2.8436 S   0  0  0  0  0  0  0  0  0  0  0  0
   -3.0925   -1.2235    1.9202 C   0  0  0  0  0  0  0  0  0  0  0  0
   -2.3066   -0.9344    0.8423 C   0  0  0  0  0  0  0  0  0  0  0  0
   -2.8328   -1.7723   -0.6080 S   0  0  0  0  0  0  0  0  0  0  0  0
   -1.1491   -0.1016    0.7762 C   0  0  0  0  0  0  0  0  0  0  0  0
    0.1678   -0.5739   -0.2665 S   0  0  0  0  0  0  0  0  0  0  0  0
    1.1424    0.7976    0.1844 C   0  0  0  0  0  0  0  0  0  0  0  0
    0.4482    1.5664    1.0905 C   0  0  0  0  0  0  0  0  0  0  0  0
    0.8412    3.0494    1.8860 S   0  0  0  0  0  0  0  0  0  0  0  0
   -0.7499    3.0891    2.6458 C   0  0  0  0  0  0  0  0  0  0  0  0
   -1.0412    4.2154    3.4758 C   0  0  0  0  0  0  0  0  0  0  0  0
   -2.1630    4.5140    4.2219 C   0  0  0  0  0  0  0  0  0  0  0  0
   -2.0586    5.7310    4.8997 C   0  0  0  0  0  0  0  0  0  0  0  0
   -0.8603    6.3667    4.6827 C   0  0  0  0  0  0  0  0  0  0  0  0
   -0.4236    7.6484    5.2287 C   0  0  0  0  0  0  0  0  0  0  0  0
   -1.1093    8.3679    5.9130 O   0  0  0  0  0  0  0  0  0  0  0  0
    0.8449    7.9089    4.8758 O   0  0  0  0  0  0  0  0  0  0  0  0
    1.3975    9.1536    5.3005 C   0  0  0  0  0  0  0  0  0  0  0  0
    1.1665   10.2373    4.2572 C   0  0  0  0  0  0  0  0  0  0  0  0
    0.1619    5.4639    3.6279 S   0  0  0  0  0  0  0  0  0  0  0  0
   -1.5106    1.9990    2.3047 C   0  0  0  0  0  0  0  0  0  0  0  0
   -0.8469    1.0850    1.4327 C   0  0  0  0  0  0  0  0  0  0  0  0
   -3.1365    1.7957    2.7964 Cl  0  0  0  0  0  0  0  0  0  0  0  0
    2.4385    1.0440   -0.3371 C   0  0  0  0  0  0  0  0  0  0  0  0
    3.1989    0.2678   -1.1678 C   0  0  0  0  0  0  0  0  0  0  0  0
    4.4610    0.8344   -1.4631 C   0  0  0  0  0  0  0  0  0  0  0  0
    5.4843    0.3209   -2.2830 C   0  0  0  0  0  0  0  0  0  0  0  0
    5.3903   -1.0073   -2.8623 C   0  0  0  0  0  0  0  0  0  0  0  0
    5.6807   -1.2916   -4.5525 S   0  0  0  0  0  0  0  0  0  0  0  0
    5.4192   -2.9932   -4.3912 C   0  0  0  0  0  0  0  0  0  0  0  0
    5.4764   -3.8997   -5.5704 C   0  0  0  0  0  0  0  0  0  0  0  0
    4.1150   -3.9839   -6.2649 C   0  0  0  0  0  0  0  0  0  0  0  0
    5.1192   -3.3077   -3.0986 C   0  0  0  0  0  0  0  0  0  0  0  0
    4.7990   -4.9024   -2.5513 Cl  0  0  0  0  0  0  0  0  0  0  0  0
    5.1062   -2.1865   -2.2277 C   0  0  0  0  0  0  0  0  0  0  0  0
    4.8507   -2.3378   -0.5370 Cl  0  0  0  0  0  0  0  0  0  0  0  0
    6.5966    1.1296   -2.4860 C   0  0  0  0  0  0  0  0  0  0  0  0
    6.7474    2.4064   -1.8803 C   0  0  0  0  0  0  0  0  0  0  0  0
    5.7260    2.9190   -1.0559 C   0  0  0  0  0  0  0  0  0  0  0  0
    5.7849    4.2485   -0.4781 C   0  0  0  0  0  0  0  0  0  0  0  0
    5.3925    4.5129    1.1950 S   0  0  0  0  0  0  0  0  0  0  0  0
    5.5444    6.2280    1.0414 C   0  0  0  0  0  0  0  0  0  0  0  0
    5.2241    7.1208    2.1882 C   0  0  0  0  0  0  0  0  0  0  0  0
    3.7090    7.2003    2.3953 C   0  0  0  0  0  0  0  0  0  0  0  0
    5.8861    6.5615   -0.2358 C   0  0  0  0  0  0  0  0  0  0  0  0
    6.0292    5.4434   -1.1007 C   0  0  0  0  0  0  0  0  0  0  0  0
    6.3608    5.6173   -2.7729 Cl  0  0  0  0  0  0  0  0  0  0  0  0
    6.1155    8.1722   -0.7768 Cl  0  0  0  0  0  0  0  0  0  0  0  0
    4.6237    2.1048   -0.8526 C   0  0  0  0  0  0  0  0  0  0  0  0
    3.2392    2.5362    0.1065 S   0  0  0  0  0  0  0  0  0  0  0  0
    7.9912    2.9974   -2.1703 C   0  0  0  0  0  0  0  0  0  0  0  0
    8.7786    2.2424   -3.0027 C   0  0  0  0  0  0  0  0  0  0  0  0
    7.9898    0.7229   -3.4350 S   0  0  0  0  0  0  0  0  0  0  0  0
   10.0533    2.4703   -3.5734 C   0  0  0  0  0  0  0  0  0  0  0  0
   10.9208    3.5171   -3.4666 C   0  0  0  0  0  0  0  0  0  0  0  0
   10.8064    4.7670   -2.6584 C   0  0  0  0  0  0  0  0  0  0  0  0
    9.9392    5.0920   -1.8780 O   0  0  0  0  0  0  0  0  0  0  0  0
   12.0113    5.5460   -2.9855 C   0  0  0  0  0  0  0  0  0  0  0  0
   12.5595    6.7868   -2.6299 C   0  0  0  0  0  0  0  0  0  0  0  0
   13.7552    6.9843   -3.2658 C   0  0  0  0  0  0  0  0  0  0  0  0
   14.7602    8.3506   -3.1265 Cl  0  0  0  0  0  0  0  0  0  0  0  0
   14.2309    5.6608   -4.3031 S   0  0  0  0  0  0  0  0  0  0  0  0
   12.7924    4.8271   -3.8755 C   0  0  0  0  0  0  0  0  0  0  0  0
   12.1859    3.5687   -4.2030 C   0  0  0  0  0  0  0  0  0  0  0  0
   12.7443    2.6459   -5.0504 C   0  0  0  0  0  0  0  0  0  0  0  0
   13.9913    2.9051   -5.6602 C   0  0  0  0  0  0  0  0  0  0  0  0
   15.0032    3.1057   -6.1622 N   0  0  0  0  0  0  0  0  0  0  0  0
   12.2129    1.3939   -5.4158 C   0  0  0  0  0  0  0  0  0  0  0  0
   11.8547    0.3602   -5.7660 N   0  0  0  0  0  0  0  0  0  0  0  0
   -9.5067   -5.7827    2.5231 H   0  0  0  0  0  0  0  0  0  0  0  0
  -10.6774   -8.0223   -3.4547 H   0  0  0  0  0  0  0  0  0  0  0  0
   -7.3383   -5.0989   -0.6905 H   0  0  0  0  0  0  0  0  0  0  0  0
   -4.9404   -1.8037   -2.4484 H   0  0  0  0  0  0  0  0  0  0  0  0
   -4.8711   -2.4983   -4.7976 H   0  0  0  0  0  0  0  0  0  0  0  0
   -5.3502   -4.2527   -6.4416 H   0  0  0  0  0  0  0  0  0  0  0  0
   -5.4508   -5.9483   -5.9450 H   0  0  0  0  0  0  0  0  0  0  0  0
   -2.9779   -5.9926   -5.6083 H   0  0  0  0  0  0  0  0  0  0  0  0
   -2.8780   -4.3031   -6.1024 H   0  0  0  0  0  0  0  0  0  0  0  0
   -3.3858   -5.5333   -7.2650 H   0  0  0  0  0  0  0  0  0  0  0  0
   -5.0812   -6.5874   -3.6015 H   0  0  0  0  0  0  0  0  0  0  0  0
   -5.1212   -5.9013   -1.2487 H   0  0  0  0  0  0  0  0  0  0  0  0
   -5.1668   -4.1867    4.6945 H   0  0  0  0  0  0  0  0  0  0  0  0
   -5.2683   -3.4778    7.0405 H   0  0  0  0  0  0  0  0  0  0  0  0
   -5.8314   -0.0088    8.1314 H   0  0  0  0  0  0  0  0  0  0  0  0
   -5.7977   -1.7028    8.6417 H   0  0  0  0  0  0  0  0  0  0  0  0
   -3.3091   -1.7057    8.4623 H   0  0  0  0  0  0  0  0  0  0  0  0
   -3.3406   -0.0188    7.9484 H   0  0  0  0  0  0  0  0  0  0  0  0
   -3.8625   -0.4537    9.5793 H   0  0  0  0  0  0  0  0  0  0  0  0
   -5.3008    0.6069    5.8123 H   0  0  0  0  0  0  0  0  0  0  0  0
   -5.2253   -0.0987    3.4619 H   0  0  0  0  0  0  0  0  0  0  0  0
   -2.8905   -0.8654    2.9123 H   0  0  0  0  0  0  0  0  0  0  0  0
   -3.0266    3.8797    4.2796 H   0  0  0  0  0  0  0  0  0  0  0  0
   -2.8226    6.1458    5.5318 H   0  0  0  0  0  0  0  0  0  0  0  0
    2.4638    8.9634    5.4439 H   0  0  0  0  0  0  0  0  0  0  0  0
    0.9389    9.4373    6.2533 H   0  0  0  0  0  0  0  0  0  0  0  0
    1.6555   11.1552    4.5701 H   0  0  0  0  0  0  0  0  0  0  0  0
    1.5702    9.9268    3.2963 H   0  0  0  0  0  0  0  0  0  0  0  0
    0.1012   10.4259    4.1476 H   0  0  0  0  0  0  0  0  0  0  0  0
    2.8531   -0.6715   -1.5586 H   0  0  0  0  0  0  0  0  0  0  0  0
    5.7755   -4.8940   -5.2333 H   0  0  0  0  0  0  0  0  0  0  0  0
    6.2225   -3.5289   -6.2747 H   0  0  0  0  0  0  0  0  0  0  0  0
    4.1741   -4.6524   -7.1193 H   0  0  0  0  0  0  0  0  0  0  0  0
    3.3633   -4.3627   -5.5771 H   0  0  0  0  0  0  0  0  0  0  0  0
    3.8065   -3.0004   -6.6112 H   0  0  0  0  0  0  0  0  0  0  0  0
    5.6253    8.1147    1.9839 H   0  0  0  0  0  0  0  0  0  0  0  0
    5.6926    6.7327    3.0946 H   0  0  0  0  0  0  0  0  0  0  0  0
    3.2289    7.6093    1.5099 H   0  0  0  0  0  0  0  0  0  0  0  0
    3.2989    6.2109    2.5840 H   0  0  0  0  0  0  0  0  0  0  0  0
    3.4778    7.8372    3.2438 H   0  0  0  0  0  0  0  0  0  0  0  0
    8.3111    3.9398   -1.7681 H   0  0  0  0  0  0  0  0  0  0  0  0
   10.3680    1.6621   -4.2239 H   0  0  0  0  0  0  0  0  0  0  0  0
   12.1089    7.4901   -1.9551 H   0  0  0  0  0  0  0  0  0  0  0  0
  1  2  2  0  0  0  0
  2  3  1  0  0  0  0
  3  4  2  0  0  0  0
  3  5  1  0  0  0  0
  5  6  1  0  0  0  0
  6  7  2  0  0  0  0
  7  8  1  0  0  0  0
  7  9  1  0  0  0  0
  9 10  1  0  0  0  0
 10 11  1  0  0  0  0
 11 12  2  0  0  0  0
 12 13  1  0  0  0  0
 13 14  3  0  0  0  0
 12 15  1  0  0  0  0
 15 16  3  0  0  0  0
  1 17  1  0  0  0  0
 17 18  2  0  0  0  0
 18 19  1  0  0  0  0
 19 20  2  0  0  0  0
 20 21  1  0  0  0  0
 21 22  2  0  0  0  0
 22 23  1  0  0  0  0
 23 24  2  0  0  0  0
 24 25  1  0  0  0  0
 25 26  1  0  0  0  0
 24 27  1  0  0  0  0
 27 28  2  0  0  0  0
 20 29  1  0  0  0  0
 29 30  2  0  0  0  0
 30 31  1  0  0  0  0
 31 32  1  0  0  0  0
 32 33  2  0  0  0  0
 33 34  1  0  0  0  0
 34 35  2  0  0  0  0
 35 36  1  0  0  0  0
 36 37  1  0  0  0  0
 35 38  1  0  0  0  0
 38 39  2  0  0  0  0
 31 40  2  0  0  0  0
 40 41  1  0  0  0  0
 30 42  1  0  0  0  0
 42 43  2  0  0  0  0
 43 44  1  0  0  0  0
 43 45  1  0  0  0  0
 45 46  1  0  0  0  0
 46 47  1  0  0  0  0
 47 48  2  0  0  0  0
 48 49  1  0  0  0  0
 49 50  1  0  0  0  0
 50 51  1  0  0  0  0
 51 52  2  0  0  0  0
 52 53  1  0  0  0  0
 53 54  2  0  0  0  0
 54 55  1  0  0  0  0
 55 56  2  0  0  0  0
 55 57  1  0  0  0  0
 57 58  1  0  0  0  0
 58 59  1  0  0  0  0
 54 60  1  0  0  0  0
 50 61  2  0  0  0  0
 61 62  1  0  0  0  0
 61 63  1  0  0  0  0
 47 64  1  0  0  0  0
 64 65  2  0  0  0  0
 65 66  1  0  0  0  0
 66 67  2  0  0  0  0
 67 68  1  0  0  0  0
 68 69  1  0  0  0  0
 69 70  1  0  0  0  0
 70 71  1  0  0  0  0
 71 72  1  0  0  0  0
 70 73  2  0  0  0  0
 73 74  1  0  0  0  0
 73 75  1  0  0  0  0
 75 76  1  0  0  0  0
 67 77  1  0  0  0  0
 77 78  2  0  0  0  0
 78 79  1  0  0  0  0
 79 80  1  0  0  0  0
 80 81  1  0  0  0  0
 81 82  1  0  0  0  0
 82 83  1  0  0  0  0
 83 84  1  0  0  0  0
 82 85  2  0  0  0  0
 85 86  1  0  0  0  0
 86 87  1  0  0  0  0
 85 88  1  0  0  0  0
 79 89  2  0  0  0  0
 89 90  1  0  0  0  0
 78 91  1  0  0  0  0
 91 92  2  0  0  0  0
 92 93  1  0  0  0  0
 92 94  1  0  0  0  0
 94 95  2  0  0  0  0
 95 96  1  0  0  0  0
 96 97  2  0  0  0  0
 96 98  1  0  0  0  0
 98 99  1  0  0  0  0
 99100  2  0  0  0  0
100101  1  0  0  0  0
100102  1  0  0  0  0
102103  1  0  0  0  0
103104  1  0  0  0  0
104105  2  0  0  0  0
105106  1  0  0  0  0
106107  3  0  0  0  0
105108  1  0  0  0  0
108109  3  0  0  0  0
 11  2  1  0  0  0  0
 41 17  1  0  0  0  0
 62 45  2  0  0  0  0
 90 64  1  0  0  0  0
104 95  1  0  0  0  0
 10  5  2  0  0  0  0
 40 19  1  0  0  0  0
 62 48  1  0  0  0  0
 89 66  1  0  0  0  0
103 98  2  0  0  0  0
 28 21  1  0  0  0  0
 44 29  1  0  0  0  0
 60 51  1  0  0  0  0
 75 68  2  0  0  0  0
 93 77  1  0  0  0  0
 39 32  1  0  0  0  0
 86 80  2  0  0  0  0
  1110  1  0  0  0  0
  6111  1  0  0  0  0
 18112  1  0  0  0  0
 22113  1  0  0  0  0
 23114  1  0  0  0  0
 25115  1  0  0  0  0
 25116  1  0  0  0  0
 26117  1  0  0  0  0
 26118  1  0  0  0  0
 26119  1  0  0  0  0
 27120  1  0  0  0  0
 28121  1  0  0  0  0
 33122  1  0  0  0  0
 34123  1  0  0  0  0
 36124  1  0  0  0  0
 36125  1  0  0  0  0
 37126  1  0  0  0  0
 37127  1  0  0  0  0
 37128  1  0  0  0  0
 38129  1  0  0  0  0
 39130  1  0  0  0  0
 42131  1  0  0  0  0
 52132  1  0  0  0  0
 53133  1  0  0  0  0
 58134  1  0  0  0  0
 58135  1  0  0  0  0
 59136  1  0  0  0  0
 59137  1  0  0  0  0
 59138  1  0  0  0  0
 65139  1  0  0  0  0
 71140  1  0  0  0  0
 71141  1  0  0  0  0
 72142  1  0  0  0  0
 72143  1  0  0  0  0
 72144  1  0  0  0  0
 83145  1  0  0  0  0
 83146  1  0  0  0  0
 84147  1  0  0  0  0
 84148  1  0  0  0  0
 84149  1  0  0  0  0
 91150  1  0  0  0  0
 94151  1  0  0  0  0
 99152  1  0  0  0  0
M  END
