170

C          8.62230        2.63630        1.01100
C          9.28820        3.35090        1.96260
C          8.69440        4.25810        2.97420
O          7.51960        4.49820        3.15610
C          9.83720        4.81100        3.71630
C         10.04690        5.70620        4.77490
C         11.38380        5.83240        5.04120
Cl        12.08670        6.81230        6.24240
S         12.40490        4.86110        4.00800
C         11.00830        4.27550        3.20080
C         10.73820        3.35860        2.12950
C         11.69700        2.64780        1.45210
C         11.46690        1.70840        0.43000
N         11.34600        0.92110       -0.39780
C         13.06280        2.80710        1.76930
N         14.17560        2.93170        2.01970
C          7.24120        2.52360        0.73920
C          6.76670        1.71010       -0.27420
C          5.36620        1.68460       -0.38250
C          4.56590        0.93340       -1.27300
C          5.11620       -0.08780       -2.17050
C          6.06210       -1.00980       -1.72410
C          6.49950       -2.02780       -2.55130
C          5.98740       -2.16170       -3.82910
C          5.03540       -1.25750       -4.27520
S          4.29890       -1.43960       -5.88790
C          3.47170       -3.05240       -5.62460
C          2.39610       -2.96390       -4.56010
C          4.62000       -0.21580       -3.46540
C          3.20010        1.13680       -1.18550
C          2.60150        2.02320       -0.25250
C          3.39370        2.74730        0.64560
C          2.77530        3.61950        1.65340
C          1.88220        4.61760        1.27800
C          1.28820        5.40730        2.24800
C          1.56890        5.20150        3.58420
C          2.46220        4.20110        3.96520
S          2.70670        3.98750        5.69980
C          4.10340        2.82240        5.85390
C          5.43560        3.46960        5.52950
C          3.06740        3.41610        2.99750
C          4.76450        2.55160        0.57020
S          5.93880        3.32120        1.59560
C          1.18770        1.91530       -0.24480
C          0.71710        0.95680       -1.08440
S          1.98440        0.23940       -2.05990
C         -0.61150        0.42330       -1.13350
C         -0.93430       -0.91810       -1.02480
N          0.00150       -1.91640       -0.77300
C         -0.09830       -3.13440       -1.44560
C         -0.66370       -3.18290       -2.71730
C         -0.79040       -4.38150       -3.39160
C         -0.34140       -5.55720       -2.80760
S         -0.42040       -7.14340       -3.58070
C         -1.43020       -6.85630       -5.06150
C          0.23010       -5.51290       -1.53670
C          0.34490       -4.32090       -0.85910
C          1.00670       -1.64810        0.16960
C          0.71400       -0.86420        1.28800
C          1.71360       -0.45810        2.14160
C          3.03380       -0.83550        1.91050
S          4.23220       -0.17510        3.02770
C          5.81930       -0.79330        2.41090
C          3.32410       -1.67340        0.84320
C          2.31960       -2.07430       -0.01830
C         -2.33860       -1.09840       -1.04430
S         -3.38320       -2.47080       -1.01650
C         -4.80180       -1.41890       -0.97150
C         -4.46370       -0.06930       -1.03610
N         -5.31410        1.01960       -1.07670
C         -4.87260        2.18870       -0.42550
C         -4.28920        2.09940        0.83490
C         -3.76720        3.21830        1.45340
C         -3.83350        4.45250        0.82070
S         -3.15990        5.93940        1.48470
C         -2.40120        5.42470        3.05210
C         -4.45950        4.55240       -0.42220
C         -4.97200        3.43500       -1.04200
C         -6.55430        0.99440       -1.71320
C         -6.77720        0.18180       -2.82430
C         -8.04450        0.04010       -3.35280
C         -9.11010        0.73430       -2.79530
S        -10.78910        0.54280       -3.30830
C        -10.75750       -0.95330       -4.33480
C         -8.87290        1.63090       -1.75560
C         -7.61450        1.75630       -1.21480
C         -3.05380        0.08740       -1.08070
S         -2.01230        1.46870       -1.14970
C         -6.07990       -2.03510       -0.91370
C         -6.40060       -3.27910       -1.42900
C         -7.75490       -3.56880       -1.33410
S         -8.43460       -5.03540       -2.02110
C         -9.31510       -5.75870       -0.57040
C        -10.47130       -6.61510       -1.04300
C         -8.51270       -2.53540       -0.75350
S         -7.45130       -1.28120       -0.16100
C         -9.90110       -2.42710       -0.87800
C        -10.72910       -1.40350       -0.49070
C        -10.34820       -0.26400        0.36200
O         -9.28420       -0.08840        0.92780
C        -11.53780        0.59740        0.41900
C        -11.90590        1.82710        0.98520
C        -13.19710        2.13940        0.65800
Cl       -14.04840        3.53770        1.12790
S        -13.98290        0.93990       -0.34010
C        -12.54920        0.00200       -0.31720
C        -12.11670       -1.24720       -0.88450
C        -12.91030       -2.06860       -1.64870
C        -14.24320       -1.71360       -1.93990
N        -15.32930       -1.43970       -2.19040
C        -12.52620       -3.29730       -2.20920
N        -12.27960       -4.31020       -2.69430
H          9.23080        2.04130        0.33940
H          9.27220        6.22490        5.30750
H          7.42770        1.16740       -0.92740
H          6.44240       -0.94830       -0.71550
H          7.23930       -2.72880       -2.19390
H          6.32410       -2.95930       -4.47360
H          3.04920       -3.30450       -6.59620
H          4.23340       -3.78650       -5.36420
H          1.91050       -3.92990       -4.43550
H          1.64540       -2.22750       -4.83640
H          2.82420       -2.66810       -3.60360
H          3.91030        0.49830       -3.85310
H          1.67030        4.78360        0.23230
H          0.60220        6.18900        1.95660
H          1.10440        5.80740        4.34730
H          3.89990        1.95080        5.23260
H          4.06440        2.51840        6.90060
H          5.61300        4.31510        6.19000
H          5.47050        3.82570        4.50290
H          6.23720        2.74630        5.66860
H          3.74030        2.61770        3.26210
H          0.55480        2.46020        0.43210
H         -0.99510       -2.27040       -3.19010
H         -1.22990       -4.37910       -4.37590
H         -0.89870       -6.21930       -5.76280
H         -2.38450       -6.42300       -4.77720
H         -1.58590       -7.83600       -5.50240
H          0.57240       -6.43130       -1.08490
H          0.76840       -4.30220        0.13350
H         -0.30410       -0.55550        1.47240
H          1.48490        0.16890        2.98970
H          5.98510       -0.42520        1.40290
H          6.57330       -0.38710        3.07850
H          5.83850       -1.87870        2.44860
H          4.33150       -2.00470        0.64910
H          2.56430       -2.69390       -0.86800
H         -4.23820        1.14050        1.33000
H         -3.31210        3.11200        2.42460
H         -3.16020        5.03240        3.72240
H         -1.61620        4.69680        2.86780
H         -1.97130        6.32700        3.47590
H         -4.52010        5.51740       -0.90140
H         -5.43740        3.51460       -2.01290
H         -5.95740       -0.37100       -3.25830
H         -8.18790       -0.62050       -4.19270
H        -10.24700       -0.75560       -5.27260
H        -10.28090       -1.76350       -3.78950
H        -11.79680       -1.19860       -4.53270
H         -9.69690        2.20000       -1.35360
H         -7.45370        2.40870       -0.37130
H         -5.68630       -3.93390       -1.89570
H         -9.64990       -4.93680        0.05880
H         -8.57520       -6.35140       -0.03050
H        -10.98030       -7.04880       -0.18460
H        -11.18310       -6.02070       -1.61190
H        -10.11080       -7.42090       -1.67800
H        -10.35290       -3.23710       -1.44150
H        -11.26890        2.44430        1.59030
