209

C         -9.85650       -2.90370       -5.61070
C        -10.25990       -2.60650       -6.87850
C         -9.39780       -2.21100       -8.01910
O         -8.19270       -2.08380       -8.02850
C        -10.32070       -2.01350       -9.14920
C        -10.23820       -1.64600      -10.50000
C        -11.48180       -1.62880      -11.07150
Cl       -11.84610       -1.23810      -12.68770
S        -12.77020       -2.06090       -9.97330
C        -11.61470       -2.26850       -8.72140
C        -11.64620       -2.63490       -7.33330
C        -12.78860       -2.92640       -6.63120
C        -14.04750       -2.89260       -7.26790
N        -15.07610       -2.86520       -7.77520
C        -12.86440       -3.26840       -5.26810
N        -13.00110       -3.54950       -4.16270
C         -8.57480       -2.88110       -5.01850
C         -8.39580       -3.18370       -3.68140
C         -7.06990       -3.05860       -3.23660
C         -6.56680       -3.24990       -1.93040
C         -7.43770       -3.56320       -0.79280
C         -8.60650       -2.84220       -0.55720
C         -9.38820       -3.12080        0.54980
C         -9.01760       -4.11410        1.43920
C         -7.85020       -4.82670        1.21220
S         -7.32690       -6.08760        2.36250
C         -6.84920       -4.99370        3.75110
C         -5.63600       -4.15090        3.41050
C         -7.06860       -4.56380        0.10240
C         -5.20620       -3.06680       -1.76450
C         -4.34780       -2.72240       -2.83750
C         -4.84250       -2.53060       -4.13370
C         -3.91000       -2.08590       -5.18190
C         -2.76180       -2.82670       -5.45930
C         -1.81730       -2.33320       -6.33810
C         -1.97840       -1.09310       -6.93140
C         -3.12940       -0.36040       -6.67560
S         -3.43010        1.25420       -7.31800
C         -2.18900        1.43330       -8.65490
C         -2.45750        2.71970       -9.41250
C         -4.10150       -0.86970       -5.81930
C         -6.20810       -2.68200       -4.30470
S         -7.06610       -2.45270       -5.79950
C         -3.03760       -2.43320       -2.39230
C         -2.88260       -2.50360       -1.04240
S         -4.34000       -3.05700       -0.24090
C         -1.73810       -1.95270       -0.37570
C         -1.18910       -0.74240       -0.77000
N         -1.78310        0.13980       -1.67440
C         -1.08550        0.52530       -2.82400
C         -1.34780        1.75610       -3.42270
C         -0.72130        2.11630       -4.59680
C          0.19450        1.25540       -5.18490
S          1.00150        1.61440       -6.72170
C          1.01760        3.43070       -6.75830
C          0.48780        0.04080       -4.57630
C         -0.14110       -0.32060       -3.40400
C         -3.16860        0.34030       -1.57240
C         -3.97720        0.46170       -2.70290
C         -5.34470        0.54610       -2.57400
C         -5.94460        0.50820       -1.31820
S         -7.70870        0.53950       -1.28800
C         -8.11680        0.48320        0.48010
C         -5.14430        0.43890       -0.18740
C         -3.77150        0.36430       -0.31700
C         -0.02180       -0.45460       -0.03100
S          1.09900        0.85200       -0.01520
C          1.94580        0.14620        1.36500
C          1.37050       -1.04590        1.77650
N          1.81850       -1.87670        2.79030
C          1.84670       -3.25650        2.54910
C          1.50790       -4.16490        3.54780
C          1.52780       -5.52370        3.30190
C          1.87770       -6.00030        2.04550
S          1.93350       -7.70840        1.60750
C          1.36250       -8.56650        3.10130
C          2.21930       -5.09400        1.04320
C          2.21000       -3.74060        1.29090
C          2.08030       -1.37950        4.07360
C          1.24790       -0.41960        4.64990
C          1.51900        0.06260        5.91230
C          2.62420       -0.39940        6.62260
S          2.87930        0.26710        8.23470
C          4.59520       -0.18490        8.61200
C          3.44360       -1.36950        6.05680
C          3.17150       -1.85580        4.79550
C          0.26530       -1.38720        0.95150
S         -0.88830       -2.68120        0.96700
C          3.07080        0.91000        1.81530
C          3.90350        1.59170        0.97080
C          4.82860        2.43910        1.62100
C          5.81130        3.26860        1.04750
C          5.98900        3.34220       -0.40920
C          7.25830        3.23470       -0.97320
C          7.42220        3.26590       -2.34610
C          6.32320        3.36760       -3.17940
C          5.05660        3.45500       -2.62270
S          3.61890        3.45040       -3.68120
C          3.78730        1.73210       -4.29220
C          3.57830        0.72110       -3.18310
C          4.88710        3.47820       -1.25040
C          6.59710        3.99480        1.92880
C          6.42670        3.94860        3.34190
C          5.43340        3.12550        3.91340
C          5.17870        3.11080        5.35990
C          3.88350        3.32520        5.82380
C          3.63400        3.36260        7.18400
C          4.66030        3.17090        8.08460
C          5.95660        2.93070        7.62980
S          7.16590        2.67040        8.89010
C          8.74450        2.40000        8.01670
C          8.87010        0.99110        7.46720
C          6.21540        2.90820        6.26810
C          4.67160        2.38450        3.03050
S          3.42040        1.25910        3.49590
C          7.30580        4.81180        4.01650
C          8.15570        5.50520        3.18650
S          7.84960        5.11990        1.49120
C          9.16790        6.45130        3.45050
C          9.75050        6.82030        4.63280
C          9.55970        6.23430        5.97270
O          8.99600        5.20320        6.27290
C         10.24520        7.15010        6.91240
C         10.23720        7.12600        8.29620
Cl         9.49900        5.85610        9.16460
C         10.83890        8.19280        8.97870
Cl        10.88130        8.19590       10.68790
C         11.36140        9.27240        8.26760
Cl        11.99890       10.60770        9.12480
C         11.36090        9.29210        6.86300
Cl        11.85360       10.72950        6.06790
C         10.86420        8.18590        6.18530
C         10.75320        7.87070        4.76320
C         11.58830        8.32030        3.77600
C         11.48550        7.99750        2.40390
N         11.48330        7.80540        1.27190
C         12.79120        9.03050        3.98990
N         13.83280        9.50550        4.06680
H        -10.63320       -3.19460       -4.91260
H         -9.32980       -1.40830      -11.02060
H         -9.21050       -3.49710       -3.05280
H         -8.88260       -2.04180       -1.22670
H        -10.29450       -2.55900        0.72130
H         -9.62830       -4.33820        2.30080
H         -6.64140       -5.67210        4.57740
H         -7.71130       -4.37550        4.00120
H         -5.84680       -3.49330        2.56860
H         -4.79560       -4.78670        3.14250
H         -5.35420       -3.54170        4.26720
H         -6.17810       -5.14920       -0.06780
H         -2.61980       -3.78750       -4.98720
H         -0.92860       -2.90840       -6.55230
H         -1.20390       -0.71180       -7.57650
H         -2.28690        0.56630       -9.30810
H         -1.19820        1.44930       -8.20100
H         -2.40550        3.57560       -8.74310
H         -1.71630        2.84500      -10.19910
H         -3.44710        2.69860       -9.86270
H         -4.99230       -0.29030       -5.63120
H         -2.25010       -2.13020       -3.05780
H         -2.06050        2.42670       -2.96780
H         -0.95900        3.06600       -5.04750
H          1.70030        3.70380       -7.55690
H          1.38690        3.80420       -5.80750
H          0.02540        3.81400       -6.97740
H          1.20210       -0.62360       -5.03750
H          0.09030       -1.26880       -2.93970
H         -3.53420        0.45820       -3.68620
H         -5.96930        0.61960       -3.45080
H         -7.70540        1.35340        0.98290
H         -9.20080        0.50880        0.53080
H         -7.74940       -0.44180        0.91600
H         -5.57170        0.43120        0.80210
H         -3.16120        0.30000        0.57190
H          1.21940       -3.80260        4.52330
H          1.25710       -6.19760        4.09840
H          0.35630       -8.24380        3.35190
H          2.05260       -8.38910        3.92110
H          1.35830       -9.62170        2.84650
H          2.49850       -5.46880        0.07050
H          2.48950       -3.04770        0.51080
H          0.39270       -0.05610        4.09950
H          0.87810        0.80400        6.36310
H          5.23340        0.11220        7.78560
H          4.86290        0.37740        9.50080
H          4.67180       -1.24960        8.81320
H          4.29730       -1.75390        6.59100
H          3.81050       -2.60730        4.35570
H          3.85420        1.46500       -0.09490
H          8.11900        3.10500       -0.33510
H          8.41260        3.19660       -2.77000
H          6.44420        3.37740       -4.25220
H          4.77420        1.63400       -4.74340
H          3.02960        1.62930       -5.06550
H          3.61670       -0.28720       -3.59020
H          2.60800        0.87050       -2.71260
H          4.35730        0.81610       -2.42750
H          3.89610        3.60450       -0.84200
H          3.08310        3.49590        5.12050
H          2.63260        3.54040        7.54430
H          4.47380        3.19880        9.14710
H          8.84300        3.16740        7.25110
H          9.49710        2.57750        8.78560
H          9.83730        0.87050        6.98280
H          8.09030        0.77840        6.73880
H          8.79160        0.26400        8.27300
H          7.20850        2.72600        5.89090
H          7.30070        4.93590        5.08190
H          9.51320        6.96710        2.56270
