
  xtb     02042217153D
 energy: -298.113976339588 gnorm: 0.000723648979 xtb: 6.4.1 (unknown)
170185  0     0  0            999 V2000
    8.6223    2.6363    1.0110 C   0  0  0  0  0  0  0  0  0  0  0  0
    9.2882    3.3509    1.9626 C   0  0  0  0  0  0  0  0  0  0  0  0
    8.6944    4.2581    2.9742 C   0  0  0  0  0  0  0  0  0  0  0  0
    7.5196    4.4982    3.1561 O   0  0  0  0  0  0  0  0  0  0  0  0
    9.8372    4.8110    3.7163 C   0  0  0  0  0  0  0  0  0  0  0  0
   10.0469    5.7062    4.7749 C   0  0  0  0  0  0  0  0  0  0  0  0
   11.3838    5.8324    5.0412 C   0  0  0  0  0  0  0  0  0  0  0  0
   12.0867    6.8123    6.2424 Cl  0  0  0  0  0  0  0  0  0  0  0  0
   12.4049    4.8611    4.0080 S   0  0  0  0  0  0  0  0  0  0  0  0
   11.0083    4.2755    3.2008 C   0  0  0  0  0  0  0  0  0  0  0  0
   10.7382    3.3586    2.1295 C   0  0  0  0  0  0  0  0  0  0  0  0
   11.6970    2.6478    1.4521 C   0  0  0  0  0  0  0  0  0  0  0  0
   11.4669    1.7084    0.4300 C   0  0  0  0  0  0  0  0  0  0  0  0
   11.3460    0.9211   -0.3978 N   0  0  0  0  0  0  0  0  0  0  0  0
   13.0628    2.8071    1.7693 C   0  0  0  0  0  0  0  0  0  0  0  0
   14.1756    2.9317    2.0197 N   0  0  0  0  0  0  0  0  0  0  0  0
    7.2412    2.5236    0.7392 C   0  0  0  0  0  0  0  0  0  0  0  0
    6.7667    1.7101   -0.2742 C   0  0  0  0  0  0  0  0  0  0  0  0
    5.3662    1.6846   -0.3825 C   0  0  0  0  0  0  0  0  0  0  0  0
    4.5659    0.9334   -1.2730 C   0  0  0  0  0  0  0  0  0  0  0  0
    5.1162   -0.0878   -2.1705 C   0  0  0  0  0  0  0  0  0  0  0  0
    6.0621   -1.0098   -1.7241 C   0  0  0  0  0  0  0  0  0  0  0  0
    6.4995   -2.0278   -2.5513 C   0  0  0  0  0  0  0  0  0  0  0  0
    5.9874   -2.1617   -3.8291 C   0  0  0  0  0  0  0  0  0  0  0  0
    5.0354   -1.2575   -4.2752 C   0  0  0  0  0  0  0  0  0  0  0  0
    4.2989   -1.4396   -5.8879 S   0  0  0  0  0  0  0  0  0  0  0  0
    3.4717   -3.0524   -5.6246 C   0  0  0  0  0  0  0  0  0  0  0  0
    2.3961   -2.9639   -4.5601 C   0  0  0  0  0  0  0  0  0  0  0  0
    4.6200   -0.2158   -3.4654 C   0  0  0  0  0  0  0  0  0  0  0  0
    3.2001    1.1368   -1.1855 C   0  0  0  0  0  0  0  0  0  0  0  0
    2.6015    2.0232   -0.2525 C   0  0  0  0  0  0  0  0  0  0  0  0
    3.3937    2.7473    0.6456 C   0  0  0  0  0  0  0  0  0  0  0  0
    2.7753    3.6195    1.6534 C   0  0  0  0  0  0  0  0  0  0  0  0
    1.8822    4.6176    1.2780 C   0  0  0  0  0  0  0  0  0  0  0  0
    1.2882    5.4073    2.2480 C   0  0  0  0  0  0  0  0  0  0  0  0
    1.5689    5.2015    3.5842 C   0  0  0  0  0  0  0  0  0  0  0  0
    2.4622    4.2011    3.9652 C   0  0  0  0  0  0  0  0  0  0  0  0
    2.7067    3.9875    5.6998 S   0  0  0  0  0  0  0  0  0  0  0  0
    4.1034    2.8224    5.8539 C   0  0  0  0  0  0  0  0  0  0  0  0
    5.4356    3.4696    5.5295 C   0  0  0  0  0  0  0  0  0  0  0  0
    3.0674    3.4161    2.9975 C   0  0  0  0  0  0  0  0  0  0  0  0
    4.7645    2.5516    0.5702 C   0  0  0  0  0  0  0  0  0  0  0  0
    5.9388    3.3212    1.5956 S   0  0  0  0  0  0  0  0  0  0  0  0
    1.1877    1.9153   -0.2448 C   0  0  0  0  0  0  0  0  0  0  0  0
    0.7171    0.9568   -1.0844 C   0  0  0  0  0  0  0  0  0  0  0  0
    1.9844    0.2394   -2.0599 S   0  0  0  0  0  0  0  0  0  0  0  0
   -0.6115    0.4233   -1.1335 C   0  0  0  0  0  0  0  0  0  0  0  0
   -0.9343   -0.9181   -1.0248 C   0  0  0  0  0  0  0  0  0  0  0  0
    0.0015   -1.9164   -0.7730 N   0  0  0  0  0  0  0  0  0  0  0  0
   -0.0983   -3.1344   -1.4456 C   0  0  0  0  0  0  0  0  0  0  0  0
   -0.6637   -3.1829   -2.7173 C   0  0  0  0  0  0  0  0  0  0  0  0
   -0.7904   -4.3815   -3.3916 C   0  0  0  0  0  0  0  0  0  0  0  0
   -0.3414   -5.5572   -2.8076 C   0  0  0  0  0  0  0  0  0  0  0  0
   -0.4204   -7.1434   -3.5807 S   0  0  0  0  0  0  0  0  0  0  0  0
   -1.4302   -6.8563   -5.0615 C   0  0  0  0  0  0  0  0  0  0  0  0
    0.2301   -5.5129   -1.5367 C   0  0  0  0  0  0  0  0  0  0  0  0
    0.3449   -4.3209   -0.8591 C   0  0  0  0  0  0  0  0  0  0  0  0
    1.0067   -1.6481    0.1696 C   0  0  0  0  0  0  0  0  0  0  0  0
    0.7140   -0.8642    1.2880 C   0  0  0  0  0  0  0  0  0  0  0  0
    1.7136   -0.4581    2.1416 C   0  0  0  0  0  0  0  0  0  0  0  0
    3.0338   -0.8355    1.9105 C   0  0  0  0  0  0  0  0  0  0  0  0
    4.2322   -0.1751    3.0277 S   0  0  0  0  0  0  0  0  0  0  0  0
    5.8193   -0.7933    2.4109 C   0  0  0  0  0  0  0  0  0  0  0  0
    3.3241   -1.6734    0.8432 C   0  0  0  0  0  0  0  0  0  0  0  0
    2.3196   -2.0743   -0.0183 C   0  0  0  0  0  0  0  0  0  0  0  0
   -2.3386   -1.0984   -1.0443 C   0  0  0  0  0  0  0  0  0  0  0  0
   -3.3832   -2.4708   -1.0165 S   0  0  0  0  0  0  0  0  0  0  0  0
   -4.8018   -1.4189   -0.9715 C   0  0  0  0  0  0  0  0  0  0  0  0
   -4.4637   -0.0693   -1.0361 C   0  0  0  0  0  0  0  0  0  0  0  0
   -5.3141    1.0196   -1.0767 N   0  0  0  0  0  0  0  0  0  0  0  0
   -4.8726    2.1887   -0.4255 C   0  0  0  0  0  0  0  0  0  0  0  0
   -4.2892    2.0994    0.8349 C   0  0  0  0  0  0  0  0  0  0  0  0
   -3.7672    3.2183    1.4534 C   0  0  0  0  0  0  0  0  0  0  0  0
   -3.8335    4.4525    0.8207 C   0  0  0  0  0  0  0  0  0  0  0  0
   -3.1599    5.9394    1.4847 S   0  0  0  0  0  0  0  0  0  0  0  0
   -2.4012    5.4247    3.0521 C   0  0  0  0  0  0  0  0  0  0  0  0
   -4.4595    4.5524   -0.4222 C   0  0  0  0  0  0  0  0  0  0  0  0
   -4.9720    3.4350   -1.0420 C   0  0  0  0  0  0  0  0  0  0  0  0
   -6.5543    0.9944   -1.7132 C   0  0  0  0  0  0  0  0  0  0  0  0
   -6.7772    0.1818   -2.8243 C   0  0  0  0  0  0  0  0  0  0  0  0
   -8.0445    0.0401   -3.3528 C   0  0  0  0  0  0  0  0  0  0  0  0
   -9.1101    0.7343   -2.7953 C   0  0  0  0  0  0  0  0  0  0  0  0
  -10.7891    0.5428   -3.3083 S   0  0  0  0  0  0  0  0  0  0  0  0
  -10.7575   -0.9533   -4.3348 C   0  0  0  0  0  0  0  0  0  0  0  0
   -8.8729    1.6309   -1.7556 C   0  0  0  0  0  0  0  0  0  0  0  0
   -7.6145    1.7563   -1.2148 C   0  0  0  0  0  0  0  0  0  0  0  0
   -3.0538    0.0874   -1.0807 C   0  0  0  0  0  0  0  0  0  0  0  0
   -2.0123    1.4687   -1.1497 S   0  0  0  0  0  0  0  0  0  0  0  0
   -6.0799   -2.0351   -0.9137 C   0  0  0  0  0  0  0  0  0  0  0  0
   -6.4006   -3.2791   -1.4290 C   0  0  0  0  0  0  0  0  0  0  0  0
   -7.7549   -3.5688   -1.3341 C   0  0  0  0  0  0  0  0  0  0  0  0
   -8.4346   -5.0354   -2.0211 S   0  0  0  0  0  0  0  0  0  0  0  0
   -9.3151   -5.7587   -0.5704 C   0  0  0  0  0  0  0  0  0  0  0  0
  -10.4713   -6.6151   -1.0430 C   0  0  0  0  0  0  0  0  0  0  0  0
   -8.5127   -2.5354   -0.7535 C   0  0  0  0  0  0  0  0  0  0  0  0
   -7.4513   -1.2812   -0.1610 S   0  0  0  0  0  0  0  0  0  0  0  0
   -9.9011   -2.4271   -0.8780 C   0  0  0  0  0  0  0  0  0  0  0  0
  -10.7291   -1.4035   -0.4907 C   0  0  0  0  0  0  0  0  0  0  0  0
  -10.3482   -0.2640    0.3620 C   0  0  0  0  0  0  0  0  0  0  0  0
   -9.2842   -0.0884    0.9278 O   0  0  0  0  0  0  0  0  0  0  0  0
  -11.5378    0.5974    0.4190 C   0  0  0  0  0  0  0  0  0  0  0  0
  -11.9059    1.8271    0.9852 C   0  0  0  0  0  0  0  0  0  0  0  0
  -13.1971    2.1394    0.6580 C   0  0  0  0  0  0  0  0  0  0  0  0
  -14.0484    3.5377    1.1279 Cl  0  0  0  0  0  0  0  0  0  0  0  0
  -13.9829    0.9399   -0.3401 S   0  0  0  0  0  0  0  0  0  0  0  0
  -12.5492    0.0020   -0.3172 C   0  0  0  0  0  0  0  0  0  0  0  0
  -12.1167   -1.2472   -0.8845 C   0  0  0  0  0  0  0  0  0  0  0  0
  -12.9103   -2.0686   -1.6487 C   0  0  0  0  0  0  0  0  0  0  0  0
  -14.2432   -1.7136   -1.9399 C   0  0  0  0  0  0  0  0  0  0  0  0
  -15.3293   -1.4397   -2.1904 N   0  0  0  0  0  0  0  0  0  0  0  0
  -12.5262   -3.2973   -2.2092 C   0  0  0  0  0  0  0  0  0  0  0  0
  -12.2796   -4.3102   -2.6943 N   0  0  0  0  0  0  0  0  0  0  0  0
    9.2308    2.0413    0.3394 H   0  0  0  0  0  0  0  0  0  0  0  0
    9.2722    6.2249    5.3075 H   0  0  0  0  0  0  0  0  0  0  0  0
    7.4277    1.1674   -0.9274 H   0  0  0  0  0  0  0  0  0  0  0  0
    6.4424   -0.9483   -0.7155 H   0  0  0  0  0  0  0  0  0  0  0  0
    7.2393   -2.7288   -2.1939 H   0  0  0  0  0  0  0  0  0  0  0  0
    6.3241   -2.9593   -4.4736 H   0  0  0  0  0  0  0  0  0  0  0  0
    3.0492   -3.3045   -6.5962 H   0  0  0  0  0  0  0  0  0  0  0  0
    4.2334   -3.7865   -5.3642 H   0  0  0  0  0  0  0  0  0  0  0  0
    1.9105   -3.9299   -4.4355 H   0  0  0  0  0  0  0  0  0  0  0  0
    1.6454   -2.2275   -4.8364 H   0  0  0  0  0  0  0  0  0  0  0  0
    2.8242   -2.6681   -3.6036 H   0  0  0  0  0  0  0  0  0  0  0  0
    3.9103    0.4983   -3.8531 H   0  0  0  0  0  0  0  0  0  0  0  0
    1.6703    4.7836    0.2323 H   0  0  0  0  0  0  0  0  0  0  0  0
    0.6022    6.1890    1.9566 H   0  0  0  0  0  0  0  0  0  0  0  0
    1.1044    5.8074    4.3473 H   0  0  0  0  0  0  0  0  0  0  0  0
    3.8999    1.9508    5.2326 H   0  0  0  0  0  0  0  0  0  0  0  0
    4.0644    2.5184    6.9006 H   0  0  0  0  0  0  0  0  0  0  0  0
    5.6130    4.3151    6.1900 H   0  0  0  0  0  0  0  0  0  0  0  0
    5.4705    3.8257    4.5029 H   0  0  0  0  0  0  0  0  0  0  0  0
    6.2372    2.7463    5.6686 H   0  0  0  0  0  0  0  0  0  0  0  0
    3.7403    2.6177    3.2621 H   0  0  0  0  0  0  0  0  0  0  0  0
    0.5548    2.4602    0.4321 H   0  0  0  0  0  0  0  0  0  0  0  0
   -0.9951   -2.2704   -3.1901 H   0  0  0  0  0  0  0  0  0  0  0  0
   -1.2299   -4.3791   -4.3759 H   0  0  0  0  0  0  0  0  0  0  0  0
   -0.8987   -6.2193   -5.7628 H   0  0  0  0  0  0  0  0  0  0  0  0
   -2.3845   -6.4230   -4.7772 H   0  0  0  0  0  0  0  0  0  0  0  0
   -1.5859   -7.8360   -5.5024 H   0  0  0  0  0  0  0  0  0  0  0  0
    0.5724   -6.4313   -1.0849 H   0  0  0  0  0  0  0  0  0  0  0  0
    0.7684   -4.3022    0.1335 H   0  0  0  0  0  0  0  0  0  0  0  0
   -0.3041   -0.5555    1.4724 H   0  0  0  0  0  0  0  0  0  0  0  0
    1.4849    0.1689    2.9897 H   0  0  0  0  0  0  0  0  0  0  0  0
    5.9851   -0.4252    1.4029 H   0  0  0  0  0  0  0  0  0  0  0  0
    6.5733   -0.3871    3.0785 H   0  0  0  0  0  0  0  0  0  0  0  0
    5.8385   -1.8787    2.4486 H   0  0  0  0  0  0  0  0  0  0  0  0
    4.3315   -2.0047    0.6491 H   0  0  0  0  0  0  0  0  0  0  0  0
    2.5643   -2.6939   -0.8680 H   0  0  0  0  0  0  0  0  0  0  0  0
   -4.2382    1.1405    1.3300 H   0  0  0  0  0  0  0  0  0  0  0  0
   -3.3121    3.1120    2.4246 H   0  0  0  0  0  0  0  0  0  0  0  0
   -3.1602    5.0324    3.7224 H   0  0  0  0  0  0  0  0  0  0  0  0
   -1.6162    4.6968    2.8678 H   0  0  0  0  0  0  0  0  0  0  0  0
   -1.9713    6.3270    3.4759 H   0  0  0  0  0  0  0  0  0  0  0  0
   -4.5201    5.5174   -0.9014 H   0  0  0  0  0  0  0  0  0  0  0  0
   -5.4374    3.5146   -2.0129 H   0  0  0  0  0  0  0  0  0  0  0  0
   -5.9574   -0.3710   -3.2583 H   0  0  0  0  0  0  0  0  0  0  0  0
   -8.1879   -0.6205   -4.1927 H   0  0  0  0  0  0  0  0  0  0  0  0
  -10.2470   -0.7556   -5.2726 H   0  0  0  0  0  0  0  0  0  0  0  0
  -10.2809   -1.7635   -3.7895 H   0  0  0  0  0  0  0  0  0  0  0  0
  -11.7968   -1.1986   -4.5327 H   0  0  0  0  0  0  0  0  0  0  0  0
   -9.6969    2.2000   -1.3536 H   0  0  0  0  0  0  0  0  0  0  0  0
   -7.4537    2.4087   -0.3713 H   0  0  0  0  0  0  0  0  0  0  0  0
   -5.6863   -3.9339   -1.8957 H   0  0  0  0  0  0  0  0  0  0  0  0
   -9.6499   -4.9368    0.0588 H   0  0  0  0  0  0  0  0  0  0  0  0
   -8.5752   -6.3514   -0.0305 H   0  0  0  0  0  0  0  0  0  0  0  0
  -10.9803   -7.0488   -0.1846 H   0  0  0  0  0  0  0  0  0  0  0  0
  -11.1831   -6.0207   -1.6119 H   0  0  0  0  0  0  0  0  0  0  0  0
  -10.1108   -7.4209   -1.6780 H   0  0  0  0  0  0  0  0  0  0  0  0
  -10.3529   -3.2371   -1.4415 H   0  0  0  0  0  0  0  0  0  0  0  0
  -11.2689    2.4443    1.5903 H   0  0  0  0  0  0  0  0  0  0  0  0
  1  2  2  0  0  0  0
  2  3  1  0  0  0  0
  3  4  2  0  0  0  0
  3  5  1  0  0  0  0
  5  6  1  0  0  0  0
  6  7  2  0  0  0  0
  7  8  1  0  0  0  0
  7  9  1  0  0  0  0
  9 10  1  0  0  0  0
 10 11  1  0  0  0  0
 11 12  2  0  0  0  0
 12 13  1  0  0  0  0
 13 14  3  0  0  0  0
 12 15  1  0  0  0  0
 15 16  3  0  0  0  0
  1 17  1  0  0  0  0
 17 18  2  0  0  0  0
 18 19  1  0  0  0  0
 19 20  2  0  0  0  0
 20 21  1  0  0  0  0
 21 22  2  0  0  0  0
 22 23  1  0  0  0  0
 23 24  2  0  0  0  0
 24 25  1  0  0  0  0
 25 26  1  0  0  0  0
 26 27  1  0  0  0  0
 27 28  1  0  0  0  0
 25 29  2  0  0  0  0
 20 30  1  0  0  0  0
 30 31  2  0  0  0  0
 31 32  1  0  0  0  0
 32 33  1  0  0  0  0
 33 34  2  0  0  0  0
 34 35  1  0  0  0  0
 35 36  2  0  0  0  0
 36 37  1  0  0  0  0
 37 38  1  0  0  0  0
 38 39  1  0  0  0  0
 39 40  1  0  0  0  0
 37 41  2  0  0  0  0
 32 42  2  0  0  0  0
 42 43  1  0  0  0  0
 31 44  1  0  0  0  0
 44 45  2  0  0  0  0
 45 46  1  0  0  0  0
 45 47  1  0  0  0  0
 47 48  2  0  0  0  0
 48 49  1  0  0  0  0
 49 50  1  0  0  0  0
 50 51  2  0  0  0  0
 51 52  1  0  0  0  0
 52 53  2  0  0  0  0
 53 54  1  0  0  0  0
 54 55  1  0  0  0  0
 53 56  1  0  0  0  0
 56 57  2  0  0  0  0
 49 58  1  0  0  0  0
 58 59  2  0  0  0  0
 59 60  1  0  0  0  0
 60 61  2  0  0  0  0
 61 62  1  0  0  0  0
 62 63  1  0  0  0  0
 61 64  1  0  0  0  0
 64 65  2  0  0  0  0
 48 66  1  0  0  0  0
 66 67  1  0  0  0  0
 67 68  1  0  0  0  0
 68 69  2  0  0  0  0
 69 70  1  0  0  0  0
 70 71  1  0  0  0  0
 71 72  2  0  0  0  0
 72 73  1  0  0  0  0
 73 74  2  0  0  0  0
 74 75  1  0  0  0  0
 75 76  1  0  0  0  0
 74 77  1  0  0  0  0
 77 78  2  0  0  0  0
 70 79  1  0  0  0  0
 79 80  2  0  0  0  0
 80 81  1  0  0  0  0
 81 82  2  0  0  0  0
 82 83  1  0  0  0  0
 83 84  1  0  0  0  0
 82 85  1  0  0  0  0
 85 86  2  0  0  0  0
 69 87  1  0  0  0  0
 87 88  1  0  0  0  0
 68 89  1  0  0  0  0
 89 90  2  0  0  0  0
 90 91  1  0  0  0  0
 91 92  1  0  0  0  0
 92 93  1  0  0  0  0
 93 94  1  0  0  0  0
 91 95  2  0  0  0  0
 95 96  1  0  0  0  0
 95 97  1  0  0  0  0
 97 98  2  0  0  0  0
 98 99  1  0  0  0  0
 99100  2  0  0  0  0
 99101  1  0  0  0  0
101102  1  0  0  0  0
102103  2  0  0  0  0
103104  1  0  0  0  0
103105  1  0  0  0  0
105106  1  0  0  0  0
106107  1  0  0  0  0
107108  2  0  0  0  0
108109  1  0  0  0  0
109110  3  0  0  0  0
108111  1  0  0  0  0
111112  3  0  0  0  0
 11  2  1  0  0  0  0
 43 17  1  0  0  0  0
 88 47  1  0  0  0  0
 96 89  1  0  0  0  0
107 98  1  0  0  0  0
 10  5  2  0  0  0  0
 42 19  1  0  0  0  0
 57 50  1  0  0  0  0
 65 58  1  0  0  0  0
 87 66  2  0  0  0  0
106101  2  0  0  0  0
 29 21  1  0  0  0  0
 46 30  1  0  0  0  0
 78 71  1  0  0  0  0
 86 79  1  0  0  0  0
 41 33  1  0  0  0  0
  1113  1  0  0  0  0
  6114  1  0  0  0  0
 18115  1  0  0  0  0
 22116  1  0  0  0  0
 23117  1  0  0  0  0
 24118  1  0  0  0  0
 27119  1  0  0  0  0
 27120  1  0  0  0  0
 28121  1  0  0  0  0
 28122  1  0  0  0  0
 28123  1  0  0  0  0
 29124  1  0  0  0  0
 34125  1  0  0  0  0
 35126  1  0  0  0  0
 36127  1  0  0  0  0
 39128  1  0  0  0  0
 39129  1  0  0  0  0
 40130  1  0  0  0  0
 40131  1  0  0  0  0
 40132  1  0  0  0  0
 41133  1  0  0  0  0
 44134  1  0  0  0  0
 51135  1  0  0  0  0
 52136  1  0  0  0  0
 55137  1  0  0  0  0
 55138  1  0  0  0  0
 55139  1  0  0  0  0
 56140  1  0  0  0  0
 57141  1  0  0  0  0
 59142  1  0  0  0  0
 60143  1  0  0  0  0
 63144  1  0  0  0  0
 63145  1  0  0  0  0
 63146  1  0  0  0  0
 64147  1  0  0  0  0
 65148  1  0  0  0  0
 72149  1  0  0  0  0
 73150  1  0  0  0  0
 76151  1  0  0  0  0
 76152  1  0  0  0  0
 76153  1  0  0  0  0
 77154  1  0  0  0  0
 78155  1  0  0  0  0
 80156  1  0  0  0  0
 81157  1  0  0  0  0
 84158  1  0  0  0  0
 84159  1  0  0  0  0
 84160  1  0  0  0  0
 85161  1  0  0  0  0
 86162  1  0  0  0  0
 90163  1  0  0  0  0
 93164  1  0  0  0  0
 93165  1  0  0  0  0
 94166  1  0  0  0  0
 94167  1  0  0  0  0
 94168  1  0  0  0  0
 97169  1  0  0  0  0
102170  1  0  0  0  0
M  END
