
  xtb     02102219253D
 energy: -227.619605287394 gnorm: 0.000700668508 xtb: 6.4.1 (unknown)
130138  0     0  0            999 V2000
    1.5789    6.1470    5.6651 C   0  0  0  0  0  0  0  0  0  0  0  0
    2.6633    6.9439    5.6446 C   0  0  0  0  0  0  0  0  0  0  0  0
    4.0472    6.8913    4.5766 S   0  0  0  0  0  0  0  0  0  0  0  0
    4.7473    8.3599    5.3217 C   0  0  0  0  0  0  0  0  0  0  0  0
    5.7748    8.8628    4.9752 O   0  0  0  0  0  0  0  0  0  0  0  0
    3.9220    8.8002    6.3212 N   0  0  0  0  0  0  0  0  0  0  0  0
    4.2869    9.9578    7.1228 C   0  0  0  0  0  0  0  0  0  0  0  0
    5.2126    9.5620    8.2653 C   0  0  0  0  0  0  0  0  0  0  0  0
    2.7600    8.0988    6.5604 C   0  0  0  0  0  0  0  0  0  0  0  0
    1.9438    8.4063    7.3949 O   0  0  0  0  0  0  0  0  0  0  0  0
    1.3047    4.9704    4.8707 C   0  0  0  0  0  0  0  0  0  0  0  0
    2.2725    4.0223    4.5397 C   0  0  0  0  0  0  0  0  0  0  0  0
    3.5271    4.1546    4.9978 F   0  0  0  0  0  0  0  0  0  0  0  0
    1.9657    2.8976    3.7953 C   0  0  0  0  0  0  0  0  0  0  0  0
    2.9779    2.0609    3.5055 F   0  0  0  0  0  0  0  0  0  0  0  0
    0.6634    2.6334    3.3546 C   0  0  0  0  0  0  0  0  0  0  0  0
   -0.3328    3.5578    3.7373 C   0  0  0  0  0  0  0  0  0  0  0  0
   -1.6300    3.3566    3.3453 O   0  0  0  0  0  0  0  0  0  0  0  0
   -2.4275    2.5620    4.2226 C   0  0  0  0  0  0  0  0  0  0  0  0
   -2.7832    3.2641    5.5239 C   0  0  0  0  0  0  0  0  0  0  0  0
   -0.0177    4.7085    4.4592 C   0  0  0  0  0  0  0  0  0  0  0  0
   -1.0214    5.5806    4.7775 O   0  0  0  0  0  0  0  0  0  0  0  0
   -1.0441    6.7954    4.0343 C   0  0  0  0  0  0  0  0  0  0  0  0
   -1.2802    6.5638    2.5480 C   0  0  0  0  0  0  0  0  0  0  0  0
    0.3452    1.5131    2.4984 C   0  0  0  0  0  0  0  0  0  0  0  0
    1.1195    0.4303    2.1947 C   0  0  0  0  0  0  0  0  0  0  0  0
    0.5283   -0.4503    1.2556 C   0  0  0  0  0  0  0  0  0  0  0  0
    1.0667   -1.6410    0.7421 C   0  0  0  0  0  0  0  0  0  0  0  0
    2.3596   -2.1640    1.2053 C   0  0  0  0  0  0  0  0  0  0  0  0
    2.5951   -2.3601    2.5651 C   0  0  0  0  0  0  0  0  0  0  0  0
    3.8102   -2.8631    2.9880 C   0  0  0  0  0  0  0  0  0  0  0  0
    4.8065   -3.1685    2.0773 C   0  0  0  0  0  0  0  0  0  0  0  0
    4.5841   -2.9615    0.7226 C   0  0  0  0  0  0  0  0  0  0  0  0
    5.7676   -3.3292   -0.5380 S   0  0  0  0  0  0  0  0  0  0  0  0
    7.3791   -3.2297    0.3197 C   0  0  0  0  0  0  0  0  0  0  0  0
    7.6764   -1.8293    0.8194 C   0  0  0  0  0  0  0  0  0  0  0  0
    3.3580   -2.4687    0.2913 C   0  0  0  0  0  0  0  0  0  0  0  0
    0.3116   -2.2980   -0.2158 C   0  0  0  0  0  0  0  0  0  0  0  0
   -0.9678   -1.8513   -0.6332 C   0  0  0  0  0  0  0  0  0  0  0  0
   -1.5201   -0.6805   -0.0910 C   0  0  0  0  0  0  0  0  0  0  0  0
   -2.8789   -0.2378   -0.4317 C   0  0  0  0  0  0  0  0  0  0  0  0
   -3.9458   -1.1332   -0.3597 C   0  0  0  0  0  0  0  0  0  0  0  0
   -5.2278   -0.7031   -0.6408 C   0  0  0  0  0  0  0  0  0  0  0  0
   -5.4744    0.6127   -0.9936 C   0  0  0  0  0  0  0  0  0  0  0  0
   -4.4162    1.5069   -1.0785 C   0  0  0  0  0  0  0  0  0  0  0  0
   -4.5961    3.2193   -1.4825 S   0  0  0  0  0  0  0  0  0  0  0  0
   -6.1899    3.3160   -2.3721 C   0  0  0  0  0  0  0  0  0  0  0  0
   -6.1493    2.5891   -3.7024 C   0  0  0  0  0  0  0  0  0  0  0  0
   -3.1242    1.0785   -0.7960 C   0  0  0  0  0  0  0  0  0  0  0  0
   -0.7375    0.0132    0.8212 C   0  0  0  0  0  0  0  0  0  0  0  0
   -1.1781    1.4946    1.6245 S   0  0  0  0  0  0  0  0  0  0  0  0
   -1.5288   -2.7132   -1.6121 C   0  0  0  0  0  0  0  0  0  0  0  0
   -0.7369   -3.7765   -1.9171 C   0  0  0  0  0  0  0  0  0  0  0  0
    0.7660   -3.7754   -1.0192 S   0  0  0  0  0  0  0  0  0  0  0  0
   -1.0370   -4.8347   -2.8687 C   0  0  0  0  0  0  0  0  0  0  0  0
   -0.0537   -5.3316   -3.7267 C   0  0  0  0  0  0  0  0  0  0  0  0
    1.1971   -4.8486   -3.6657 F   0  0  0  0  0  0  0  0  0  0  0  0
   -0.3490   -6.2992   -4.6669 C   0  0  0  0  0  0  0  0  0  0  0  0
    0.6339   -6.7671   -5.4556 F   0  0  0  0  0  0  0  0  0  0  0  0
   -1.6315   -6.8323   -4.7868 C   0  0  0  0  0  0  0  0  0  0  0  0
   -2.6296   -6.3534   -3.9280 C   0  0  0  0  0  0  0  0  0  0  0  0
   -3.9051   -6.8310   -3.9401 O   0  0  0  0  0  0  0  0  0  0  0  0
   -4.6150   -6.7964   -5.1723 C   0  0  0  0  0  0  0  0  0  0  0  0
   -4.6188   -5.4116   -5.8045 C   0  0  0  0  0  0  0  0  0  0  0  0
   -2.3331   -5.3621   -2.9795 C   0  0  0  0  0  0  0  0  0  0  0  0
   -3.3589   -4.9115   -2.1925 O   0  0  0  0  0  0  0  0  0  0  0  0
   -3.3409   -5.3483   -0.8377 C   0  0  0  0  0  0  0  0  0  0  0  0
   -3.4537   -6.8612   -0.7063 C   0  0  0  0  0  0  0  0  0  0  0  0
   -1.8656   -7.9181   -5.7393 C   0  0  0  0  0  0  0  0  0  0  0  0
   -1.5674   -7.8338   -7.0446 C   0  0  0  0  0  0  0  0  0  0  0  0
   -1.6420   -9.1732   -8.1740 S   0  0  0  0  0  0  0  0  0  0  0  0
   -0.9838   -8.1593   -9.4983 C   0  0  0  0  0  0  0  0  0  0  0  0
   -0.7501   -8.5637  -10.5972 O   0  0  0  0  0  0  0  0  0  0  0  0
   -0.8313   -6.8772   -9.0482 N   0  0  0  0  0  0  0  0  0  0  0  0
   -0.2964   -5.8455   -9.9238 C   0  0  0  0  0  0  0  0  0  0  0  0
    1.2241   -5.8094   -9.8500 C   0  0  0  0  0  0  0  0  0  0  0  0
   -1.1707   -6.5925   -7.7428 C   0  0  0  0  0  0  0  0  0  0  0  0
   -1.1917   -5.4774   -7.2824 O   0  0  0  0  0  0  0  0  0  0  0  0
    0.7906    6.4403    6.3515 H   0  0  0  0  0  0  0  0  0  0  0  0
    4.7782   10.6769    6.4637 H   0  0  0  0  0  0  0  0  0  0  0  0
    3.3546   10.3758    7.5089 H   0  0  0  0  0  0  0  0  0  0  0  0
    5.4635   10.4408    8.8522 H   0  0  0  0  0  0  0  0  0  0  0  0
    4.7248    8.8365    8.9123 H   0  0  0  0  0  0  0  0  0  0  0  0
    6.1305    9.1297    7.8737 H   0  0  0  0  0  0  0  0  0  0  0  0
   -3.3268    2.3533    3.6390 H   0  0  0  0  0  0  0  0  0  0  0  0
   -1.9151    1.6134    4.4331 H   0  0  0  0  0  0  0  0  0  0  0  0
   -1.8942    3.4419    6.1239 H   0  0  0  0  0  0  0  0  0  0  0  0
   -3.2526    4.2212    5.3172 H   0  0  0  0  0  0  0  0  0  0  0  0
   -3.4711    2.6413    6.0895 H   0  0  0  0  0  0  0  0  0  0  0  0
   -0.1092    7.3510    4.1901 H   0  0  0  0  0  0  0  0  0  0  0  0
   -1.8691    7.3589    4.4751 H   0  0  0  0  0  0  0  0  0  0  0  0
   -0.4210    6.0724    2.0961 H   0  0  0  0  0  0  0  0  0  0  0  0
   -1.4421    7.5157    2.0506 H   0  0  0  0  0  0  0  0  0  0  0  0
   -2.1510    5.9298    2.4024 H   0  0  0  0  0  0  0  0  0  0  0  0
    2.0911    0.2452    2.6108 H   0  0  0  0  0  0  0  0  0  0  0  0
    1.8169   -2.1408    3.2809 H   0  0  0  0  0  0  0  0  0  0  0  0
    3.9877   -3.0260    4.0410 H   0  0  0  0  0  0  0  0  0  0  0  0
    5.7409   -3.5726    2.4329 H   0  0  0  0  0  0  0  0  0  0  0  0
    8.0947   -3.5317   -0.4449 H   0  0  0  0  0  0  0  0  0  0  0  0
    7.3970   -3.9679    1.1209 H   0  0  0  0  0  0  0  0  0  0  0  0
    7.6657   -1.1251   -0.0092 H   0  0  0  0  0  0  0  0  0  0  0  0
    8.6587   -1.8031    1.2875 H   0  0  0  0  0  0  0  0  0  0  0  0
    6.9348   -1.5109    1.5493 H   0  0  0  0  0  0  0  0  0  0  0  0
    3.2011   -2.3065   -0.7642 H   0  0  0  0  0  0  0  0  0  0  0  0
   -3.7690   -2.1548   -0.0597 H   0  0  0  0  0  0  0  0  0  0  0  0
   -6.0535   -1.3967   -0.5766 H   0  0  0  0  0  0  0  0  0  0  0  0
   -6.4880    0.9256   -1.1875 H   0  0  0  0  0  0  0  0  0  0  0  0
   -6.9784    2.9426   -1.7194 H   0  0  0  0  0  0  0  0  0  0  0  0
   -6.3385    4.3860   -2.5168 H   0  0  0  0  0  0  0  0  0  0  0  0
   -5.3651    3.0031   -4.3318 H   0  0  0  0  0  0  0  0  0  0  0  0
   -5.9508    1.5287   -3.5603 H   0  0  0  0  0  0  0  0  0  0  0  0
   -7.1032    2.6995   -4.2147 H   0  0  0  0  0  0  0  0  0  0  0  0
   -2.3112    1.7830   -0.8790 H   0  0  0  0  0  0  0  0  0  0  0  0
   -2.4741   -2.5359   -2.0910 H   0  0  0  0  0  0  0  0  0  0  0  0
   -5.6280   -7.0995   -4.8964 H   0  0  0  0  0  0  0  0  0  0  0  0
   -4.2054   -7.5332   -5.8752 H   0  0  0  0  0  0  0  0  0  0  0  0
   -4.9636   -4.6763   -5.0814 H   0  0  0  0  0  0  0  0  0  0  0  0
   -5.2825   -5.4044   -6.6646 H   0  0  0  0  0  0  0  0  0  0  0  0
   -3.6172   -5.1361   -6.1296 H   0  0  0  0  0  0  0  0  0  0  0  0
   -4.2101   -4.8593   -0.3921 H   0  0  0  0  0  0  0  0  0  0  0  0
   -2.4325   -4.9924   -0.3339 H   0  0  0  0  0  0  0  0  0  0  0  0
   -4.3022   -7.2199   -1.2826 H   0  0  0  0  0  0  0  0  0  0  0  0
   -3.5872   -7.1286    0.3382 H   0  0  0  0  0  0  0  0  0  0  0  0
   -2.5534   -7.3442   -1.0804 H   0  0  0  0  0  0  0  0  0  0  0  0
   -2.2402   -8.8484   -5.3316 H   0  0  0  0  0  0  0  0  0  0  0  0
   -0.7209   -4.8975   -9.5854 H   0  0  0  0  0  0  0  0  0  0  0  0
   -0.6296   -6.0665  -10.9400 H   0  0  0  0  0  0  0  0  0  0  0  0
    1.6409   -6.7573  -10.1824 H   0  0  0  0  0  0  0  0  0  0  0  0
    1.6015   -5.0179  -10.4908 H   0  0  0  0  0  0  0  0  0  0  0  0
    1.5468   -5.6180   -8.8292 H   0  0  0  0  0  0  0  0  0  0  0  0
  1  2  2  0  0  0  0
  2  3  1  0  0  0  0
  3  4  1  0  0  0  0
  4  5  2  0  0  0  0
  4  6  1  0  0  0  0
  6  7  1  0  0  0  0
  7  8  1  0  0  0  0
  6  9  1  0  0  0  0
  9 10  2  0  0  0  0
  1 11  1  0  0  0  0
 11 12  2  0  0  0  0
 12 13  1  0  0  0  0
 12 14  1  0  0  0  0
 14 15  1  0  0  0  0
 14 16  2  0  0  0  0
 16 17  1  0  0  0  0
 17 18  1  0  0  0  0
 18 19  1  0  0  0  0
 19 20  1  0  0  0  0
 17 21  2  0  0  0  0
 21 22  1  0  0  0  0
 22 23  1  0  0  0  0
 23 24  1  0  0  0  0
 16 25  1  0  0  0  0
 25 26  2  0  0  0  0
 26 27  1  0  0  0  0
 27 28  2  0  0  0  0
 28 29  1  0  0  0  0
 29 30  2  0  0  0  0
 30 31  1  0  0  0  0
 31 32  2  0  0  0  0
 32 33  1  0  0  0  0
 33 34  1  0  0  0  0
 34 35  1  0  0  0  0
 35 36  1  0  0  0  0
 33 37  2  0  0  0  0
 28 38  1  0  0  0  0
 38 39  2  0  0  0  0
 39 40  1  0  0  0  0
 40 41  1  0  0  0  0
 41 42  2  0  0  0  0
 42 43  1  0  0  0  0
 43 44  2  0  0  0  0
 44 45  1  0  0  0  0
 45 46  1  0  0  0  0
 46 47  1  0  0  0  0
 47 48  1  0  0  0  0
 45 49  2  0  0  0  0
 40 50  2  0  0  0  0
 50 51  1  0  0  0  0
 39 52  1  0  0  0  0
 52 53  2  0  0  0  0
 53 54  1  0  0  0  0
 53 55  1  0  0  0  0
 55 56  2  0  0  0  0
 56 57  1  0  0  0  0
 56 58  1  0  0  0  0
 58 59  1  0  0  0  0
 58 60  2  0  0  0  0
 60 61  1  0  0  0  0
 61 62  1  0  0  0  0
 62 63  1  0  0  0  0
 63 64  1  0  0  0  0
 61 65  2  0  0  0  0
 65 66  1  0  0  0  0
 66 67  1  0  0  0  0
 67 68  1  0  0  0  0
 60 69  1  0  0  0  0
 69 70  2  0  0  0  0
 70 71  1  0  0  0  0
 71 72  1  0  0  0  0
 72 73  2  0  0  0  0
 72 74  1  0  0  0  0
 74 75  1  0  0  0  0
 75 76  1  0  0  0  0
 74 77  1  0  0  0  0
 77 78  2  0  0  0  0
  9  2  1  0  0  0  0
 21 11  1  0  0  0  0
 51 25  1  0  0  0  0
 65 55  1  0  0  0  0
 77 70  1  0  0  0  0
 50 27  1  0  0  0  0
 37 29  1  0  0  0  0
 54 38  1  0  0  0  0
 49 41  1  0  0  0  0
  1 79  1  0  0  0  0
  7 80  1  0  0  0  0
  7 81  1  0  0  0  0
  8 82  1  0  0  0  0
  8 83  1  0  0  0  0
  8 84  1  0  0  0  0
 19 85  1  0  0  0  0
 19 86  1  0  0  0  0
 20 87  1  0  0  0  0
 20 88  1  0  0  0  0
 20 89  1  0  0  0  0
 23 90  1  0  0  0  0
 23 91  1  0  0  0  0
 24 92  1  0  0  0  0
 24 93  1  0  0  0  0
 24 94  1  0  0  0  0
 26 95  1  0  0  0  0
 30 96  1  0  0  0  0
 31 97  1  0  0  0  0
 32 98  1  0  0  0  0
 35 99  1  0  0  0  0
 35100  1  0  0  0  0
 36101  1  0  0  0  0
 36102  1  0  0  0  0
 36103  1  0  0  0  0
 37104  1  0  0  0  0
 42105  1  0  0  0  0
 43106  1  0  0  0  0
 44107  1  0  0  0  0
 47108  1  0  0  0  0
 47109  1  0  0  0  0
 48110  1  0  0  0  0
 48111  1  0  0  0  0
 48112  1  0  0  0  0
 49113  1  0  0  0  0
 52114  1  0  0  0  0
 63115  1  0  0  0  0
 63116  1  0  0  0  0
 64117  1  0  0  0  0
 64118  1  0  0  0  0
 64119  1  0  0  0  0
 67120  1  0  0  0  0
 67121  1  0  0  0  0
 68122  1  0  0  0  0
 68123  1  0  0  0  0
 68124  1  0  0  0  0
 69125  1  0  0  0  0
 75126  1  0  0  0  0
 75127  1  0  0  0  0
 76128  1  0  0  0  0
 76129  1  0  0  0  0
 76130  1  0  0  0  0
M  END
