
  xtb     02102219543D
 energy: -167.563302561342 gnorm: 0.000741295559 xtb: 6.4.1 (unknown)
 88 98  0     0  0            999 V2000
   10.2631    3.6420   -3.4224 C   0  0  0  0  0  0  0  0  0  0  0  0
   10.6226    3.0827   -4.5968 C   0  0  0  0  0  0  0  0  0  0  0  0
    9.7619    1.9558   -5.6226 S   0  0  0  0  0  0  0  0  0  0  0  0
   11.1140    1.8920   -6.7966 C   0  0  0  0  0  0  0  0  0  0  0  0
   11.1051    1.2304   -7.7920 O   0  0  0  0  0  0  0  0  0  0  0  0
   12.1161    2.7170   -6.3699 N   0  0  0  0  0  0  0  0  0  0  0  0
   13.3559    2.8226   -7.1229 C   0  0  0  0  0  0  0  0  0  0  0  0
   14.3361    1.7298   -6.7173 C   0  0  0  0  0  0  0  0  0  0  0  0
   11.9378    3.3997   -5.1837 C   0  0  0  0  0  0  0  0  0  0  0  0
   12.7569    4.1534   -4.7137 O   0  0  0  0  0  0  0  0  0  0  0  0
    9.0659    3.4944   -2.6403 C   0  0  0  0  0  0  0  0  0  0  0  0
    7.9689    2.7130   -3.0451 C   0  0  0  0  0  0  0  0  0  0  0  0
    6.8759    2.6259   -2.2181 C   0  0  0  0  0  0  0  0  0  0  0  0
    5.6067    1.8695   -2.4183 C   0  0  0  0  0  0  0  0  0  0  0  0
    5.2913    1.1955   -3.3678 O   0  0  0  0  0  0  0  0  0  0  0  0
    4.8201    2.1395   -1.1845 C   0  0  0  0  0  0  0  0  0  0  0  0
    5.5551    2.9933   -0.3386 C   0  0  0  0  0  0  0  0  0  0  0  0
    6.8281    3.2959   -0.9789 C   0  0  0  0  0  0  0  0  0  0  0  0
    7.8984    4.0742   -0.5764 C   0  0  0  0  0  0  0  0  0  0  0  0
    9.0004    4.1656   -1.4097 C   0  0  0  0  0  0  0  0  0  0  0  0
    5.0234    3.3811    0.8761 C   0  0  0  0  0  0  0  0  0  0  0  0
    3.7662    2.9131    1.2315 C   0  0  0  0  0  0  0  0  0  0  0  0
    3.0316    2.0660    0.3999 C   0  0  0  0  0  0  0  0  0  0  0  0
    3.5758    1.6731   -0.8311 C   0  0  0  0  0  0  0  0  0  0  0  0
    1.7130    1.5862    0.8138 C   0  0  0  0  0  0  0  0  0  0  0  0
    0.8431    2.3577    1.5573 C   0  0  0  0  0  0  0  0  0  0  0  0
   -0.4132    1.9005    1.9725 C   0  0  0  0  0  0  0  0  0  0  0  0
   -0.8885    0.6406    1.6709 C   0  0  0  0  0  0  0  0  0  0  0  0
   -0.0339   -0.1805    0.8964 C   0  0  0  0  0  0  0  0  0  0  0  0
   -0.2597   -1.4340    0.4992 N   0  0  0  0  0  0  0  0  0  0  0  0
    1.0133   -1.9625   -0.3203 S   0  0  0  0  0  0  0  0  0  0  0  0
    1.9214   -0.6445   -0.2155 N   0  0  0  0  0  0  0  0  0  0  0  0
    1.2601    0.2886    0.4718 C   0  0  0  0  0  0  0  0  0  0  0  0
   -2.1962    0.1658    2.1230 C   0  0  0  0  0  0  0  0  0  0  0  0
   -2.9671   -0.6758    1.3089 C   0  0  0  0  0  0  0  0  0  0  0  0
   -4.1937   -1.0970    1.7662 C   0  0  0  0  0  0  0  0  0  0  0  0
   -5.1970   -1.9675    1.0944 C   0  0  0  0  0  0  0  0  0  0  0  0
   -5.1443   -2.4426   -0.0127 O   0  0  0  0  0  0  0  0  0  0  0  0
   -6.2997   -2.0915    2.0901 C   0  0  0  0  0  0  0  0  0  0  0  0
   -5.9871   -1.3238    3.2304 C   0  0  0  0  0  0  0  0  0  0  0  0
   -4.6803   -0.7121    3.0312 C   0  0  0  0  0  0  0  0  0  0  0  0
   -3.9206    0.1119    3.8390 C   0  0  0  0  0  0  0  0  0  0  0  0
   -2.6866    0.5440    3.3740 C   0  0  0  0  0  0  0  0  0  0  0  0
   -6.8890   -1.2407    4.2762 C   0  0  0  0  0  0  0  0  0  0  0  0
   -8.0845   -1.9328    4.1749 C   0  0  0  0  0  0  0  0  0  0  0  0
   -8.3790   -2.7413    3.0700 C   0  0  0  0  0  0  0  0  0  0  0  0
   -7.4702   -2.8031    1.9994 C   0  0  0  0  0  0  0  0  0  0  0  0
   -9.6436   -3.4348    3.0334 C   0  0  0  0  0  0  0  0  0  0  0  0
   -9.8782   -4.6673    2.5186 C   0  0  0  0  0  0  0  0  0  0  0  0
   -8.8226   -5.6779    2.2065 C   0  0  0  0  0  0  0  0  0  0  0  0
   -7.6257   -5.5350    2.2538 O   0  0  0  0  0  0  0  0  0  0  0  0
   -9.5623   -6.9284    1.9282 C   0  0  0  0  0  0  0  0  0  0  0  0
   -9.0880   -8.1892    1.6084 C   0  0  0  0  0  0  0  0  0  0  0  0
   -7.7789   -8.4258    1.5047 F   0  0  0  0  0  0  0  0  0  0  0  0
   -9.9802   -9.2306    1.3852 C   0  0  0  0  0  0  0  0  0  0  0  0
  -11.3413   -9.0012    1.4949 C   0  0  0  0  0  0  0  0  0  0  0  0
  -11.8415   -7.7472    1.8206 C   0  0  0  0  0  0  0  0  0  0  0  0
  -10.9484   -6.7087    2.0347 C   0  0  0  0  0  0  0  0  0  0  0  0
  -11.1765   -5.3074    2.3786 C   0  0  0  0  0  0  0  0  0  0  0  0
  -12.3975   -4.6982    2.4746 C   0  0  0  0  0  0  0  0  0  0  0  0
  -12.6041   -3.3269    2.7437 C   0  0  0  0  0  0  0  0  0  0  0  0
  -12.8587   -2.2261    2.9465 N   0  0  0  0  0  0  0  0  0  0  0  0
  -13.6345   -5.3564    2.2993 C   0  0  0  0  0  0  0  0  0  0  0  0
  -14.6745   -5.8261    2.1776 N   0  0  0  0  0  0  0  0  0  0  0  0
   11.0165    4.3044   -3.0079 H   0  0  0  0  0  0  0  0  0  0  0  0
   13.7701    3.8102   -6.9070 H   0  0  0  0  0  0  0  0  0  0  0  0
   13.1072    2.7415   -8.1834 H   0  0  0  0  0  0  0  0  0  0  0  0
   13.9111    0.7485   -6.9168 H   0  0  0  0  0  0  0  0  0  0  0  0
   15.2550    1.8344   -7.2868 H   0  0  0  0  0  0  0  0  0  0  0  0
   14.5700    1.8085   -5.6578 H   0  0  0  0  0  0  0  0  0  0  0  0
    7.9723    2.1875   -3.9866 H   0  0  0  0  0  0  0  0  0  0  0  0
    7.8819    4.6002    0.3662 H   0  0  0  0  0  0  0  0  0  0  0  0
    9.8432    4.7692   -1.1049 H   0  0  0  0  0  0  0  0  0  0  0  0
    5.5717    4.0276    1.5448 H   0  0  0  0  0  0  0  0  0  0  0  0
    3.3577    3.1913    2.1919 H   0  0  0  0  0  0  0  0  0  0  0  0
    3.0304    1.0177   -1.4903 H   0  0  0  0  0  0  0  0  0  0  0  0
    1.1255    3.3681    1.8132 H   0  0  0  0  0  0  0  0  0  0  0  0
   -1.0421    2.5783    2.5306 H   0  0  0  0  0  0  0  0  0  0  0  0
   -2.6088   -0.9846    0.3403 H   0  0  0  0  0  0  0  0  0  0  0  0
   -4.2688    0.4124    4.8158 H   0  0  0  0  0  0  0  0  0  0  0  0
   -2.0771    1.1690    4.0101 H   0  0  0  0  0  0  0  0  0  0  0  0
   -6.6765   -0.6450    5.1510 H   0  0  0  0  0  0  0  0  0  0  0  0
   -8.8013   -1.8753    4.9818 H   0  0  0  0  0  0  0  0  0  0  0  0
   -7.6951   -3.3642    1.1071 H   0  0  0  0  0  0  0  0  0  0  0  0
  -10.4691   -2.9042    3.4932 H   0  0  0  0  0  0  0  0  0  0  0  0
   -9.5963  -10.2057    1.1295 H   0  0  0  0  0  0  0  0  0  0  0  0
  -12.0289   -9.8150    1.3242 H   0  0  0  0  0  0  0  0  0  0  0  0
  -12.9053   -7.6004    1.9049 H   0  0  0  0  0  0  0  0  0  0  0  0
  1  2  2  0  0  0  0
  2  3  1  0  0  0  0
  3  4  1  0  0  0  0
  4  5  2  0  0  0  0
  4  6  1  0  0  0  0
  6  7  1  0  0  0  0
  7  8  1  0  0  0  0
  6  9  1  0  0  0  0
  9 10  2  0  0  0  0
  1 11  1  0  0  0  0
 11 12  2  0  0  0  0
 12 13  1  0  0  0  0
 13 14  1  0  0  0  0
 14 15  2  0  0  0  0
 14 16  1  0  0  0  0
 16 17  2  0  0  0  0
 17 18  1  0  0  0  0
 18 19  1  0  0  0  0
 19 20  2  0  0  0  0
 17 21  1  0  0  0  0
 21 22  2  0  0  0  0
 22 23  1  0  0  0  0
 23 24  2  0  0  0  0
 23 25  1  0  0  0  0
 25 26  2  0  0  0  0
 26 27  1  0  0  0  0
 27 28  2  0  0  0  0
 28 29  1  0  0  0  0
 29 30  2  0  0  0  0
 30 31  1  0  0  0  0
 31 32  1  0  0  0  0
 32 33  2  0  0  0  0
 28 34  1  0  0  0  0
 34 35  2  0  0  0  0
 35 36  1  0  0  0  0
 36 37  1  0  0  0  0
 37 38  2  0  0  0  0
 37 39  1  0  0  0  0
 39 40  2  0  0  0  0
 40 41  1  0  0  0  0
 41 42  1  0  0  0  0
 42 43  2  0  0  0  0
 40 44  1  0  0  0  0
 44 45  2  0  0  0  0
 45 46  1  0  0  0  0
 46 47  2  0  0  0  0
 46 48  1  0  0  0  0
 48 49  2  0  0  0  0
 49 50  1  0  0  0  0
 50 51  2  0  0  0  0
 50 52  1  0  0  0  0
 52 53  2  0  0  0  0
 53 54  1  0  0  0  0
 53 55  1  0  0  0  0
 55 56  2  0  0  0  0
 56 57  1  0  0  0  0
 57 58  2  0  0  0  0
 58 59  1  0  0  0  0
 59 60  2  0  0  0  0
 60 61  1  0  0  0  0
 61 62  3  0  0  0  0
 60 63  1  0  0  0  0
 63 64  3  0  0  0  0
  9  2  1  0  0  0  0
 20 11  1  0  0  0  0
 33 25  1  0  0  0  0
 43 34  1  0  0  0  0
 59 49  1  0  0  0  0
 18 13  2  0  0  0  0
 33 29  1  0  0  0  0
 41 36  2  0  0  0  0
 58 52  1  0  0  0  0
 24 16  1  0  0  0  0
 47 39  1  0  0  0  0
  1 65  1  0  0  0  0
  7 66  1  0  0  0  0
  7 67  1  0  0  0  0
  8 68  1  0  0  0  0
  8 69  1  0  0  0  0
  8 70  1  0  0  0  0
 12 71  1  0  0  0  0
 19 72  1  0  0  0  0
 20 73  1  0  0  0  0
 21 74  1  0  0  0  0
 22 75  1  0  0  0  0
 24 76  1  0  0  0  0
 26 77  1  0  0  0  0
 27 78  1  0  0  0  0
 35 79  1  0  0  0  0
 42 80  1  0  0  0  0
 43 81  1  0  0  0  0
 44 82  1  0  0  0  0
 45 83  1  0  0  0  0
 47 84  1  0  0  0  0
 48 85  1  0  0  0  0
 55 86  1  0  0  0  0
 56 87  1  0  0  0  0
 57 88  1  0  0  0  0
M  END
