
  xtb     02092200243D
 energy: -377.903043958700 gnorm: 0.000305954559 xtb: 6.4.1 (unknown)
220237  0     0  0            999 V2000
   -4.2117   -6.8937    4.1304 C   0  0  0  0  0  0  0  0  0  0  0  0
   -3.6314   -7.8930    4.8520 C   0  0  0  0  0  0  0  0  0  0  0  0
   -4.6132   -9.1939    5.5183 S   0  0  0  0  0  0  0  0  0  0  0  0
   -3.1745  -10.0378    6.1504 C   0  0  0  0  0  0  0  0  0  0  0  0
   -3.2011  -11.0753    6.7473 O   0  0  0  0  0  0  0  0  0  0  0  0
   -2.0666   -9.2968    5.8521 N   0  0  0  0  0  0  0  0  0  0  0  0
   -0.7424   -9.7707    6.2184 C   0  0  0  0  0  0  0  0  0  0  0  0
   -0.1240  -10.5898    5.0933 C   0  0  0  0  0  0  0  0  0  0  0  0
   -2.2323   -8.1114    5.1572 C   0  0  0  0  0  0  0  0  0  0  0  0
   -1.2937   -7.3865    4.8803 O   0  0  0  0  0  0  0  0  0  0  0  0
   -3.6351   -5.7873    3.4837 C   0  0  0  0  0  0  0  0  0  0  0  0
   -4.3766   -4.8801    2.7048 C   0  0  0  0  0  0  0  0  0  0  0  0
   -5.7330   -5.0500    2.4213 N   0  0  0  0  0  0  0  0  0  0  0  0
   -6.6694   -4.1567    2.9424 C   0  0  0  0  0  0  0  0  0  0  0  0
   -6.4032   -3.4601    4.1191 C   0  0  0  0  0  0  0  0  0  0  0  0
   -7.3682   -2.6632    4.7032 C   0  0  0  0  0  0  0  0  0  0  0  0
   -8.6190   -2.5430    4.1157 C   0  0  0  0  0  0  0  0  0  0  0  0
   -9.9607   -1.6257    4.8105 S   0  0  0  0  0  0  0  0  0  0  0  0
   -9.2480   -0.8538    6.2887 C   0  0  0  0  0  0  0  0  0  0  0  0
   -8.8679   -3.1840    2.9031 C   0  0  0  0  0  0  0  0  0  0  0  0
   -7.9049   -3.9742    2.3177 C   0  0  0  0  0  0  0  0  0  0  0  0
   -6.1207   -6.2561    1.8170 C   0  0  0  0  0  0  0  0  0  0  0  0
   -7.2893   -6.9204    2.1814 C   0  0  0  0  0  0  0  0  0  0  0  0
   -7.6332   -8.1207    1.5904 C   0  0  0  0  0  0  0  0  0  0  0  0
   -6.8061   -8.6887    0.6311 C   0  0  0  0  0  0  0  0  0  0  0  0
   -7.1365  -10.2172   -0.1866 S   0  0  0  0  0  0  0  0  0  0  0  0
   -8.6062  -10.8599    0.6633 C   0  0  0  0  0  0  0  0  0  0  0  0
   -5.6338   -8.0293    0.2657 C   0  0  0  0  0  0  0  0  0  0  0  0
   -5.2959   -6.8287    0.8470 C   0  0  0  0  0  0  0  0  0  0  0  0
   -3.5634   -3.8639    2.1854 C   0  0  0  0  0  0  0  0  0  0  0  0
   -3.8020   -2.5315    1.0970 S   0  0  0  0  0  0  0  0  0  0  0  0
   -2.0690   -2.2298    1.0495 C   0  0  0  0  0  0  0  0  0  0  0  0
   -1.3695   -3.0834    1.8904 C   0  0  0  0  0  0  0  0  0  0  0  0
    0.0052   -3.0600    2.0817 N   0  0  0  0  0  0  0  0  0  0  0  0
    0.6588   -4.2875    2.2640 C   0  0  0  0  0  0  0  0  0  0  0  0
    1.6221   -4.4341    3.2569 C   0  0  0  0  0  0  0  0  0  0  0  0
    2.1775   -5.6713    3.5133 C   0  0  0  0  0  0  0  0  0  0  0  0
    1.7635   -6.7823    2.7906 C   0  0  0  0  0  0  0  0  0  0  0  0
    2.3776   -8.4122    3.1021 S   0  0  0  0  0  0  0  0  0  0  0  0
    2.8735   -8.3142    4.8471 C   0  0  0  0  0  0  0  0  0  0  0  0
    0.8443   -6.6299    1.7569 C   0  0  0  0  0  0  0  0  0  0  0  0
    0.3063   -5.3913    1.4873 C   0  0  0  0  0  0  0  0  0  0  0  0
    0.7095   -1.8540    2.1030 C   0  0  0  0  0  0  0  0  0  0  0  0
    1.9919   -1.7666    1.5620 C   0  0  0  0  0  0  0  0  0  0  0  0
    2.6334   -0.5500    1.4899 C   0  0  0  0  0  0  0  0  0  0  0  0
    2.0174    0.6059    1.9651 C   0  0  0  0  0  0  0  0  0  0  0  0
    2.8869    2.1292    1.7459 S   0  0  0  0  0  0  0  0  0  0  0  0
    2.0289    3.2686    2.8726 C   0  0  0  0  0  0  0  0  0  0  0  0
    0.7657    0.5146    2.5567 C   0  0  0  0  0  0  0  0  0  0  0  0
    0.1271   -0.7069    2.6316 C   0  0  0  0  0  0  0  0  0  0  0  0
   -2.2231   -4.0077    2.5337 C   0  0  0  0  0  0  0  0  0  0  0  0
   -1.9320   -5.3747    3.5432 S   0  0  0  0  0  0  0  0  0  0  0  0
   -1.3726   -1.4057    0.0912 C   0  0  0  0  0  0  0  0  0  0  0  0
   -1.1918   -0.0405   -0.0640 C   0  0  0  0  0  0  0  0  0  0  0  0
   -1.9638    0.9577    0.4820 N   0  0  0  0  0  0  0  0  0  0  0  0
   -3.1529    0.6627    1.2151 C   0  0  0  0  0  0  0  0  0  0  0  0
   -4.3464    0.5063    0.5212 C   0  0  0  0  0  0  0  0  0  0  0  0
   -5.5454    0.3836    1.1947 C   0  0  0  0  0  0  0  0  0  0  0  0
   -5.5602    0.4224    2.5819 C   0  0  0  0  0  0  0  0  0  0  0  0
   -7.0330    0.3912    3.5429 S   0  0  0  0  0  0  0  0  0  0  0  0
   -8.3627    0.3370    2.3136 C   0  0  0  0  0  0  0  0  0  0  0  0
   -4.3615    0.5434    3.2810 C   0  0  0  0  0  0  0  0  0  0  0  0
   -3.1676    0.6742    2.6034 C   0  0  0  0  0  0  0  0  0  0  0  0
   -2.0647    2.2188   -0.1489 C   0  0  0  0  0  0  0  0  0  0  0  0
   -1.9878    2.3840   -1.5305 C   0  0  0  0  0  0  0  0  0  0  0  0
   -2.1827    3.6275   -2.0938 C   0  0  0  0  0  0  0  0  0  0  0  0
   -2.4966    4.7201   -1.2951 C   0  0  0  0  0  0  0  0  0  0  0  0
   -2.7939    6.2676   -2.0959 S   0  0  0  0  0  0  0  0  0  0  0  0
   -3.9271    7.0782   -0.9254 C   0  0  0  0  0  0  0  0  0  0  0  0
   -2.5840    4.5610    0.0809 C   0  0  0  0  0  0  0  0  0  0  0  0
   -2.3620    3.3224    0.6451 C   0  0  0  0  0  0  0  0  0  0  0  0
   -0.0321    0.2288   -0.8462 C   0  0  0  0  0  0  0  0  0  0  0  0
    0.8753    1.6649   -1.2344 S   0  0  0  0  0  0  0  0  0  0  0  0
    2.0341    0.7076   -2.1426 C   0  0  0  0  0  0  0  0  0  0  0  0
    1.6521   -0.6356   -2.2450 C   0  0  0  0  0  0  0  0  0  0  0  0
    2.1414   -1.5782   -3.1196 N   0  0  0  0  0  0  0  0  0  0  0  0
    2.4878   -1.2855   -4.4423 C   0  0  0  0  0  0  0  0  0  0  0  0
    1.9496   -0.1893   -5.1128 C   0  0  0  0  0  0  0  0  0  0  0  0
    2.2836    0.0672   -6.4270 C   0  0  0  0  0  0  0  0  0  0  0  0
    3.1642   -0.7673   -7.0997 C   0  0  0  0  0  0  0  0  0  0  0  0
    3.6032   -0.5434   -8.7918 S   0  0  0  0  0  0  0  0  0  0  0  0
    3.3131    1.2308   -9.0501 C   0  0  0  0  0  0  0  0  0  0  0  0
    3.7074   -1.8634   -6.4360 C   0  0  0  0  0  0  0  0  0  0  0  0
    3.3795   -2.1173   -5.1243 C   0  0  0  0  0  0  0  0  0  0  0  0
    2.1693   -2.9173   -2.6802 C   0  0  0  0  0  0  0  0  0  0  0  0
    1.5513   -3.9296   -3.4116 C   0  0  0  0  0  0  0  0  0  0  0  0
    1.6039   -5.2298   -2.9619 C   0  0  0  0  0  0  0  0  0  0  0  0
    2.2732   -5.5439   -1.7798 C   0  0  0  0  0  0  0  0  0  0  0  0
    2.3008   -7.2419   -1.3047 S   0  0  0  0  0  0  0  0  0  0  0  0
    3.7117   -7.3357   -0.1682 C   0  0  0  0  0  0  0  0  0  0  0  0
    2.8765   -4.5331   -1.0431 C   0  0  0  0  0  0  0  0  0  0  0  0
    2.8275   -3.2298   -1.4965 C   0  0  0  0  0  0  0  0  0  0  0  0
    0.5472   -0.8968   -1.4013 C   0  0  0  0  0  0  0  0  0  0  0  0
   -0.2387   -2.3425   -0.9001 S   0  0  0  0  0  0  0  0  0  0  0  0
    3.1966    1.3300   -2.6667 C   0  0  0  0  0  0  0  0  0  0  0  0
    4.3314    0.6380   -3.1023 C   0  0  0  0  0  0  0  0  0  0  0  0
    4.5084   -0.6567   -2.7719 F   0  0  0  0  0  0  0  0  0  0  0  0
    5.3578    1.2557   -3.8041 C   0  0  0  0  0  0  0  0  0  0  0  0
    6.3937    0.4893   -4.1821 F   0  0  0  0  0  0  0  0  0  0  0  0
    5.3909    2.6277   -4.0243 C   0  0  0  0  0  0  0  0  0  0  0  0
    4.3955    3.3892   -3.3535 C   0  0  0  0  0  0  0  0  0  0  0  0
    4.5318    4.7199   -3.2813 N   0  0  0  0  0  0  0  0  0  0  0  0
    3.6413    5.4198   -2.6157 C   0  0  0  0  0  0  0  0  0  0  0  0
    3.9697    6.8352   -2.4032 C   0  0  0  0  0  0  0  0  0  0  0  0
    3.8478    7.4304   -1.1528 C   0  0  0  0  0  0  0  0  0  0  0  0
    4.2026    8.7522   -0.9549 C   0  0  0  0  0  0  0  0  0  0  0  0
    4.6872    9.5283   -2.0049 C   0  0  0  0  0  0  0  0  0  0  0  0
    5.0454   10.8271   -1.9307 O   0  0  0  0  0  0  0  0  0  0  0  0
    4.9616   11.4974   -0.6876 C   0  0  0  0  0  0  0  0  0  0  0  0
    5.4446   12.9223   -0.9035 C   0  0  0  0  0  0  0  0  0  0  0  0
    4.8225    8.9040   -3.2543 C   0  0  0  0  0  0  0  0  0  0  0  0
    4.4877    7.5864   -3.4569 C   0  0  0  0  0  0  0  0  0  0  0  0
    5.2990    9.6259   -4.2873 F   0  0  0  0  0  0  0  0  0  0  0  0
    2.4712    4.7964   -2.0831 C   0  0  0  0  0  0  0  0  0  0  0  0
    2.3423    3.4881   -2.1357 N   0  0  0  0  0  0  0  0  0  0  0  0
    3.2965    2.7535   -2.7161 C   0  0  0  0  0  0  0  0  0  0  0  0
    1.4408    5.5929   -1.4152 C   0  0  0  0  0  0  0  0  0  0  0  0
    1.0530    6.8355   -1.9073 C   0  0  0  0  0  0  0  0  0  0  0  0
    0.2268    7.6630   -1.1747 C   0  0  0  0  0  0  0  0  0  0  0  0
   -0.2356    7.2810    0.0820 C   0  0  0  0  0  0  0  0  0  0  0  0
   -0.9810    8.0532    0.9140 O   0  0  0  0  0  0  0  0  0  0  0  0
   -0.9471    9.4617    0.7498 C   0  0  0  0  0  0  0  0  0  0  0  0
   -2.0713   10.0027   -0.1281 C   0  0  0  0  0  0  0  0  0  0  0  0
    0.1052    5.9968    0.5261 C   0  0  0  0  0  0  0  0  0  0  0  0
   -0.3329    5.5913    1.7401 F   0  0  0  0  0  0  0  0  0  0  0  0
    0.9139    5.1560   -0.2025 C   0  0  0  0  0  0  0  0  0  0  0  0
    6.4420    3.2909   -4.7478 C   0  0  0  0  0  0  0  0  0  0  0  0
    7.0265    2.8069   -5.8639 C   0  0  0  0  0  0  0  0  0  0  0  0
    8.4695    3.4922   -6.5903 S   0  0  0  0  0  0  0  0  0  0  0  0
    8.5337    2.1896   -7.8201 C   0  0  0  0  0  0  0  0  0  0  0  0
    9.4066    2.0735   -8.6293 O   0  0  0  0  0  0  0  0  0  0  0  0
    7.4269    1.4013   -7.6903 N   0  0  0  0  0  0  0  0  0  0  0  0
    7.2231    0.2468   -8.5512 C   0  0  0  0  0  0  0  0  0  0  0  0
    7.6632   -1.0310   -7.8501 C   0  0  0  0  0  0  0  0  0  0  0  0
    6.5248    1.6984   -6.6875 C   0  0  0  0  0  0  0  0  0  0  0  0
    5.4437    1.1629   -6.5890 O   0  0  0  0  0  0  0  0  0  0  0  0
   -5.2877   -6.9681    4.0263 H   0  0  0  0  0  0  0  0  0  0  0  0
   -0.1370   -8.8859    6.4289 H   0  0  0  0  0  0  0  0  0  0  0  0
   -0.8505  -10.3746    7.1219 H   0  0  0  0  0  0  0  0  0  0  0  0
    0.0042   -9.9772    4.2040 H   0  0  0  0  0  0  0  0  0  0  0  0
   -0.7610  -11.4379    4.8530 H   0  0  0  0  0  0  0  0  0  0  0  0
    0.8473  -10.9641    5.4036 H   0  0  0  0  0  0  0  0  0  0  0  0
   -5.4406   -3.5679    4.5970 H   0  0  0  0  0  0  0  0  0  0  0  0
   -7.1339   -2.1543    5.6235 H   0  0  0  0  0  0  0  0  0  0  0  0
   -8.4071   -0.2282    6.0042 H   0  0  0  0  0  0  0  0  0  0  0  0
   -8.9544   -1.6191    7.0012 H   0  0  0  0  0  0  0  0  0  0  0  0
  -10.0409   -0.2435    6.7101 H   0  0  0  0  0  0  0  0  0  0  0  0
   -9.8316   -3.0599    2.4322 H   0  0  0  0  0  0  0  0  0  0  0  0
   -8.1061   -4.4683    1.3793 H   0  0  0  0  0  0  0  0  0  0  0  0
   -7.9311   -6.5026    2.9430 H   0  0  0  0  0  0  0  0  0  0  0  0
   -8.5447   -8.6057    1.8996 H   0  0  0  0  0  0  0  0  0  0  0  0
   -8.4023  -10.9634    1.7248 H   0  0  0  0  0  0  0  0  0  0  0  0
   -9.4579  -10.2102    0.4840 H   0  0  0  0  0  0  0  0  0  0  0  0
   -8.7911  -11.8362    0.2261 H   0  0  0  0  0  0  0  0  0  0  0  0
   -4.9948   -8.4710   -0.4832 H   0  0  0  0  0  0  0  0  0  0  0  0
   -4.3873   -6.3243    0.5547 H   0  0  0  0  0  0  0  0  0  0  0  0
    1.9200   -3.5766    3.8423 H   0  0  0  0  0  0  0  0  0  0  0  0
    2.9174   -5.7616    4.2928 H   0  0  0  0  0  0  0  0  0  0  0  0
    3.8169   -7.7847    4.9469 H   0  0  0  0  0  0  0  0  0  0  0  0
    2.9948   -9.3389    5.1833 H   0  0  0  0  0  0  0  0  0  0  0  0
    2.0844   -7.8231    5.4079 H   0  0  0  0  0  0  0  0  0  0  0  0
    0.5554   -7.4900    1.1735 H   0  0  0  0  0  0  0  0  0  0  0  0
   -0.4056   -5.2718    0.6840 H   0  0  0  0  0  0  0  0  0  0  0  0
    2.4631   -2.6599    1.1844 H   0  0  0  0  0  0  0  0  0  0  0  0
    3.6157   -0.4756    1.0478 H   0  0  0  0  0  0  0  0  0  0  0  0
    2.6152    4.1824    2.8672 H   0  0  0  0  0  0  0  0  0  0  0  0
    1.0241    3.4786    2.5187 H   0  0  0  0  0  0  0  0  0  0  0  0
    2.0137    2.8457    3.8727 H   0  0  0  0  0  0  0  0  0  0  0  0
    0.2749    1.3896    2.9514 H   0  0  0  0  0  0  0  0  0  0  0  0
   -0.8448   -0.7857    3.0936 H   0  0  0  0  0  0  0  0  0  0  0  0
   -4.3344    0.4996   -0.5588 H   0  0  0  0  0  0  0  0  0  0  0  0
   -6.4546    0.2711    0.6277 H   0  0  0  0  0  0  0  0  0  0  0  0
   -8.3060    1.2112    1.6718 H   0  0  0  0  0  0  0  0  0  0  0  0
   -9.2889    0.3512    2.8800 H   0  0  0  0  0  0  0  0  0  0  0  0
   -8.2980   -0.5865    1.7452 H   0  0  0  0  0  0  0  0  0  0  0  0
   -4.3841    0.5668    4.3600 H   0  0  0  0  0  0  0  0  0  0  0  0
   -2.2504    0.8218    3.1504 H   0  0  0  0  0  0  0  0  0  0  0  0
   -1.8144    1.5329   -2.1706 H   0  0  0  0  0  0  0  0  0  0  0  0
   -2.1258    3.7552   -3.1638 H   0  0  0  0  0  0  0  0  0  0  0  0
   -4.7226    6.3869   -0.6642 H   0  0  0  0  0  0  0  0  0  0  0  0
   -3.3865    7.4022   -0.0418 H   0  0  0  0  0  0  0  0  0  0  0  0
   -4.3364    7.9368   -1.4482 H   0  0  0  0  0  0  0  0  0  0  0  0
   -2.8193    5.3921    0.7252 H   0  0  0  0  0  0  0  0  0  0  0  0
   -2.4353    3.2063    1.7156 H   0  0  0  0  0  0  0  0  0  0  0  0
    1.2484    0.4616   -4.6121 H   0  0  0  0  0  0  0  0  0  0  0  0
    1.8394    0.9179   -6.9182 H   0  0  0  0  0  0  0  0  0  0  0  0
    2.2498    1.4341   -9.1392 H   0  0  0  0  0  0  0  0  0  0  0  0
    3.7534    1.7715   -8.2174 H   0  0  0  0  0  0  0  0  0  0  0  0
    3.8127    1.4886   -9.9792 H   0  0  0  0  0  0  0  0  0  0  0  0
    4.3988   -2.5066   -6.9581 H   0  0  0  0  0  0  0  0  0  0  0  0
    3.8263   -2.9534   -4.6089 H   0  0  0  0  0  0  0  0  0  0  0  0
    1.0394   -3.6886   -4.3312 H   0  0  0  0  0  0  0  0  0  0  0  0
    1.1310   -6.0217   -3.5217 H   0  0  0  0  0  0  0  0  0  0  0  0
    3.8665   -8.3931    0.0210 H   0  0  0  0  0  0  0  0  0  0  0  0
    4.5875   -6.9059   -0.6448 H   0  0  0  0  0  0  0  0  0  0  0  0
    3.4791   -6.8330    0.7654 H   0  0  0  0  0  0  0  0  0  0  0  0
    3.3922   -4.7547   -0.1220 H   0  0  0  0  0  0  0  0  0  0  0  0
    3.3190   -2.4393   -0.9510 H   0  0  0  0  0  0  0  0  0  0  0  0
    3.4935    6.8511   -0.3142 H   0  0  0  0  0  0  0  0  0  0  0  0
    4.1036    9.1760    0.0315 H   0  0  0  0  0  0  0  0  0  0  0  0
    5.5909   10.9895    0.0560 H   0  0  0  0  0  0  0  0  0  0  0  0
    3.9223   11.4961   -0.3298 H   0  0  0  0  0  0  0  0  0  0  0  0
    4.8242   13.4156   -1.6464 H   0  0  0  0  0  0  0  0  0  0  0  0
    5.3950   13.4753    0.0301 H   0  0  0  0  0  0  0  0  0  0  0  0
    6.4701   12.9144   -1.2614 H   0  0  0  0  0  0  0  0  0  0  0  0
    4.6211    7.1421   -4.4299 H   0  0  0  0  0  0  0  0  0  0  0  0
    1.3977    7.1632   -2.8754 H   0  0  0  0  0  0  0  0  0  0  0  0
   -0.0485    8.6195   -1.5870 H   0  0  0  0  0  0  0  0  0  0  0  0
   -1.0527    9.8615    1.7635 H   0  0  0  0  0  0  0  0  0  0  0  0
    0.0297    9.7661    0.3559 H   0  0  0  0  0  0  0  0  0  0  0  0
   -3.0359    9.8006    0.3300 H   0  0  0  0  0  0  0  0  0  0  0  0
   -2.0545    9.5482   -1.1153 H   0  0  0  0  0  0  0  0  0  0  0  0
   -1.9561   11.0782   -0.2334 H   0  0  0  0  0  0  0  0  0  0  0  0
    1.1749    4.1817    0.1750 H   0  0  0  0  0  0  0  0  0  0  0  0
    6.7590    4.2438   -4.3463 H   0  0  0  0  0  0  0  0  0  0  0  0
    6.1565    0.1942   -8.7821 H   0  0  0  0  0  0  0  0  0  0  0  0
    7.7985    0.4128   -9.4636 H   0  0  0  0  0  0  0  0  0  0  0  0
    7.4682   -1.8832   -8.4946 H   0  0  0  0  0  0  0  0  0  0  0  0
    8.7265   -0.9959   -7.6234 H   0  0  0  0  0  0  0  0  0  0  0  0
    7.1069   -1.1563   -6.9238 H   0  0  0  0  0  0  0  0  0  0  0  0
  1  2  2  0  0  0  0
  2  3  1  0  0  0  0
  3  4  1  0  0  0  0
  4  5  2  0  0  0  0
  4  6  1  0  0  0  0
  6  7  1  0  0  0  0
  7  8  1  0  0  0  0
  6  9  1  0  0  0  0
  9 10  2  0  0  0  0
  1 11  1  0  0  0  0
 11 12  2  0  0  0  0
 12 13  1  0  0  0  0
 13 14  1  0  0  0  0
 14 15  2  0  0  0  0
 15 16  1  0  0  0  0
 16 17  2  0  0  0  0
 17 18  1  0  0  0  0
 18 19  1  0  0  0  0
 17 20  1  0  0  0  0
 20 21  2  0  0  0  0
 13 22  1  0  0  0  0
 22 23  2  0  0  0  0
 23 24  1  0  0  0  0
 24 25  2  0  0  0  0
 25 26  1  0  0  0  0
 26 27  1  0  0  0  0
 25 28  1  0  0  0  0
 28 29  2  0  0  0  0
 12 30  1  0  0  0  0
 30 31  1  0  0  0  0
 31 32  1  0  0  0  0
 32 33  2  0  0  0  0
 33 34  1  0  0  0  0
 34 35  1  0  0  0  0
 35 36  2  0  0  0  0
 36 37  1  0  0  0  0
 37 38  2  0  0  0  0
 38 39  1  0  0  0  0
 39 40  1  0  0  0  0
 38 41  1  0  0  0  0
 41 42  2  0  0  0  0
 34 43  1  0  0  0  0
 43 44  2  0  0  0  0
 44 45  1  0  0  0  0
 45 46  2  0  0  0  0
 46 47  1  0  0  0  0
 47 48  1  0  0  0  0
 46 49  1  0  0  0  0
 49 50  2  0  0  0  0
 33 51  1  0  0  0  0
 51 52  1  0  0  0  0
 32 53  1  0  0  0  0
 53 54  2  0  0  0  0
 54 55  1  0  0  0  0
 55 56  1  0  0  0  0
 56 57  2  0  0  0  0
 57 58  1  0  0  0  0
 58 59  2  0  0  0  0
 59 60  1  0  0  0  0
 60 61  1  0  0  0  0
 59 62  1  0  0  0  0
 62 63  2  0  0  0  0
 55 64  1  0  0  0  0
 64 65  2  0  0  0  0
 65 66  1  0  0  0  0
 66 67  2  0  0  0  0
 67 68  1  0  0  0  0
 68 69  1  0  0  0  0
 67 70  1  0  0  0  0
 70 71  2  0  0  0  0
 54 72  1  0  0  0  0
 72 73  1  0  0  0  0
 73 74  1  0  0  0  0
 74 75  2  0  0  0  0
 75 76  1  0  0  0  0
 76 77  1  0  0  0  0
 77 78  2  0  0  0  0
 78 79  1  0  0  0  0
 79 80  2  0  0  0  0
 80 81  1  0  0  0  0
 81 82  1  0  0  0  0
 80 83  1  0  0  0  0
 83 84  2  0  0  0  0
 76 85  1  0  0  0  0
 85 86  2  0  0  0  0
 86 87  1  0  0  0  0
 87 88  2  0  0  0  0
 88 89  1  0  0  0  0
 89 90  1  0  0  0  0
 88 91  1  0  0  0  0
 91 92  2  0  0  0  0
 75 93  1  0  0  0  0
 93 94  1  0  0  0  0
 74 95  1  0  0  0  0
 95 96  2  0  0  0  0
 96 97  1  0  0  0  0
 96 98  1  0  0  0  0
 98 99  1  0  0  0  0
 98100  2  0  0  0  0
100101  1  0  0  0  0
101102  2  0  0  0  0
102103  1  0  0  0  0
103104  1  0  0  0  0
104105  2  0  0  0  0
105106  1  0  0  0  0
106107  2  0  0  0  0
107108  1  0  0  0  0
108109  1  0  0  0  0
109110  1  0  0  0  0
107111  1  0  0  0  0
111112  2  0  0  0  0
111113  1  0  0  0  0
103114  2  0  0  0  0
114115  1  0  0  0  0
115116  2  0  0  0  0
114117  1  0  0  0  0
117118  2  0  0  0  0
118119  1  0  0  0  0
119120  2  0  0  0  0
120121  1  0  0  0  0
121122  1  0  0  0  0
122123  1  0  0  0  0
120124  1  0  0  0  0
124125  1  0  0  0  0
124126  2  0  0  0  0
100127  1  0  0  0  0
127128  2  0  0  0  0
128129  1  0  0  0  0
129130  1  0  0  0  0
130131  2  0  0  0  0
130132  1  0  0  0  0
132133  1  0  0  0  0
133134  1  0  0  0  0
132135  1  0  0  0  0
135136  2  0  0  0  0
  9  2  1  0  0  0  0
 52 11  1  0  0  0  0
 94 53  1  0  0  0  0
116 95  1  0  0  0  0
126117  1  0  0  0  0
135128  1  0  0  0  0
 21 14  1  0  0  0  0
 29 22  1  0  0  0  0
 51 30  2  0  0  0  0
 63 56  1  0  0  0  0
 71 64  1  0  0  0  0
 93 72  2  0  0  0  0
116101  1  0  0  0  0
 42 35  1  0  0  0  0
 50 43  1  0  0  0  0
 84 77  1  0  0  0  0
 92 85  1  0  0  0  0
112104  1  0  0  0  0
  1137  1  0  0  0  0
  7138  1  0  0  0  0
  7139  1  0  0  0  0
  8140  1  0  0  0  0
  8141  1  0  0  0  0
  8142  1  0  0  0  0
 15143  1  0  0  0  0
 16144  1  0  0  0  0
 19145  1  0  0  0  0
 19146  1  0  0  0  0
 19147  1  0  0  0  0
 20148  1  0  0  0  0
 21149  1  0  0  0  0
 23150  1  0  0  0  0
 24151  1  0  0  0  0
 27152  1  0  0  0  0
 27153  1  0  0  0  0
 27154  1  0  0  0  0
 28155  1  0  0  0  0
 29156  1  0  0  0  0
 36157  1  0  0  0  0
 37158  1  0  0  0  0
 40159  1  0  0  0  0
 40160  1  0  0  0  0
 40161  1  0  0  0  0
 41162  1  0  0  0  0
 42163  1  0  0  0  0
 44164  1  0  0  0  0
 45165  1  0  0  0  0
 48166  1  0  0  0  0
 48167  1  0  0  0  0
 48168  1  0  0  0  0
 49169  1  0  0  0  0
 50170  1  0  0  0  0
 57171  1  0  0  0  0
 58172  1  0  0  0  0
 61173  1  0  0  0  0
 61174  1  0  0  0  0
 61175  1  0  0  0  0
 62176  1  0  0  0  0
 63177  1  0  0  0  0
 65178  1  0  0  0  0
 66179  1  0  0  0  0
 69180  1  0  0  0  0
 69181  1  0  0  0  0
 69182  1  0  0  0  0
 70183  1  0  0  0  0
 71184  1  0  0  0  0
 78185  1  0  0  0  0
 79186  1  0  0  0  0
 82187  1  0  0  0  0
 82188  1  0  0  0  0
 82189  1  0  0  0  0
 83190  1  0  0  0  0
 84191  1  0  0  0  0
 86192  1  0  0  0  0
 87193  1  0  0  0  0
 90194  1  0  0  0  0
 90195  1  0  0  0  0
 90196  1  0  0  0  0
 91197  1  0  0  0  0
 92198  1  0  0  0  0
105199  1  0  0  0  0
106200  1  0  0  0  0
109201  1  0  0  0  0
109202  1  0  0  0  0
110203  1  0  0  0  0
110204  1  0  0  0  0
110205  1  0  0  0  0
112206  1  0  0  0  0
118207  1  0  0  0  0
119208  1  0  0  0  0
122209  1  0  0  0  0
122210  1  0  0  0  0
123211  1  0  0  0  0
123212  1  0  0  0  0
123213  1  0  0  0  0
126214  1  0  0  0  0
127215  1  0  0  0  0
133216  1  0  0  0  0
133217  1  0  0  0  0
134218  1  0  0  0  0
134219  1  0  0  0  0
134220  1  0  0  0  0
M  END
