130

C          1.57890        6.14700        5.66510
C          2.66330        6.94390        5.64460
S          4.04720        6.89130        4.57660
C          4.74730        8.35990        5.32170
O          5.77480        8.86280        4.97520
N          3.92200        8.80020        6.32120
C          4.28690        9.95780        7.12280
C          5.21260        9.56200        8.26530
C          2.76000        8.09880        6.56040
O          1.94380        8.40630        7.39490
C          1.30470        4.97040        4.87070
C          2.27250        4.02230        4.53970
F          3.52710        4.15460        4.99780
C          1.96570        2.89760        3.79530
F          2.97790        2.06090        3.50550
C          0.66340        2.63340        3.35460
C         -0.33280        3.55780        3.73730
O         -1.63000        3.35660        3.34530
C         -2.42750        2.56200        4.22260
C         -2.78320        3.26410        5.52390
C         -0.01770        4.70850        4.45920
O         -1.02140        5.58060        4.77750
C         -1.04410        6.79540        4.03430
C         -1.28020        6.56380        2.54800
C          0.34520        1.51310        2.49840
C          1.11950        0.43030        2.19470
C          0.52830       -0.45030        1.25560
C          1.06670       -1.64100        0.74210
C          2.35960       -2.16400        1.20530
C          2.59510       -2.36010        2.56510
C          3.81020       -2.86310        2.98800
C          4.80650       -3.16850        2.07730
C          4.58410       -2.96150        0.72260
S          5.76760       -3.32920       -0.53800
C          7.37910       -3.22970        0.31970
C          7.67640       -1.82930        0.81940
C          3.35800       -2.46870        0.29130
C          0.31160       -2.29800       -0.21580
C         -0.96780       -1.85130       -0.63320
C         -1.52010       -0.68050       -0.09100
C         -2.87890       -0.23780       -0.43170
C         -3.94580       -1.13320       -0.35970
C         -5.22780       -0.70310       -0.64080
C         -5.47440        0.61270       -0.99360
C         -4.41620        1.50690       -1.07850
S         -4.59610        3.21930       -1.48250
C         -6.18990        3.31600       -2.37210
C         -6.14930        2.58910       -3.70240
C         -3.12420        1.07850       -0.79600
C         -0.73750        0.01320        0.82120
S         -1.17810        1.49460        1.62450
C         -1.52880       -2.71320       -1.61210
C         -0.73690       -3.77650       -1.91710
S          0.76600       -3.77540       -1.01920
C         -1.03700       -4.83470       -2.86870
C         -0.05370       -5.33160       -3.72670
F          1.19710       -4.84860       -3.66570
C         -0.34900       -6.29920       -4.66690
F          0.63390       -6.76710       -5.45560
C         -1.63150       -6.83230       -4.78680
C         -2.62960       -6.35340       -3.92800
O         -3.90510       -6.83100       -3.94010
C         -4.61500       -6.79640       -5.17230
C         -4.61880       -5.41160       -5.80450
C         -2.33310       -5.36210       -2.97950
O         -3.35890       -4.91150       -2.19250
C         -3.34090       -5.34830       -0.83770
C         -3.45370       -6.86120       -0.70630
C         -1.86560       -7.91810       -5.73930
C         -1.56740       -7.83380       -7.04460
S         -1.64200       -9.17320       -8.17400
C         -0.98380       -8.15930       -9.49830
O         -0.75010       -8.56370      -10.59720
N         -0.83130       -6.87720       -9.04820
C         -0.29640       -5.84550       -9.92380
C          1.22410       -5.80940       -9.85000
C         -1.17070       -6.59250       -7.74280
O         -1.19170       -5.47740       -7.28240
H          0.79060        6.44030        6.35150
H          4.77820       10.67690        6.46370
H          3.35460       10.37580        7.50890
H          5.46350       10.44080        8.85220
H          4.72480        8.83650        8.91230
H          6.13050        9.12970        7.87370
H         -3.32680        2.35330        3.63900
H         -1.91510        1.61340        4.43310
H         -1.89420        3.44190        6.12390
H         -3.25260        4.22120        5.31720
H         -3.47110        2.64130        6.08950
H         -0.10920        7.35100        4.19010
H         -1.86910        7.35890        4.47510
H         -0.42100        6.07240        2.09610
H         -1.44210        7.51570        2.05060
H         -2.15100        5.92980        2.40240
H          2.09110        0.24520        2.61080
H          1.81690       -2.14080        3.28090
H          3.98770       -3.02600        4.04100
H          5.74090       -3.57260        2.43290
H          8.09470       -3.53170       -0.44490
H          7.39700       -3.96790        1.12090
H          7.66570       -1.12510       -0.00920
H          8.65870       -1.80310        1.28750
H          6.93480       -1.51090        1.54930
H          3.20110       -2.30650       -0.76420
H         -3.76900       -2.15480       -0.05970
H         -6.05350       -1.39670       -0.57660
H         -6.48800        0.92560       -1.18750
H         -6.97840        2.94260       -1.71940
H         -6.33850        4.38600       -2.51680
H         -5.36510        3.00310       -4.33180
H         -5.95080        1.52870       -3.56030
H         -7.10320        2.69950       -4.21470
H         -2.31120        1.78300       -0.87900
H         -2.47410       -2.53590       -2.09100
H         -5.62800       -7.09950       -4.89640
H         -4.20540       -7.53320       -5.87520
H         -4.96360       -4.67630       -5.08140
H         -5.28250       -5.40440       -6.66460
H         -3.61720       -5.13610       -6.12960
H         -4.21010       -4.85930       -0.39210
H         -2.43250       -4.99240       -0.33390
H         -4.30220       -7.21990       -1.28260
H         -3.58720       -7.12860        0.33820
H         -2.55340       -7.34420       -1.08040
H         -2.24020       -8.84840       -5.33160
H         -0.72090       -4.89750       -9.58540
H         -0.62960       -6.06650      -10.94000
H          1.64090       -6.75730      -10.18240
H          1.60150       -5.01790      -10.49080
H          1.54680       -5.61800       -8.82920
