
  xtb     02092212153D
 energy: -263.507294198400 gnorm: 0.000426769493 xtb: 6.4.1 (unknown)
160172  0     0  0            999 V2000
    0.8344   -2.5542    7.6128 C   0  0  0  0  0  0  0  0  0  0  0  0
    1.4661   -1.7558    8.5187 C   0  0  0  0  0  0  0  0  0  0  0  0
    1.5293   -2.2022   10.2207 S   0  0  0  0  0  0  0  0  0  0  0  0
    2.5156   -0.7680   10.6192 C   0  0  0  0  0  0  0  0  0  0  0  0
    2.9175   -0.5032   11.7153 O   0  0  0  0  0  0  0  0  0  0  0  0
    2.7360   -0.0553    9.4754 N   0  0  0  0  0  0  0  0  0  0  0  0
    3.4889    1.1877    9.5153 C   0  0  0  0  0  0  0  0  0  0  0  0
    2.6035    2.3534    9.9352 C   0  0  0  0  0  0  0  0  0  0  0  0
    2.1893   -0.5228    8.2931 C   0  0  0  0  0  0  0  0  0  0  0  0
    2.3441    0.0525    7.2314 O   0  0  0  0  0  0  0  0  0  0  0  0
    0.6557   -2.3967    6.2285 C   0  0  0  0  0  0  0  0  0  0  0  0
    0.0265   -3.3623    5.4195 C   0  0  0  0  0  0  0  0  0  0  0  0
   -0.3933   -4.6101    5.8345 N   0  0  0  0  0  0  0  0  0  0  0  0
   -1.6149   -5.0866    5.3305 C   0  0  0  0  0  0  0  0  0  0  0  0
   -2.7187   -4.2395    5.2941 C   0  0  0  0  0  0  0  0  0  0  0  0
   -3.9314   -4.6820    4.8044 C   0  0  0  0  0  0  0  0  0  0  0  0
   -4.0551   -5.9825    4.3346 C   0  0  0  0  0  0  0  0  0  0  0  0
   -5.5418   -6.6457    3.6518 S   0  0  0  0  0  0  0  0  0  0  0  0
   -6.8002   -5.3975    4.0486 C   0  0  0  0  0  0  0  0  0  0  0  0
   -2.9516   -6.8338    4.3710 C   0  0  0  0  0  0  0  0  0  0  0  0
   -1.7444   -6.3945    4.8655 C   0  0  0  0  0  0  0  0  0  0  0  0
    0.4011   -5.4271    6.6498 C   0  0  0  0  0  0  0  0  0  0  0  0
    1.7906   -5.3752    6.5704 C   0  0  0  0  0  0  0  0  0  0  0  0
    2.5732   -6.1569    7.3960 C   0  0  0  0  0  0  0  0  0  0  0  0
    1.9788   -7.0161    8.3115 C   0  0  0  0  0  0  0  0  0  0  0  0
    2.8744   -8.0570    9.4179 S   0  0  0  0  0  0  0  0  0  0  0  0
    4.5828   -7.4571    9.2870 C   0  0  0  0  0  0  0  0  0  0  0  0
    0.5884   -7.0913    8.3733 C   0  0  0  0  0  0  0  0  0  0  0  0
   -0.1932   -6.3059    7.5565 C   0  0  0  0  0  0  0  0  0  0  0  0
   -0.1240   -2.8975    4.1016 C   0  0  0  0  0  0  0  0  0  0  0  0
   -0.7460   -3.5840    2.6356 S   0  0  0  0  0  0  0  0  0  0  0  0
   -0.2793   -2.1584    1.7446 C   0  0  0  0  0  0  0  0  0  0  0  0
    0.3181   -1.2113    2.5447 C   0  0  0  0  0  0  0  0  0  0  0  0
    0.7676    0.0396    2.0721 N   0  0  0  0  0  0  0  0  0  0  0  0
    2.0831    0.1413    1.6245 C   0  0  0  0  0  0  0  0  0  0  0  0
    2.4170    0.9978    0.5711 C   0  0  0  0  0  0  0  0  0  0  0  0
    3.7029    1.0399    0.0840 C   0  0  0  0  0  0  0  0  0  0  0  0
    4.6990    0.2322    0.6341 C   0  0  0  0  0  0  0  0  0  0  0  0
    6.3059    0.3654   -0.0878 S   0  0  0  0  0  0  0  0  0  0  0  0
    7.2802   -0.8877    0.7918 C   0  0  0  0  0  0  0  0  0  0  0  0
    4.3769   -0.6156    1.6834 C   0  0  0  0  0  0  0  0  0  0  0  0
    3.0843   -0.6626    2.1676 C   0  0  0  0  0  0  0  0  0  0  0  0
   -0.1301    1.1085    2.0147 C   0  0  0  0  0  0  0  0  0  0  0  0
   -1.4997    0.8990    1.8751 C   0  0  0  0  0  0  0  0  0  0  0  0
   -2.3762    1.9641    1.7817 C   0  0  0  0  0  0  0  0  0  0  0  0
   -1.9031    3.2656    1.8333 C   0  0  0  0  0  0  0  0  0  0  0  0
   -2.9218    4.7029    1.6846 S   0  0  0  0  0  0  0  0  0  0  0  0
   -4.5453    4.0330    1.2248 C   0  0  0  0  0  0  0  0  0  0  0  0
   -0.5416    3.4828    2.0348 C   0  0  0  0  0  0  0  0  0  0  0  0
    0.3301    2.4233    2.1355 C   0  0  0  0  0  0  0  0  0  0  0  0
    0.3990   -1.6282    3.8929 C   0  0  0  0  0  0  0  0  0  0  0  0
    1.1070   -0.9571    5.3165 S   0  0  0  0  0  0  0  0  0  0  0  0
   -0.4295   -1.9437    0.3035 C   0  0  0  0  0  0  0  0  0  0  0  0
   -1.6353   -1.6877   -0.3348 C   0  0  0  0  0  0  0  0  0  0  0  0
   -2.8159   -1.8891    0.3450 O   0  0  0  0  0  0  0  0  0  0  0  0
   -3.2104   -3.2503    0.5170 C   0  0  0  0  0  0  0  0  0  0  0  0
   -4.1798   -3.3269    1.6809 C   0  0  0  0  0  0  0  0  0  0  0  0
   -1.6733   -1.0822   -1.6288 C   0  0  0  0  0  0  0  0  0  0  0  0
   -2.8002   -0.6066   -2.2225 O   0  0  0  0  0  0  0  0  0  0  0  0
   -4.0296   -1.3145   -2.2056 C   0  0  0  0  0  0  0  0  0  0  0  0
   -3.9531   -2.6065   -3.0124 C   0  0  0  0  0  0  0  0  0  0  0  0
   -0.4958   -0.7502   -2.2985 C   0  0  0  0  0  0  0  0  0  0  0  0
    0.7267   -1.1546   -1.7304 C   0  0  0  0  0  0  0  0  0  0  0  0
    0.7573   -1.7637   -0.4361 C   0  0  0  0  0  0  0  0  0  0  0  0
    1.9930   -2.1153   -0.0706 N   0  0  0  0  0  0  0  0  0  0  0  0
    3.0072   -1.7114   -1.2484 S   0  0  0  0  0  0  0  0  0  0  0  0
    1.9456   -1.0722   -2.2711 N   0  0  0  0  0  0  0  0  0  0  0  0
   -0.5232   -0.0426   -3.5672 C   0  0  0  0  0  0  0  0  0  0  0  0
    0.1634    1.1083   -3.9058 C   0  0  0  0  0  0  0  0  0  0  0  0
    0.8883    1.9162   -2.8711 C   0  0  0  0  0  0  0  0  0  0  0  0
   -0.1079    2.5440   -1.8921 C   0  0  0  0  0  0  0  0  0  0  0  0
   -0.0624    1.4614   -5.2489 C   0  0  0  0  0  0  0  0  0  0  0  0
   -0.9559    0.5982   -5.8776 C   0  0  0  0  0  0  0  0  0  0  0  0
   -1.5010   -0.6688   -4.8629 S   0  0  0  0  0  0  0  0  0  0  0  0
   -1.2101    1.0451   -7.1917 C   0  0  0  0  0  0  0  0  0  0  0  0
   -0.4694    2.2062   -7.4256 C   0  0  0  0  0  0  0  0  0  0  0  0
    0.3766    2.5499   -6.2157 C   0  0  0  0  0  0  0  0  0  0  0  0
    1.8437    2.3747   -6.6715 C   0  0  0  0  0  0  0  0  0  0  0  0
    2.9127    2.5293   -5.5997 C   0  0  0  0  0  0  0  0  0  0  0  0
    0.0480    3.9388   -5.6384 C   0  0  0  0  0  0  0  0  0  0  0  0
    0.2840    5.1103   -6.5829 C   0  0  0  0  0  0  0  0  0  0  0  0
   -0.6272    2.6866   -8.7152 C   0  0  0  0  0  0  0  0  0  0  0  0
   -1.5158    1.9240   -9.4657 C   0  0  0  0  0  0  0  0  0  0  0  0
   -2.1377    0.5607   -8.5424 S   0  0  0  0  0  0  0  0  0  0  0  0
   -1.9582    2.0917  -10.7909 C   0  0  0  0  0  0  0  0  0  0  0  0
   -1.6331    3.0700  -11.6757 C   0  0  0  0  0  0  0  0  0  0  0  0
   -0.5595    4.4351  -11.4412 S   0  0  0  0  0  0  0  0  0  0  0  0
   -0.8487    5.0252  -13.1071 C   0  0  0  0  0  0  0  0  0  0  0  0
   -0.3445    6.0099  -13.5648 O   0  0  0  0  0  0  0  0  0  0  0  0
   -1.7217    4.1850  -13.7287 N   0  0  0  0  0  0  0  0  0  0  0  0
   -2.1083    4.4104  -15.1113 C   0  0  0  0  0  0  0  0  0  0  0  0
   -1.0715    3.8421  -16.0713 C   0  0  0  0  0  0  0  0  0  0  0  0
   -2.1955    3.0884  -13.0216 C   0  0  0  0  0  0  0  0  0  0  0  0
   -2.9746    2.2854  -13.4845 O   0  0  0  0  0  0  0  0  0  0  0  0
    0.3932   -3.4542    8.0248 H   0  0  0  0  0  0  0  0  0  0  0  0
    4.3100    1.0570   10.2238 H   0  0  0  0  0  0  0  0  0  0  0  0
    3.8807    1.3451    8.5078 H   0  0  0  0  0  0  0  0  0  0  0  0
    2.2039    2.1812   10.9319 H   0  0  0  0  0  0  0  0  0  0  0  0
    1.7795    2.4718    9.2352 H   0  0  0  0  0  0  0  0  0  0  0  0
    3.1873    3.2692    9.9461 H   0  0  0  0  0  0  0  0  0  0  0  0
   -2.6251   -3.2276    5.6610 H   0  0  0  0  0  0  0  0  0  0  0  0
   -4.7702   -4.0053    4.7989 H   0  0  0  0  0  0  0  0  0  0  0  0
   -6.6153   -4.4830    3.4925 H   0  0  0  0  0  0  0  0  0  0  0  0
   -7.7462   -5.8308    3.7391 H   0  0  0  0  0  0  0  0  0  0  0  0
   -6.8106   -5.2153    5.1190 H   0  0  0  0  0  0  0  0  0  0  0  0
   -3.0551   -7.8422    4.0016 H   0  0  0  0  0  0  0  0  0  0  0  0
   -0.8929   -7.0572    4.8918 H   0  0  0  0  0  0  0  0  0  0  0  0
    2.2608   -4.7135    5.8584 H   0  0  0  0  0  0  0  0  0  0  0  0
    3.6455   -6.0931    7.3072 H   0  0  0  0  0  0  0  0  0  0  0  0
    4.9944   -7.6974    8.3110 H   0  0  0  0  0  0  0  0  0  0  0  0
    4.6102   -6.3883    9.4773 H   0  0  0  0  0  0  0  0  0  0  0  0
    5.1370   -7.9837   10.0576 H   0  0  0  0  0  0  0  0  0  0  0  0
    0.1308   -7.7648    9.0810 H   0  0  0  0  0  0  0  0  0  0  0  0
   -1.2694   -6.3577    7.6238 H   0  0  0  0  0  0  0  0  0  0  0  0
    1.6516    1.6062    0.1169 H   0  0  0  0  0  0  0  0  0  0  0  0
    3.9514    1.6920   -0.7399 H   0  0  0  0  0  0  0  0  0  0  0  0
    6.8359   -1.8686    0.6495 H   0  0  0  0  0  0  0  0  0  0  0  0
    7.3501   -0.6336    1.8454 H   0  0  0  0  0  0  0  0  0  0  0  0
    8.2673   -0.8600    0.3411 H   0  0  0  0  0  0  0  0  0  0  0  0
    5.1204   -1.2508    2.1361 H   0  0  0  0  0  0  0  0  0  0  0  0
    2.8537   -1.3369    2.9761 H   0  0  0  0  0  0  0  0  0  0  0  0
   -1.8997   -0.1008    1.8308 H   0  0  0  0  0  0  0  0  0  0  0  0
   -3.4268    1.7541    1.6626 H   0  0  0  0  0  0  0  0  0  0  0  0
   -4.4509    3.4230    0.3314 H   0  0  0  0  0  0  0  0  0  0  0  0
   -5.1716    4.8959    1.0203 H   0  0  0  0  0  0  0  0  0  0  0  0
   -4.9629    3.4636    2.0502 H   0  0  0  0  0  0  0  0  0  0  0  0
   -0.1778    4.4955    2.1179 H   0  0  0  0  0  0  0  0  0  0  0  0
    1.3780    2.6081    2.3151 H   0  0  0  0  0  0  0  0  0  0  0  0
   -3.6971   -3.6082   -0.4004 H   0  0  0  0  0  0  0  0  0  0  0  0
   -2.3348   -3.8820    0.7027 H   0  0  0  0  0  0  0  0  0  0  0  0
   -3.6923   -2.9958    2.5938 H   0  0  0  0  0  0  0  0  0  0  0  0
   -4.5070   -4.3551    1.8049 H   0  0  0  0  0  0  0  0  0  0  0  0
   -5.0410   -2.6911    1.4902 H   0  0  0  0  0  0  0  0  0  0  0  0
   -4.3634   -1.4984   -1.1821 H   0  0  0  0  0  0  0  0  0  0  0  0
   -4.7282   -0.6200   -2.6800 H   0  0  0  0  0  0  0  0  0  0  0  0
   -3.7122   -2.3837   -4.0489 H   0  0  0  0  0  0  0  0  0  0  0  0
   -4.9084   -3.1228   -2.9737 H   0  0  0  0  0  0  0  0  0  0  0  0
   -3.1781   -3.2619   -2.6182 H   0  0  0  0  0  0  0  0  0  0  0  0
    1.4574    2.7081   -3.3510 H   0  0  0  0  0  0  0  0  0  0  0  0
    1.5878    1.2774   -2.3312 H   0  0  0  0  0  0  0  0  0  0  0  0
   -0.6389    1.7781   -1.3302 H   0  0  0  0  0  0  0  0  0  0  0  0
    0.4073    3.1942   -1.1879 H   0  0  0  0  0  0  0  0  0  0  0  0
   -0.8412    3.1403   -2.4310 H   0  0  0  0  0  0  0  0  0  0  0  0
    1.9306    1.3751   -7.1054 H   0  0  0  0  0  0  0  0  0  0  0  0
    2.0271    3.0926   -7.4724 H   0  0  0  0  0  0  0  0  0  0  0  0
    2.8209    1.7527   -4.8458 H   0  0  0  0  0  0  0  0  0  0  0  0
    3.8936    2.4359   -6.0613 H   0  0  0  0  0  0  0  0  0  0  0  0
    2.8612    3.5050   -5.1233 H   0  0  0  0  0  0  0  0  0  0  0  0
    0.6389    4.0893   -4.7355 H   0  0  0  0  0  0  0  0  0  0  0  0
   -1.0042    3.9297   -5.3420 H   0  0  0  0  0  0  0  0  0  0  0  0
    0.0613    6.0397   -6.0630 H   0  0  0  0  0  0  0  0  0  0  0  0
   -0.3624    5.0493   -7.4533 H   0  0  0  0  0  0  0  0  0  0  0  0
    1.3177    5.1506   -6.9147 H   0  0  0  0  0  0  0  0  0  0  0  0
   -0.1277    3.5434   -9.1268 H   0  0  0  0  0  0  0  0  0  0  0  0
   -2.6529    1.3515  -11.1718 H   0  0  0  0  0  0  0  0  0  0  0  0
   -2.2154    5.4878  -15.2574 H   0  0  0  0  0  0  0  0  0  0  0  0
   -3.0718    3.9136  -15.2472 H   0  0  0  0  0  0  0  0  0  0  0  0
   -1.3906    4.0115  -17.0956 H   0  0  0  0  0  0  0  0  0  0  0  0
   -0.1112    4.3292  -15.9184 H   0  0  0  0  0  0  0  0  0  0  0  0
   -0.9582    2.7721  -15.9119 H   0  0  0  0  0  0  0  0  0  0  0  0
  1  2  2  0  0  0  0
  2  3  1  0  0  0  0
  3  4  1  0  0  0  0
  4  5  2  0  0  0  0
  4  6  1  0  0  0  0
  6  7  1  0  0  0  0
  7  8  1  0  0  0  0
  6  9  1  0  0  0  0
  9 10  2  0  0  0  0
  1 11  1  0  0  0  0
 11 12  2  0  0  0  0
 12 13  1  0  0  0  0
 13 14  1  0  0  0  0
 14 15  2  0  0  0  0
 15 16  1  0  0  0  0
 16 17  2  0  0  0  0
 17 18  1  0  0  0  0
 18 19  1  0  0  0  0
 17 20  1  0  0  0  0
 20 21  2  0  0  0  0
 13 22  1  0  0  0  0
 22 23  2  0  0  0  0
 23 24  1  0  0  0  0
 24 25  2  0  0  0  0
 25 26  1  0  0  0  0
 26 27  1  0  0  0  0
 25 28  1  0  0  0  0
 28 29  2  0  0  0  0
 12 30  1  0  0  0  0
 30 31  1  0  0  0  0
 31 32  1  0  0  0  0
 32 33  2  0  0  0  0
 33 34  1  0  0  0  0
 34 35  1  0  0  0  0
 35 36  2  0  0  0  0
 36 37  1  0  0  0  0
 37 38  2  0  0  0  0
 38 39  1  0  0  0  0
 39 40  1  0  0  0  0
 38 41  1  0  0  0  0
 41 42  2  0  0  0  0
 34 43  1  0  0  0  0
 43 44  2  0  0  0  0
 44 45  1  0  0  0  0
 45 46  2  0  0  0  0
 46 47  1  0  0  0  0
 47 48  1  0  0  0  0
 46 49  1  0  0  0  0
 49 50  2  0  0  0  0
 33 51  1  0  0  0  0
 51 52  1  0  0  0  0
 32 53  1  0  0  0  0
 53 54  2  0  0  0  0
 54 55  1  0  0  0  0
 55 56  1  0  0  0  0
 56 57  1  0  0  0  0
 54 58  1  0  0  0  0
 58 59  1  0  0  0  0
 59 60  1  0  0  0  0
 60 61  1  0  0  0  0
 58 62  2  0  0  0  0
 62 63  1  0  0  0  0
 63 64  1  0  0  0  0
 64 65  2  0  0  0  0
 65 66  1  0  0  0  0
 66 67  1  0  0  0  0
 62 68  1  0  0  0  0
 68 69  2  0  0  0  0
 69 70  1  0  0  0  0
 70 71  1  0  0  0  0
 69 72  1  0  0  0  0
 72 73  2  0  0  0  0
 73 74  1  0  0  0  0
 73 75  1  0  0  0  0
 75 76  2  0  0  0  0
 76 77  1  0  0  0  0
 77 78  1  0  0  0  0
 78 79  1  0  0  0  0
 77 80  1  0  0  0  0
 80 81  1  0  0  0  0
 76 82  1  0  0  0  0
 82 83  2  0  0  0  0
 83 84  1  0  0  0  0
 83 85  1  0  0  0  0
 85 86  2  0  0  0  0
 86 87  1  0  0  0  0
 87 88  1  0  0  0  0
 88 89  2  0  0  0  0
 88 90  1  0  0  0  0
 90 91  1  0  0  0  0
 91 92  1  0  0  0  0
 90 93  1  0  0  0  0
 93 94  2  0  0  0  0
  9  2  1  0  0  0  0
 52 11  1  0  0  0  0
 64 53  1  0  0  0  0
 74 68  1  0  0  0  0
 84 75  1  0  0  0  0
 93 86  1  0  0  0  0
 21 14  1  0  0  0  0
 29 22  1  0  0  0  0
 51 30  2  0  0  0  0
 67 63  2  0  0  0  0
 77 72  1  0  0  0  0
 42 35  1  0  0  0  0
 50 43  1  0  0  0  0
  1 95  1  0  0  0  0
  7 96  1  0  0  0  0
  7 97  1  0  0  0  0
  8 98  1  0  0  0  0
  8 99  1  0  0  0  0
  8100  1  0  0  0  0
 15101  1  0  0  0  0
 16102  1  0  0  0  0
 19103  1  0  0  0  0
 19104  1  0  0  0  0
 19105  1  0  0  0  0
 20106  1  0  0  0  0
 21107  1  0  0  0  0
 23108  1  0  0  0  0
 24109  1  0  0  0  0
 27110  1  0  0  0  0
 27111  1  0  0  0  0
 27112  1  0  0  0  0
 28113  1  0  0  0  0
 29114  1  0  0  0  0
 36115  1  0  0  0  0
 37116  1  0  0  0  0
 40117  1  0  0  0  0
 40118  1  0  0  0  0
 40119  1  0  0  0  0
 41120  1  0  0  0  0
 42121  1  0  0  0  0
 44122  1  0  0  0  0
 45123  1  0  0  0  0
 48124  1  0  0  0  0
 48125  1  0  0  0  0
 48126  1  0  0  0  0
 49127  1  0  0  0  0
 50128  1  0  0  0  0
 56129  1  0  0  0  0
 56130  1  0  0  0  0
 57131  1  0  0  0  0
 57132  1  0  0  0  0
 57133  1  0  0  0  0
 60134  1  0  0  0  0
 60135  1  0  0  0  0
 61136  1  0  0  0  0
 61137  1  0  0  0  0
 61138  1  0  0  0  0
 70139  1  0  0  0  0
 70140  1  0  0  0  0
 71141  1  0  0  0  0
 71142  1  0  0  0  0
 71143  1  0  0  0  0
 78144  1  0  0  0  0
 78145  1  0  0  0  0
 79146  1  0  0  0  0
 79147  1  0  0  0  0
 79148  1  0  0  0  0
 80149  1  0  0  0  0
 80150  1  0  0  0  0
 81151  1  0  0  0  0
 81152  1  0  0  0  0
 81153  1  0  0  0  0
 82154  1  0  0  0  0
 85155  1  0  0  0  0
 91156  1  0  0  0  0
 91157  1  0  0  0  0
 92158  1  0  0  0  0
 92159  1  0  0  0  0
 92160  1  0  0  0  0
M  END
