
  xtb     02172217223D
 energy: -360.012561124253 gnorm: 0.000649390684 xtb: 6.4.1 (unknown)
216234  0     0  0            999 V2000
    8.1531   -4.2681    2.8073 C   0  0  0  0  0  0  0  0  0  0  0  0
    8.8416   -5.3690    2.4326 C   0  0  0  0  0  0  0  0  0  0  0  0
   10.1844   -6.0054    3.3659 S   0  0  0  0  0  0  0  0  0  0  0  0
   10.5524   -7.2280    2.1099 C   0  0  0  0  0  0  0  0  0  0  0  0
   11.4510   -8.0131    2.1876 O   0  0  0  0  0  0  0  0  0  0  0  0
    9.6691   -7.0863    1.0801 N   0  0  0  0  0  0  0  0  0  0  0  0
    9.7725   -7.9303   -0.1017 C   0  0  0  0  0  0  0  0  0  0  0  0
    9.5268   -9.3951    0.2271 C   0  0  0  0  0  0  0  0  0  0  0  0
    8.7314   -6.0679    1.1535 C   0  0  0  0  0  0  0  0  0  0  0  0
    8.0108   -5.7604    0.2306 O   0  0  0  0  0  0  0  0  0  0  0  0
    6.9389   -3.7697    2.2413 C   0  0  0  0  0  0  0  0  0  0  0  0
    5.7136   -4.3899    2.0614 C   0  0  0  0  0  0  0  0  0  0  0  0
    5.3594   -5.7045    2.3898 N   0  0  0  0  0  0  0  0  0  0  0  0
    5.6082   -6.7499    1.4796 C   0  0  0  0  0  0  0  0  0  0  0  0
    5.8481   -8.0332    1.9665 C   0  0  0  0  0  0  0  0  0  0  0  0
    6.0342   -9.0791    1.0906 C   0  0  0  0  0  0  0  0  0  0  0  0
    6.0009   -8.8604   -0.2874 C   0  0  0  0  0  0  0  0  0  0  0  0
    6.2636  -10.2753   -1.3111 S   0  0  0  0  0  0  0  0  0  0  0  0
    5.9950   -9.6512   -2.9930 C   0  0  0  0  0  0  0  0  0  0  0  0
    5.7789   -7.5813   -0.7725 C   0  0  0  0  0  0  0  0  0  0  0  0
    5.5765   -6.5343    0.1073 C   0  0  0  0  0  0  0  0  0  0  0  0
    4.2135   -5.7930    3.2016 C   0  0  0  0  0  0  0  0  0  0  0  0
    3.1819   -6.6887    2.9368 C   0  0  0  0  0  0  0  0  0  0  0  0
    2.0313   -6.6886    3.7026 C   0  0  0  0  0  0  0  0  0  0  0  0
    1.8845   -5.7859    4.7455 C   0  0  0  0  0  0  0  0  0  0  0  0
    0.4386   -5.6459    5.7479 S   0  0  0  0  0  0  0  0  0  0  0  0
   -0.6379   -6.9792    5.1566 C   0  0  0  0  0  0  0  0  0  0  0  0
    2.9293   -4.9105    5.0371 C   0  0  0  0  0  0  0  0  0  0  0  0
    4.0797   -4.9184    4.2832 C   0  0  0  0  0  0  0  0  0  0  0  0
    4.7272   -3.4496    1.6862 C   0  0  0  0  0  0  0  0  0  0  0  0
    3.0451   -3.6092    1.3664 S   0  0  0  0  0  0  0  0  0  0  0  0
    2.9346   -1.8974    0.9948 C   0  0  0  0  0  0  0  0  0  0  0  0
    4.1424   -1.2371    1.1974 C   0  0  0  0  0  0  0  0  0  0  0  0
    4.3349    0.1432    1.1183 N   0  0  0  0  0  0  0  0  0  0  0  0
    5.4706    0.5594    0.4058 C   0  0  0  0  0  0  0  0  0  0  0  0
    5.7594   -0.0580   -0.8123 C   0  0  0  0  0  0  0  0  0  0  0  0
    6.8829    0.2943   -1.5238 C   0  0  0  0  0  0  0  0  0  0  0  0
    7.7444    1.2775   -1.0410 C   0  0  0  0  0  0  0  0  0  0  0  0
    9.1471    1.6503   -2.0452 S   0  0  0  0  0  0  0  0  0  0  0  0
   10.0301    2.9319   -1.1109 C   0  0  0  0  0  0  0  0  0  0  0  0
    7.4632    1.8922    0.1714 C   0  0  0  0  0  0  0  0  0  0  0  0
    6.3408    1.5299    0.8909 C   0  0  0  0  0  0  0  0  0  0  0  0
    3.6693    0.9793    2.0171 C   0  0  0  0  0  0  0  0  0  0  0  0
    3.5511    2.3474    1.7617 C   0  0  0  0  0  0  0  0  0  0  0  0
    2.9208    3.1736    2.6645 C   0  0  0  0  0  0  0  0  0  0  0  0
    2.3511    2.6501    3.8209 C   0  0  0  0  0  0  0  0  0  0  0  0
    1.5251    3.7708    4.9159 S   0  0  0  0  0  0  0  0  0  0  0  0
    1.6468    2.9400    6.5262 C   0  0  0  0  0  0  0  0  0  0  0  0
    2.4255    1.2872    4.0632 C   0  0  0  0  0  0  0  0  0  0  0  0
    3.0946    0.4650    3.1792 C   0  0  0  0  0  0  0  0  0  0  0  0
    5.1634   -2.1437    1.5636 C   0  0  0  0  0  0  0  0  0  0  0  0
    6.8479   -2.0309    1.9419 S   0  0  0  0  0  0  0  0  0  0  0  0
    1.6846   -1.3833    0.5640 C   0  0  0  0  0  0  0  0  0  0  0  0
    0.5004   -2.1006    0.4370 C   0  0  0  0  0  0  0  0  0  0  0  0
    0.3552   -3.4798    0.6474 N   0  0  0  0  0  0  0  0  0  0  0  0
    0.8895   -4.3815   -0.2748 C   0  0  0  0  0  0  0  0  0  0  0  0
    1.2719   -3.9647   -1.5469 C   0  0  0  0  0  0  0  0  0  0  0  0
    1.8965   -4.8347   -2.4212 C   0  0  0  0  0  0  0  0  0  0  0  0
    2.1515   -6.1417   -2.0372 C   0  0  0  0  0  0  0  0  0  0  0  0
    2.9531   -7.3360   -3.0630 S   0  0  0  0  0  0  0  0  0  0  0  0
    3.6091   -6.3550   -4.4444 C   0  0  0  0  0  0  0  0  0  0  0  0
    1.7568   -6.5723   -0.7720 C   0  0  0  0  0  0  0  0  0  0  0  0
    1.1360   -5.7074    0.0975 C   0  0  0  0  0  0  0  0  0  0  0  0
   -0.5932   -3.8630    1.6065 C   0  0  0  0  0  0  0  0  0  0  0  0
   -0.6342   -3.1872    2.8266 C   0  0  0  0  0  0  0  0  0  0  0  0
   -1.5695   -3.5238    3.7783 C   0  0  0  0  0  0  0  0  0  0  0  0
   -2.4871   -4.5437    3.5350 C   0  0  0  0  0  0  0  0  0  0  0  0
   -3.6317   -4.8981    4.8338 S   0  0  0  0  0  0  0  0  0  0  0  0
   -4.7610   -6.1175    4.1014 C   0  0  0  0  0  0  0  0  0  0  0  0
   -2.4496   -5.2202    2.3234 C   0  0  0  0  0  0  0  0  0  0  0  0
   -1.5144   -4.8771    1.3656 C   0  0  0  0  0  0  0  0  0  0  0  0
   -0.5662   -1.2642    0.0528 C   0  0  0  0  0  0  0  0  0  0  0  0
   -2.2469   -1.5428   -0.2474 S   0  0  0  0  0  0  0  0  0  0  0  0
   -2.4461    0.1406   -0.6829 C   0  0  0  0  0  0  0  0  0  0  0  0
   -1.2564    0.8538   -0.6713 C   0  0  0  0  0  0  0  0  0  0  0  0
   -1.1087    2.1433   -1.1623 N   0  0  0  0  0  0  0  0  0  0  0  0
   -0.3997    3.1034   -0.4169 C   0  0  0  0  0  0  0  0  0  0  0  0
   -0.5978    3.2400    0.9525 C   0  0  0  0  0  0  0  0  0  0  0  0
    0.0028    4.2753    1.6426 C   0  0  0  0  0  0  0  0  0  0  0  0
    0.8132    5.1794    0.9692 C   0  0  0  0  0  0  0  0  0  0  0  0
    1.5912    6.5593    1.7569 S   0  0  0  0  0  0  0  0  0  0  0  0
    0.4533    6.9316    3.1210 C   0  0  0  0  0  0  0  0  0  0  0  0
    1.0626    5.0064   -0.3896 C   0  0  0  0  0  0  0  0  0  0  0  0
    0.4598    3.9786   -1.0781 C   0  0  0  0  0  0  0  0  0  0  0  0
   -1.8662    2.5825   -2.2578 C   0  0  0  0  0  0  0  0  0  0  0  0
   -2.1630    1.7200   -3.3142 C   0  0  0  0  0  0  0  0  0  0  0  0
   -3.0037    2.1208   -4.3289 C   0  0  0  0  0  0  0  0  0  0  0  0
   -3.5613    3.3967   -4.3245 C   0  0  0  0  0  0  0  0  0  0  0  0
   -4.7061    3.7641   -5.6180 S   0  0  0  0  0  0  0  0  0  0  0  0
   -5.2422    5.4616   -5.2670 C   0  0  0  0  0  0  0  0  0  0  0  0
   -3.2141    4.2843   -3.3164 C   0  0  0  0  0  0  0  0  0  0  0  0
   -2.3778    3.8791   -2.2956 C   0  0  0  0  0  0  0  0  0  0  0  0
   -0.1942    0.0484   -0.2002 C   0  0  0  0  0  0  0  0  0  0  0  0
    1.4904    0.3007    0.1006 S   0  0  0  0  0  0  0  0  0  0  0  0
   -3.7054    0.7538   -0.9842 C   0  0  0  0  0  0  0  0  0  0  0  0
   -4.6323    0.4971   -1.9401 C   0  0  0  0  0  0  0  0  0  0  0  0
   -5.5625    1.5569   -2.1262 C   0  0  0  0  0  0  0  0  0  0  0  0
   -6.5213    1.6828   -3.1480 C   0  0  0  0  0  0  0  0  0  0  0  0
   -6.7962    0.6313   -4.1013 C   0  0  0  0  0  0  0  0  0  0  0  0
   -7.0291    0.7779   -5.4398 C   0  0  0  0  0  0  0  0  0  0  0  0
   -7.3543   -0.3982   -6.1425 C   0  0  0  0  0  0  0  0  0  0  0  0
   -7.4114   -1.5316   -5.3839 C   0  0  0  0  0  0  0  0  0  0  0  0
   -7.6997   -3.1262   -6.0397 S   0  0  0  0  0  0  0  0  0  0  0  0
   -8.2820   -4.0248   -4.5590 C   0  0  0  0  0  0  0  0  0  0  0  0
   -9.6680   -3.5868   -4.1327 C   0  0  0  0  0  0  0  0  0  0  0  0
   -6.9801   -1.1730   -3.5834 Se  0  0  0  0  0  2  0  0  0  0  0  0
   -7.2006    2.8985   -3.2052 C   0  0  0  0  0  0  0  0  0  0  0  0
   -6.9435    3.9876   -2.3339 C   0  0  0  0  0  0  0  0  0  0  0  0
   -5.9171    3.8922   -1.3597 C   0  0  0  0  0  0  0  0  0  0  0  0
   -5.4580    5.0295   -0.6041 C   0  0  0  0  0  0  0  0  0  0  0  0
   -5.4804    6.3548   -0.9722 C   0  0  0  0  0  0  0  0  0  0  0  0
   -4.9133    7.2676   -0.0693 C   0  0  0  0  0  0  0  0  0  0  0  0
   -4.4148    6.7099    1.0778 C   0  0  0  0  0  0  0  0  0  0  0  0
   -3.6322    7.5994    2.3588 S   0  0  0  0  0  0  0  0  0  0  0  0
   -3.4649    6.2680    3.6078 C   0  0  0  0  0  0  0  0  0  0  0  0
   -2.9440    6.8245    4.9164 C   0  0  0  0  0  0  0  0  0  0  0  0
   -4.6029    4.8388    1.0651 Se  0  0  0  0  0  2  0  0  0  0  0  0
   -5.3118    2.6429   -1.2542 C   0  0  0  0  0  0  0  0  0  0  0  0
   -4.0276    2.2671   -0.1502 S   0  0  0  0  0  0  0  0  0  0  0  0
   -7.8285    5.0617   -2.5620 C   0  0  0  0  0  0  0  0  0  0  0  0
   -8.7154    4.8448   -3.5868 C   0  0  0  0  0  0  0  0  0  0  0  0
   -8.4896    3.2651   -4.3127 S   0  0  0  0  0  0  0  0  0  0  0  0
   -9.7218    5.6965   -4.1034 C   0  0  0  0  0  0  0  0  0  0  0  0
   -9.9668    6.9883   -3.7795 C   0  0  0  0  0  0  0  0  0  0  0  0
   -9.1049    8.0066   -2.6455 S   0  0  0  0  0  0  0  0  0  0  0  0
  -10.1738    9.4042   -2.9964 C   0  0  0  0  0  0  0  0  0  0  0  0
  -10.0630   10.4747   -2.4757 O   0  0  0  0  0  0  0  0  0  0  0  0
  -11.1047    9.0295   -3.9185 N   0  0  0  0  0  0  0  0  0  0  0  0
  -12.0876    9.9846   -4.4046 C   0  0  0  0  0  0  0  0  0  0  0  0
  -11.5084   10.8566   -5.5105 C   0  0  0  0  0  0  0  0  0  0  0  0
  -11.0605    7.7343   -4.4085 C   0  0  0  0  0  0  0  0  0  0  0  0
  -11.8327    7.3053   -5.2332 O   0  0  0  0  0  0  0  0  0  0  0  0
    8.5493   -3.6888    3.6339 H   0  0  0  0  0  0  0  0  0  0  0  0
    9.0211   -7.5501   -0.7982 H   0  0  0  0  0  0  0  0  0  0  0  0
   10.7702   -7.8026   -0.5321 H   0  0  0  0  0  0  0  0  0  0  0  0
   10.3081   -9.7707    0.8823 H   0  0  0  0  0  0  0  0  0  0  0  0
    9.5263   -9.9779   -0.6896 H   0  0  0  0  0  0  0  0  0  0  0  0
    8.5638   -9.5165    0.7159 H   0  0  0  0  0  0  0  0  0  0  0  0
    5.8711   -8.1999    3.0334 H   0  0  0  0  0  0  0  0  0  0  0  0
    6.2030  -10.0797    1.4608 H   0  0  0  0  0  0  0  0  0  0  0  0
    6.0849  -10.5161   -3.6431 H   0  0  0  0  0  0  0  0  0  0  0  0
    6.7580   -8.9200   -3.2449 H   0  0  0  0  0  0  0  0  0  0  0  0
    4.9970   -9.2293   -3.0702 H   0  0  0  0  0  0  0  0  0  0  0  0
    5.7522   -7.3833   -1.8305 H   0  0  0  0  0  0  0  0  0  0  0  0
    5.3818   -5.5444   -0.2750 H   0  0  0  0  0  0  0  0  0  0  0  0
    3.2662   -7.3742    2.1077 H   0  0  0  0  0  0  0  0  0  0  0  0
    1.2489   -7.3899    3.4595 H   0  0  0  0  0  0  0  0  0  0  0  0
   -0.8936   -6.8119    4.1140 H   0  0  0  0  0  0  0  0  0  0  0  0
   -0.1520   -7.9399    5.2999 H   0  0  0  0  0  0  0  0  0  0  0  0
   -1.5320   -6.9183    5.7692 H   0  0  0  0  0  0  0  0  0  0  0  0
    2.8219   -4.2239    5.8629 H   0  0  0  0  0  0  0  0  0  0  0  0
    4.8826   -4.2347    4.5172 H   0  0  0  0  0  0  0  0  0  0  0  0
    5.0918   -0.8167   -1.1938 H   0  0  0  0  0  0  0  0  0  0  0  0
    7.1070   -0.1841   -2.4648 H   0  0  0  0  0  0  0  0  0  0  0  0
   10.9019    3.1790   -1.7086 H   0  0  0  0  0  0  0  0  0  0  0  0
    9.4006    3.8098   -0.9971 H   0  0  0  0  0  0  0  0  0  0  0  0
   10.3428    2.5399   -0.1475 H   0  0  0  0  0  0  0  0  0  0  0  0
    8.1157    2.6476    0.5781 H   0  0  0  0  0  0  0  0  0  0  0  0
    6.1475    1.9978    1.8443 H   0  0  0  0  0  0  0  0  0  0  0  0
    3.9606    2.7599    0.8527 H   0  0  0  0  0  0  0  0  0  0  0  0
    2.8677    4.2339    2.4784 H   0  0  0  0  0  0  0  0  0  0  0  0
    1.4170    3.6954    7.2713 H   0  0  0  0  0  0  0  0  0  0  0  0
    2.6601    2.5758    6.6642 H   0  0  0  0  0  0  0  0  0  0  0  0
    0.9258    2.1300    6.5912 H   0  0  0  0  0  0  0  0  0  0  0  0
    1.9787    0.8529    4.9441 H   0  0  0  0  0  0  0  0  0  0  0  0
    3.1720   -0.5896    3.3991 H   0  0  0  0  0  0  0  0  0  0  0  0
    1.0865   -2.9471   -1.8579 H   0  0  0  0  0  0  0  0  0  0  0  0
    2.1759   -4.4743   -3.3984 H   0  0  0  0  0  0  0  0  0  0  0  0
    2.7949   -5.9764   -5.0554 H   0  0  0  0  0  0  0  0  0  0  0  0
    4.2233   -5.5460   -4.0602 H   0  0  0  0  0  0  0  0  0  0  0  0
    4.2173   -7.0375   -5.0305 H   0  0  0  0  0  0  0  0  0  0  0  0
    1.9623   -7.5902   -0.4771 H   0  0  0  0  0  0  0  0  0  0  0  0
    0.8724   -6.0356    1.0906 H   0  0  0  0  0  0  0  0  0  0  0  0
    0.0785   -2.3994    3.0209 H   0  0  0  0  0  0  0  0  0  0  0  0
   -1.5964   -3.0094    4.7261 H   0  0  0  0  0  0  0  0  0  0  0  0
   -5.5213   -6.2991    4.8545 H   0  0  0  0  0  0  0  0  0  0  0  0
   -5.2187   -5.7057    3.2069 H   0  0  0  0  0  0  0  0  0  0  0  0
   -4.2312   -7.0412    3.8855 H   0  0  0  0  0  0  0  0  0  0  0  0
   -3.1494   -6.0108    2.1035 H   0  0  0  0  0  0  0  0  0  0  0  0
   -1.5075   -5.3941    0.4177 H   0  0  0  0  0  0  0  0  0  0  0  0
   -1.2499    2.5509    1.4699 H   0  0  0  0  0  0  0  0  0  0  0  0
   -0.1685    4.3740    2.7026 H   0  0  0  0  0  0  0  0  0  0  0  0
    0.5371    6.1784    3.8990 H   0  0  0  0  0  0  0  0  0  0  0  0
    0.7625    7.8981    3.5065 H   0  0  0  0  0  0  0  0  0  0  0  0
   -0.5556    6.9933    2.7249 H   0  0  0  0  0  0  0  0  0  0  0  0
    1.7188    5.6969   -0.8967 H   0  0  0  0  0  0  0  0  0  0  0  0
    0.6239    3.8587   -2.1385 H   0  0  0  0  0  0  0  0  0  0  0  0
   -1.7473    0.7236   -3.3231 H   0  0  0  0  0  0  0  0  0  0  0  0
   -3.2527    1.4420   -5.1303 H   0  0  0  0  0  0  0  0  0  0  0  0
   -4.3982    6.1413   -5.3400 H   0  0  0  0  0  0  0  0  0  0  0  0
   -5.9756    5.7001   -6.0313 H   0  0  0  0  0  0  0  0  0  0  0  0
   -5.7049    5.5088   -4.2853 H   0  0  0  0  0  0  0  0  0  0  0  0
   -3.6064    5.2879   -3.2926 H   0  0  0  0  0  0  0  0  0  0  0  0
   -2.1516    4.5694   -1.4957 H   0  0  0  0  0  0  0  0  0  0  0  0
   -4.5824   -0.3761   -2.5680 H   0  0  0  0  0  0  0  0  0  0  0  0
   -6.9317    1.7284   -5.9357 H   0  0  0  0  0  0  0  0  0  0  0  0
   -7.5538   -0.4089   -7.1997 H   0  0  0  0  0  0  0  0  0  0  0  0
   -7.5423   -3.8595   -3.7690 H   0  0  0  0  0  0  0  0  0  0  0  0
   -8.2675   -5.0749   -4.8489 H   0  0  0  0  0  0  0  0  0  0  0  0
   -9.9883   -4.1632   -3.2674 H   0  0  0  0  0  0  0  0  0  0  0  0
  -10.3794   -3.7403   -4.9407 H   0  0  0  0  0  0  0  0  0  0  0  0
   -9.6711   -2.5307   -3.8642 H   0  0  0  0  0  0  0  0  0  0  0  0
   -5.8680    6.6877   -1.9198 H   0  0  0  0  0  0  0  0  0  0  0  0
   -4.8747    8.3261   -0.2598 H   0  0  0  0  0  0  0  0  0  0  0  0
   -2.7874    5.5162    3.1896 H   0  0  0  0  0  0  0  0  0  0  0  0
   -4.4579    5.8269    3.7343 H   0  0  0  0  0  0  0  0  0  0  0  0
   -3.6344    7.5642    5.3142 H   0  0  0  0  0  0  0  0  0  0  0  0
   -1.9745    7.2966    4.7770 H   0  0  0  0  0  0  0  0  0  0  0  0
   -2.8384    6.0192    5.6398 H   0  0  0  0  0  0  0  0  0  0  0  0
   -7.8605    5.9433   -1.9505 H   0  0  0  0  0  0  0  0  0  0  0  0
  -10.3736    5.2790   -4.8621 H   0  0  0  0  0  0  0  0  0  0  0  0
  -12.9297    9.3974   -4.7780 H   0  0  0  0  0  0  0  0  0  0  0  0
  -12.4026   10.5992   -3.5582 H   0  0  0  0  0  0  0  0  0  0  0  0
  -12.2666   11.5504   -5.8617 H   0  0  0  0  0  0  0  0  0  0  0  0
  -10.6604   11.4255   -5.1361 H   0  0  0  0  0  0  0  0  0  0  0  0
  -11.1841   10.2402   -6.3460 H   0  0  0  0  0  0  0  0  0  0  0  0
  1  2  2  0  0  0  0
  2  3  1  0  0  0  0
  3  4  1  0  0  0  0
  4  5  2  0  0  0  0
  4  6  1  0  0  0  0
  6  7  1  0  0  0  0
  7  8  1  0  0  0  0
  6  9  1  0  0  0  0
  9 10  2  0  0  0  0
  1 11  1  0  0  0  0
 11 12  2  0  0  0  0
 12 13  1  0  0  0  0
 13 14  1  0  0  0  0
 14 15  2  0  0  0  0
 15 16  1  0  0  0  0
 16 17  2  0  0  0  0
 17 18  1  0  0  0  0
 18 19  1  0  0  0  0
 17 20  1  0  0  0  0
 20 21  2  0  0  0  0
 13 22  1  0  0  0  0
 22 23  2  0  0  0  0
 23 24  1  0  0  0  0
 24 25  2  0  0  0  0
 25 26  1  0  0  0  0
 26 27  1  0  0  0  0
 25 28  1  0  0  0  0
 28 29  2  0  0  0  0
 12 30  1  0  0  0  0
 30 31  1  0  0  0  0
 31 32  1  0  0  0  0
 32 33  2  0  0  0  0
 33 34  1  0  0  0  0
 34 35  1  0  0  0  0
 35 36  2  0  0  0  0
 36 37  1  0  0  0  0
 37 38  2  0  0  0  0
 38 39  1  0  0  0  0
 39 40  1  0  0  0  0
 38 41  1  0  0  0  0
 41 42  2  0  0  0  0
 34 43  1  0  0  0  0
 43 44  2  0  0  0  0
 44 45  1  0  0  0  0
 45 46  2  0  0  0  0
 46 47  1  0  0  0  0
 47 48  1  0  0  0  0
 46 49  1  0  0  0  0
 49 50  2  0  0  0  0
 33 51  1  0  0  0  0
 51 52  1  0  0  0  0
 32 53  1  0  0  0  0
 53 54  2  0  0  0  0
 54 55  1  0  0  0  0
 55 56  1  0  0  0  0
 56 57  2  0  0  0  0
 57 58  1  0  0  0  0
 58 59  2  0  0  0  0
 59 60  1  0  0  0  0
 60 61  1  0  0  0  0
 59 62  1  0  0  0  0
 62 63  2  0  0  0  0
 55 64  1  0  0  0  0
 64 65  2  0  0  0  0
 65 66  1  0  0  0  0
 66 67  2  0  0  0  0
 67 68  1  0  0  0  0
 68 69  1  0  0  0  0
 67 70  1  0  0  0  0
 70 71  2  0  0  0  0
 54 72  1  0  0  0  0
 72 73  1  0  0  0  0
 73 74  1  0  0  0  0
 74 75  2  0  0  0  0
 75 76  1  0  0  0  0
 76 77  1  0  0  0  0
 77 78  2  0  0  0  0
 78 79  1  0  0  0  0
 79 80  2  0  0  0  0
 80 81  1  0  0  0  0
 81 82  1  0  0  0  0
 80 83  1  0  0  0  0
 83 84  2  0  0  0  0
 76 85  1  0  0  0  0
 85 86  2  0  0  0  0
 86 87  1  0  0  0  0
 87 88  2  0  0  0  0
 88 89  1  0  0  0  0
 89 90  1  0  0  0  0
 88 91  1  0  0  0  0
 91 92  2  0  0  0  0
 75 93  1  0  0  0  0
 93 94  1  0  0  0  0
 74 95  1  0  0  0  0
 95 96  2  0  0  0  0
 96 97  1  0  0  0  0
 97 98  2  0  0  0  0
 98 99  1  0  0  0  0
 99100  2  0  0  0  0
100101  1  0  0  0  0
101102  2  0  0  0  0
102103  1  0  0  0  0
103104  1  0  0  0  0
104105  1  0  0  0  0
102106  1  0  0  0  0
 98107  1  0  0  0  0
107108  2  0  0  0  0
108109  1  0  0  0  0
109110  1  0  0  0  0
110111  2  0  0  0  0
111112  1  0  0  0  0
112113  2  0  0  0  0
113114  1  0  0  0  0
114115  1  0  0  0  0
115116  1  0  0  0  0
113117  1  0  0  0  0
109118  2  0  0  0  0
118119  1  0  0  0  0
108120  1  0  0  0  0
120121  2  0  0  0  0
121122  1  0  0  0  0
121123  1  0  0  0  0
123124  2  0  0  0  0
124125  1  0  0  0  0
125126  1  0  0  0  0
126127  2  0  0  0  0
126128  1  0  0  0  0
128129  1  0  0  0  0
129130  1  0  0  0  0
128131  1  0  0  0  0
131132  2  0  0  0  0
  9  2  1  0  0  0  0
 52 11  1  0  0  0  0
 94 53  1  0  0  0  0
119 95  1  0  0  0  0
131124  1  0  0  0  0
 21 14  1  0  0  0  0
 29 22  1  0  0  0  0
 51 30  2  0  0  0  0
 63 56  1  0  0  0  0
 71 64  1  0  0  0  0
 93 72  2  0  0  0  0
118 97  1  0  0  0  0
 42 35  1  0  0  0  0
 50 43  1  0  0  0  0
 84 77  1  0  0  0  0
 92 85  1  0  0  0  0
106 99  1  0  0  0  0
122107  1  0  0  0  0
117110  1  0  0  0  0
  1133  1  0  0  0  0
  7134  1  0  0  0  0
  7135  1  0  0  0  0
  8136  1  0  0  0  0
  8137  1  0  0  0  0
  8138  1  0  0  0  0
 15139  1  0  0  0  0
 16140  1  0  0  0  0
 19141  1  0  0  0  0
 19142  1  0  0  0  0
 19143  1  0  0  0  0
 20144  1  0  0  0  0
 21145  1  0  0  0  0
 23146  1  0  0  0  0
 24147  1  0  0  0  0
 27148  1  0  0  0  0
 27149  1  0  0  0  0
 27150  1  0  0  0  0
 28151  1  0  0  0  0
 29152  1  0  0  0  0
 36153  1  0  0  0  0
 37154  1  0  0  0  0
 40155  1  0  0  0  0
 40156  1  0  0  0  0
 40157  1  0  0  0  0
 41158  1  0  0  0  0
 42159  1  0  0  0  0
 44160  1  0  0  0  0
 45161  1  0  0  0  0
 48162  1  0  0  0  0
 48163  1  0  0  0  0
 48164  1  0  0  0  0
 49165  1  0  0  0  0
 50166  1  0  0  0  0
 57167  1  0  0  0  0
 58168  1  0  0  0  0
 61169  1  0  0  0  0
 61170  1  0  0  0  0
 61171  1  0  0  0  0
 62172  1  0  0  0  0
 63173  1  0  0  0  0
 65174  1  0  0  0  0
 66175  1  0  0  0  0
 69176  1  0  0  0  0
 69177  1  0  0  0  0
 69178  1  0  0  0  0
 70179  1  0  0  0  0
 71180  1  0  0  0  0
 78181  1  0  0  0  0
 79182  1  0  0  0  0
 82183  1  0  0  0  0
 82184  1  0  0  0  0
 82185  1  0  0  0  0
 83186  1  0  0  0  0
 84187  1  0  0  0  0
 86188  1  0  0  0  0
 87189  1  0  0  0  0
 90190  1  0  0  0  0
 90191  1  0  0  0  0
 90192  1  0  0  0  0
 91193  1  0  0  0  0
 92194  1  0  0  0  0
 96195  1  0  0  0  0
100196  1  0  0  0  0
101197  1  0  0  0  0
104198  1  0  0  0  0
104199  1  0  0  0  0
105200  1  0  0  0  0
105201  1  0  0  0  0
105202  1  0  0  0  0
111203  1  0  0  0  0
112204  1  0  0  0  0
115205  1  0  0  0  0
115206  1  0  0  0  0
116207  1  0  0  0  0
116208  1  0  0  0  0
116209  1  0  0  0  0
120210  1  0  0  0  0
123211  1  0  0  0  0
129212  1  0  0  0  0
129213  1  0  0  0  0
130214  1  0  0  0  0
130215  1  0  0  0  0
130216  1  0  0  0  0
M  END
