
  xtb     02052212093D
 energy: -302.287421354651 gnorm: 0.000601333923 xtb: 6.4.1 (unknown)
179193  0     0  0            999 V2000
    3.6469   -3.9348    4.8929 C   0  0  0  0  0  0  0  0  0  0  0  0
    4.9312   -4.3615    4.7542 C   0  0  0  0  0  0  0  0  0  0  0  0
    5.9051   -4.3737    3.2987 S   0  0  0  0  0  0  0  0  0  0  0  0
    7.3457   -4.9404    4.2084 C   0  0  0  0  0  0  0  0  0  0  0  0
    8.4216   -5.1158    3.7130 O   0  0  0  0  0  0  0  0  0  0  0  0
    7.0007   -5.1316    5.5115 N   0  0  0  0  0  0  0  0  0  0  0  0
    7.9869   -5.5837    6.4786 C   0  0  0  0  0  0  0  0  0  0  0  0
    8.8694   -4.4345    6.9476 C   0  0  0  0  0  0  0  0  0  0  0  0
    5.7004   -4.8313    5.8966 C   0  0  0  0  0  0  0  0  0  0  0  0
    5.2939   -4.9625    7.0310 O   0  0  0  0  0  0  0  0  0  0  0  0
    2.7983   -3.4322    3.8952 C   0  0  0  0  0  0  0  0  0  0  0  0
    1.5670   -2.7780    4.0803 C   0  0  0  0  0  0  0  0  0  0  0  0
    0.8870   -2.7491    5.2760 N   0  0  0  0  0  0  0  0  0  0  0  0
    0.1888   -1.6145    5.7048 C   0  0  0  0  0  0  0  0  0  0  0  0
    0.6852   -0.3314    5.4771 C   0  0  0  0  0  0  0  0  0  0  0  0
    0.0552    0.7616    6.0308 C   0  0  0  0  0  0  0  0  0  0  0  0
   -1.0889    0.5970    6.8081 C   0  0  0  0  0  0  0  0  0  0  0  0
   -1.7893    2.0427    7.5465 S   0  0  0  0  0  0  0  0  0  0  0  0
   -2.9415    1.3907    8.7860 C   0  0  0  0  0  0  0  0  0  0  0  0
   -1.6260   -0.6713    6.9780 C   0  0  0  0  0  0  0  0  0  0  0  0
   -0.9894   -1.7661    6.4323 C   0  0  0  0  0  0  0  0  0  0  0  0
    0.8852   -3.8949    6.0960 C   0  0  0  0  0  0  0  0  0  0  0  0
    0.7435   -5.1600    5.5342 C   0  0  0  0  0  0  0  0  0  0  0  0
    0.7586   -6.2892    6.3288 C   0  0  0  0  0  0  0  0  0  0  0  0
    0.9099   -6.1702    7.7042 C   0  0  0  0  0  0  0  0  0  0  0  0
    0.9317   -7.5360    8.8174 S   0  0  0  0  0  0  0  0  0  0  0  0
    1.0855   -8.9800    7.7274 C   0  0  0  0  0  0  0  0  0  0  0  0
    1.0362   -4.9028    8.2715 C   0  0  0  0  0  0  0  0  0  0  0  0
    1.0266   -3.7777    7.4791 C   0  0  0  0  0  0  0  0  0  0  0  0
    1.1045   -2.2235    2.8678 C   0  0  0  0  0  0  0  0  0  0  0  0
   -0.2661   -1.2722    2.3865 S   0  0  0  0  0  0  0  0  0  0  0  0
    0.2196   -1.3783    0.6921 C   0  0  0  0  0  0  0  0  0  0  0  0
    1.3545   -2.1660    0.5241 C   0  0  0  0  0  0  0  0  0  0  0  0
    1.8860   -2.6028   -0.6874 N   0  0  0  0  0  0  0  0  0  0  0  0
    3.2869   -2.7733   -0.6954 C   0  0  0  0  0  0  0  0  0  0  0  0
    4.0935   -1.7311   -0.2454 C   0  0  0  0  0  0  0  0  0  0  0  0
    5.4602   -1.8945   -0.1350 C   0  0  0  0  0  0  0  0  0  0  0  0
    6.0441   -3.1068   -0.4781 C   0  0  0  0  0  0  0  0  0  0  0  0
    7.7741   -3.4226   -0.3352 S   0  0  0  0  0  0  0  0  0  0  0  0
    8.2540   -2.3508    1.0499 C   0  0  0  0  0  0  0  0  0  0  0  0
    5.2455   -4.1373   -0.9661 C   0  0  0  0  0  0  0  0  0  0  0  0
    3.8821   -3.9783   -1.0671 C   0  0  0  0  0  0  0  0  0  0  0  0
    1.0915   -3.3529   -1.5647 C   0  0  0  0  0  0  0  0  0  0  0  0
    1.5293   -3.5796   -2.8696 C   0  0  0  0  0  0  0  0  0  0  0  0
    0.8023   -4.3721   -3.7324 C   0  0  0  0  0  0  0  0  0  0  0  0
   -0.4039   -4.9241   -3.3209 C   0  0  0  0  0  0  0  0  0  0  0  0
   -1.4167   -5.9319   -4.3639 S   0  0  0  0  0  0  0  0  0  0  0  0
   -0.2133   -6.6727   -5.5054 C   0  0  0  0  0  0  0  0  0  0  0  0
   -0.8719   -4.6629   -2.0382 C   0  0  0  0  0  0  0  0  0  0  0  0
   -0.1284   -3.9000   -1.1649 C   0  0  0  0  0  0  0  0  0  0  0  0
    1.8811   -2.5697    1.7694 C   0  0  0  0  0  0  0  0  0  0  0  0
    3.2715   -3.4921    2.2026 S   0  0  0  0  0  0  0  0  0  0  0  0
   -0.5410   -0.7080   -0.2984 C   0  0  0  0  0  0  0  0  0  0  0  0
   -1.6937    0.0373   -0.0921 C   0  0  0  0  0  0  0  0  0  0  0  0
   -2.2629    0.3350    1.1549 N   0  0  0  0  0  0  0  0  0  0  0  0
   -1.6646    1.3340    1.9324 C   0  0  0  0  0  0  0  0  0  0  0  0
   -0.5990    2.0886    1.4391 C   0  0  0  0  0  0  0  0  0  0  0  0
   -0.0129    3.0652    2.2137 C   0  0  0  0  0  0  0  0  0  0  0  0
   -0.4921    3.3334    3.4906 C   0  0  0  0  0  0  0  0  0  0  0  0
    0.3203    4.6080    4.4086 S   0  0  0  0  0  0  0  0  0  0  0  0
   -0.9475    5.1314    5.5990 C   0  0  0  0  0  0  0  0  0  0  0  0
   -1.5426    2.5783    3.9941 C   0  0  0  0  0  0  0  0  0  0  0  0
   -2.1045    1.5743    3.2329 C   0  0  0  0  0  0  0  0  0  0  0  0
   -3.6395    0.0535    1.2357 C   0  0  0  0  0  0  0  0  0  0  0  0
   -4.5858    1.0004    1.6258 C   0  0  0  0  0  0  0  0  0  0  0  0
   -5.9219    0.6701    1.6559 C   0  0  0  0  0  0  0  0  0  0  0  0
   -6.3494   -0.6037    1.2853 C   0  0  0  0  0  0  0  0  0  0  0  0
   -8.0873   -0.9030    1.3723 S   0  0  0  0  0  0  0  0  0  0  0  0
   -8.2771   -2.5845    0.7147 C   0  0  0  0  0  0  0  0  0  0  0  0
   -5.4134   -1.5431    0.8762 C   0  0  0  0  0  0  0  0  0  0  0  0
   -4.0725   -1.2128    0.8529 C   0  0  0  0  0  0  0  0  0  0  0  0
   -2.2092    0.5448   -1.3001 C   0  0  0  0  0  0  0  0  0  0  0  0
   -3.5652    1.5503   -1.6678 S   0  0  0  0  0  0  0  0  0  0  0  0
   -3.0788    1.5872   -3.3504 C   0  0  0  0  0  0  0  0  0  0  0  0
   -1.8849    0.9167   -3.5884 C   0  0  0  0  0  0  0  0  0  0  0  0
   -1.1783    1.0097   -4.7783 N   0  0  0  0  0  0  0  0  0  0  0  0
   -1.1792    2.2354   -5.4673 C   0  0  0  0  0  0  0  0  0  0  0  0
   -1.0778    3.4349   -4.7611 C   0  0  0  0  0  0  0  0  0  0  0  0
   -1.2288    4.6413   -5.4073 C   0  0  0  0  0  0  0  0  0  0  0  0
   -1.4739    4.6801   -6.7774 C   0  0  0  0  0  0  0  0  0  0  0  0
   -1.7862    6.2643   -7.4962 S   0  0  0  0  0  0  0  0  0  0  0  0
   -2.6775    5.8515   -9.0242 C   0  0  0  0  0  0  0  0  0  0  0  0
   -1.4766    3.4951   -7.5012 C   0  0  0  0  0  0  0  0  0  0  0  0
   -1.3393    2.2846   -6.8499 C   0  0  0  0  0  0  0  0  0  0  0  0
   -0.5705   -0.1163   -5.3387 C   0  0  0  0  0  0  0  0  0  0  0  0
    0.6041    0.0216   -6.0741 C   0  0  0  0  0  0  0  0  0  0  0  0
    1.1811   -1.0691   -6.6913 C   0  0  0  0  0  0  0  0  0  0  0  0
    0.5845   -2.3178   -6.5901 C   0  0  0  0  0  0  0  0  0  0  0  0
    1.2271   -3.7672   -7.3762 S   0  0  0  0  0  0  0  0  0  0  0  0
    2.5030   -3.1384   -8.4993 C   0  0  0  0  0  0  0  0  0  0  0  0
   -0.5750   -2.4672   -5.8335 C   0  0  0  0  0  0  0  0  0  0  0  0
   -1.1418   -1.3813   -5.2044 C   0  0  0  0  0  0  0  0  0  0  0  0
   -1.4249    0.2770   -2.4129 C   0  0  0  0  0  0  0  0  0  0  0  0
   -0.0523   -0.6926   -1.9917 S   0  0  0  0  0  0  0  0  0  0  0  0
   -3.8201    2.3072   -4.3386 C   0  0  0  0  0  0  0  0  0  0  0  0
   -4.0984    1.8708   -5.6138 C   0  0  0  0  0  0  0  0  0  0  0  0
   -4.6525    2.8710   -6.4131 C   0  0  0  0  0  0  0  0  0  0  0  0
   -5.0411    2.6275   -8.0631 Cl  0  0  0  0  0  0  0  0  0  0  0  0
   -4.7819    4.1002   -5.7821 C   0  0  0  0  0  0  0  0  0  0  0  0
   -4.2869    3.9668   -4.1193 S   0  0  0  0  0  0  0  0  0  0  0  0
   -5.0864    5.3225   -6.4176 C   0  0  0  0  0  0  0  0  0  0  0  0
   -4.8473    6.5713   -5.9529 C   0  0  0  0  0  0  0  0  0  0  0  0
   -4.2281    7.0181   -4.3842 S   0  0  0  0  0  0  0  0  0  0  0  0
   -4.0885    8.7401   -4.8788 C   0  0  0  0  0  0  0  0  0  0  0  0
   -3.6819    9.6083   -4.1650 O   0  0  0  0  0  0  0  0  0  0  0  0
   -4.5313    8.8743   -6.1622 N   0  0  0  0  0  0  0  0  0  0  0  0
   -4.4450   10.1566   -6.8417 C   0  0  0  0  0  0  0  0  0  0  0  0
   -3.0403   10.3893   -7.3825 C   0  0  0  0  0  0  0  0  0  0  0  0
   -4.9693    7.7432   -6.8236 C   0  0  0  0  0  0  0  0  0  0  0  0
   -5.3650    7.7430   -7.9672 O   0  0  0  0  0  0  0  0  0  0  0  0
    3.2742   -3.9564    5.9098 H   0  0  0  0  0  0  0  0  0  0  0  0
    8.5923   -6.3591    6.0033 H   0  0  0  0  0  0  0  0  0  0  0  0
    7.4243   -6.0043    7.3154 H   0  0  0  0  0  0  0  0  0  0  0  0
    8.2630   -3.6566    7.4061 H   0  0  0  0  0  0  0  0  0  0  0  0
    9.5840   -4.7986    7.6800 H   0  0  0  0  0  0  0  0  0  0  0  0
    9.4144   -4.0128    6.1062 H   0  0  0  0  0  0  0  0  0  0  0  0
    1.5882   -0.1985    4.9008 H   0  0  0  0  0  0  0  0  0  0  0  0
    0.4661    1.7487    5.8895 H   0  0  0  0  0  0  0  0  0  0  0  0
   -3.2543    2.2485    9.3735 H   0  0  0  0  0  0  0  0  0  0  0  0
   -2.4282    0.6737    9.4196 H   0  0  0  0  0  0  0  0  0  0  0  0
   -3.8051    0.9449    8.3008 H   0  0  0  0  0  0  0  0  0  0  0  0
   -2.5347   -0.8234    7.5378 H   0  0  0  0  0  0  0  0  0  0  0  0
   -1.4002   -2.7531    6.5830 H   0  0  0  0  0  0  0  0  0  0  0  0
    0.6230   -5.2593    4.4655 H   0  0  0  0  0  0  0  0  0  0  0  0
    0.6421   -7.2540    5.8624 H   0  0  0  0  0  0  0  0  0  0  0  0
    1.9446   -8.8540    7.0754 H   0  0  0  0  0  0  0  0  0  0  0  0
    1.2421   -9.8283    8.3864 H   0  0  0  0  0  0  0  0  0  0  0  0
    0.1719   -9.1229    7.1575 H   0  0  0  0  0  0  0  0  0  0  0  0
    1.1571   -4.8165    9.3399 H   0  0  0  0  0  0  0  0  0  0  0  0
    1.1430   -2.8002    7.9223 H   0  0  0  0  0  0  0  0  0  0  0  0
    3.6377   -0.7920    0.0337 H   0  0  0  0  0  0  0  0  0  0  0  0
    6.0626   -1.0740    0.2211 H   0  0  0  0  0  0  0  0  0  0  0  0
    9.1795   -2.7634    1.4387 H   0  0  0  0  0  0  0  0  0  0  0  0
    8.4140   -1.3318    0.7086 H   0  0  0  0  0  0  0  0  0  0  0  0
    7.4815   -2.3972    1.8106 H   0  0  0  0  0  0  0  0  0  0  0  0
    5.7062   -5.0753   -1.2338 H   0  0  0  0  0  0  0  0  0  0  0  0
    3.2685   -4.8011   -1.4012 H   0  0  0  0  0  0  0  0  0  0  0  0
    2.4545   -3.1358   -3.2037 H   0  0  0  0  0  0  0  0  0  0  0  0
    1.1799   -4.5506   -4.7257 H   0  0  0  0  0  0  0  0  0  0  0  0
    0.6331   -7.0448   -4.9368 H   0  0  0  0  0  0  0  0  0  0  0  0
    0.1033   -5.9494   -6.2509 H   0  0  0  0  0  0  0  0  0  0  0  0
   -0.7314   -7.4960   -5.9872 H   0  0  0  0  0  0  0  0  0  0  0  0
   -1.8141   -5.0858   -1.7245 H   0  0  0  0  0  0  0  0  0  0  0  0
   -0.4887   -3.7453   -0.1591 H   0  0  0  0  0  0  0  0  0  0  0  0
   -0.2318    1.9207    0.4381 H   0  0  0  0  0  0  0  0  0  0  0  0
    0.8113    3.6443    1.8263 H   0  0  0  0  0  0  0  0  0  0  0  0
   -1.0493    4.3989    6.3942 H   0  0  0  0  0  0  0  0  0  0  0  0
   -1.8880    5.2772    5.0772 H   0  0  0  0  0  0  0  0  0  0  0  0
   -0.5970    6.0739    6.0076 H   0  0  0  0  0  0  0  0  0  0  0  0
   -1.9234    2.7593    4.9854 H   0  0  0  0  0  0  0  0  0  0  0  0
   -2.8938    0.9686    3.6511 H   0  0  0  0  0  0  0  0  0  0  0  0
   -4.2732    2.0001    1.8849 H   0  0  0  0  0  0  0  0  0  0  0  0
   -6.6565    1.4027    1.9532 H   0  0  0  0  0  0  0  0  0  0  0  0
   -7.8924   -2.6307   -0.2998 H   0  0  0  0  0  0  0  0  0  0  0  0
   -9.3452   -2.7779    0.7133 H   0  0  0  0  0  0  0  0  0  0  0  0
   -7.7753   -3.2980    1.3619 H   0  0  0  0  0  0  0  0  0  0  0  0
   -5.7104   -2.5347    0.5752 H   0  0  0  0  0  0  0  0  0  0  0  0
   -3.3458   -1.9454    0.5326 H   0  0  0  0  0  0  0  0  0  0  0  0
   -0.9134    3.4148   -3.6943 H   0  0  0  0  0  0  0  0  0  0  0  0
   -1.1837    5.5652   -4.8521 H   0  0  0  0  0  0  0  0  0  0  0  0
   -3.3526    5.0244   -8.8307 H   0  0  0  0  0  0  0  0  0  0  0  0
   -1.9748    5.6098   -9.8167 H   0  0  0  0  0  0  0  0  0  0  0  0
   -3.2511    6.7344   -9.2901 H   0  0  0  0  0  0  0  0  0  0  0  0
   -1.6103    3.5001   -8.5711 H   0  0  0  0  0  0  0  0  0  0  0  0
   -1.3828    1.3666   -7.4170 H   0  0  0  0  0  0  0  0  0  0  0  0
    1.0637    0.9944   -6.1643 H   0  0  0  0  0  0  0  0  0  0  0  0
    2.0935   -0.9285   -7.2481 H   0  0  0  0  0  0  0  0  0  0  0  0
    3.3430   -2.7476   -7.9322 H   0  0  0  0  0  0  0  0  0  0  0  0
    2.8230   -3.9941   -9.0860 H   0  0  0  0  0  0  0  0  0  0  0  0
    2.0762   -2.3810   -9.1502 H   0  0  0  0  0  0  0  0  0  0  0  0
   -1.0461   -3.4344   -5.7626 H   0  0  0  0  0  0  0  0  0  0  0  0
   -2.0475   -1.5045   -4.6294 H   0  0  0  0  0  0  0  0  0  0  0  0
   -3.9045    0.8703   -5.9547 H   0  0  0  0  0  0  0  0  0  0  0  0
   -5.4549    5.2603   -7.4353 H   0  0  0  0  0  0  0  0  0  0  0  0
   -5.1735   10.1255   -7.6551 H   0  0  0  0  0  0  0  0  0  0  0  0
   -4.7144   10.9355   -6.1250 H   0  0  0  0  0  0  0  0  0  0  0  0
   -3.0043   11.3356   -7.9143 H   0  0  0  0  0  0  0  0  0  0  0  0
   -2.7615    9.5899   -8.0653 H   0  0  0  0  0  0  0  0  0  0  0  0
   -2.3236   10.4176   -6.5654 H   0  0  0  0  0  0  0  0  0  0  0  0
  1  2  2  0  0  0  0
  2  3  1  0  0  0  0
  3  4  1  0  0  0  0
  4  5  2  0  0  0  0
  4  6  1  0  0  0  0
  6  7  1  0  0  0  0
  7  8  1  0  0  0  0
  6  9  1  0  0  0  0
  9 10  2  0  0  0  0
  1 11  1  0  0  0  0
 11 12  2  0  0  0  0
 12 13  1  0  0  0  0
 13 14  1  0  0  0  0
 14 15  2  0  0  0  0
 15 16  1  0  0  0  0
 16 17  2  0  0  0  0
 17 18  1  0  0  0  0
 18 19  1  0  0  0  0
 17 20  1  0  0  0  0
 20 21  2  0  0  0  0
 13 22  1  0  0  0  0
 22 23  2  0  0  0  0
 23 24  1  0  0  0  0
 24 25  2  0  0  0  0
 25 26  1  0  0  0  0
 26 27  1  0  0  0  0
 25 28  1  0  0  0  0
 28 29  2  0  0  0  0
 12 30  1  0  0  0  0
 30 31  1  0  0  0  0
 31 32  1  0  0  0  0
 32 33  2  0  0  0  0
 33 34  1  0  0  0  0
 34 35  1  0  0  0  0
 35 36  2  0  0  0  0
 36 37  1  0  0  0  0
 37 38  2  0  0  0  0
 38 39  1  0  0  0  0
 39 40  1  0  0  0  0
 38 41  1  0  0  0  0
 41 42  2  0  0  0  0
 34 43  1  0  0  0  0
 43 44  2  0  0  0  0
 44 45  1  0  0  0  0
 45 46  2  0  0  0  0
 46 47  1  0  0  0  0
 47 48  1  0  0  0  0
 46 49  1  0  0  0  0
 49 50  2  0  0  0  0
 33 51  1  0  0  0  0
 51 52  1  0  0  0  0
 32 53  1  0  0  0  0
 53 54  2  0  0  0  0
 54 55  1  0  0  0  0
 55 56  1  0  0  0  0
 56 57  2  0  0  0  0
 57 58  1  0  0  0  0
 58 59  2  0  0  0  0
 59 60  1  0  0  0  0
 60 61  1  0  0  0  0
 59 62  1  0  0  0  0
 62 63  2  0  0  0  0
 55 64  1  0  0  0  0
 64 65  2  0  0  0  0
 65 66  1  0  0  0  0
 66 67  2  0  0  0  0
 67 68  1  0  0  0  0
 68 69  1  0  0  0  0
 67 70  1  0  0  0  0
 70 71  2  0  0  0  0
 54 72  1  0  0  0  0
 72 73  1  0  0  0  0
 73 74  1  0  0  0  0
 74 75  2  0  0  0  0
 75 76  1  0  0  0  0
 76 77  1  0  0  0  0
 77 78  2  0  0  0  0
 78 79  1  0  0  0  0
 79 80  2  0  0  0  0
 80 81  1  0  0  0  0
 81 82  1  0  0  0  0
 80 83  1  0  0  0  0
 83 84  2  0  0  0  0
 76 85  1  0  0  0  0
 85 86  2  0  0  0  0
 86 87  1  0  0  0  0
 87 88  2  0  0  0  0
 88 89  1  0  0  0  0
 89 90  1  0  0  0  0
 88 91  1  0  0  0  0
 91 92  2  0  0  0  0
 75 93  1  0  0  0  0
 93 94  1  0  0  0  0
 74 95  1  0  0  0  0
 95 96  2  0  0  0  0
 96 97  1  0  0  0  0
 97 98  1  0  0  0  0
 97 99  2  0  0  0  0
 99100  1  0  0  0  0
 99101  1  0  0  0  0
101102  2  0  0  0  0
102103  1  0  0  0  0
103104  1  0  0  0  0
104105  2  0  0  0  0
104106  1  0  0  0  0
106107  1  0  0  0  0
107108  1  0  0  0  0
106109  1  0  0  0  0
109110  2  0  0  0  0
  9  2  1  0  0  0  0
 52 11  1  0  0  0  0
 94 53  1  0  0  0  0
100 95  1  0  0  0  0
109102  1  0  0  0  0
 21 14  1  0  0  0  0
 29 22  1  0  0  0  0
 51 30  2  0  0  0  0
 63 56  1  0  0  0  0
 71 64  1  0  0  0  0
 93 72  2  0  0  0  0
 42 35  1  0  0  0  0
 50 43  1  0  0  0  0
 84 77  1  0  0  0  0
 92 85  1  0  0  0  0
  1111  1  0  0  0  0
  7112  1  0  0  0  0
  7113  1  0  0  0  0
  8114  1  0  0  0  0
  8115  1  0  0  0  0
  8116  1  0  0  0  0
 15117  1  0  0  0  0
 16118  1  0  0  0  0
 19119  1  0  0  0  0
 19120  1  0  0  0  0
 19121  1  0  0  0  0
 20122  1  0  0  0  0
 21123  1  0  0  0  0
 23124  1  0  0  0  0
 24125  1  0  0  0  0
 27126  1  0  0  0  0
 27127  1  0  0  0  0
 27128  1  0  0  0  0
 28129  1  0  0  0  0
 29130  1  0  0  0  0
 36131  1  0  0  0  0
 37132  1  0  0  0  0
 40133  1  0  0  0  0
 40134  1  0  0  0  0
 40135  1  0  0  0  0
 41136  1  0  0  0  0
 42137  1  0  0  0  0
 44138  1  0  0  0  0
 45139  1  0  0  0  0
 48140  1  0  0  0  0
 48141  1  0  0  0  0
 48142  1  0  0  0  0
 49143  1  0  0  0  0
 50144  1  0  0  0  0
 57145  1  0  0  0  0
 58146  1  0  0  0  0
 61147  1  0  0  0  0
 61148  1  0  0  0  0
 61149  1  0  0  0  0
 62150  1  0  0  0  0
 63151  1  0  0  0  0
 65152  1  0  0  0  0
 66153  1  0  0  0  0
 69154  1  0  0  0  0
 69155  1  0  0  0  0
 69156  1  0  0  0  0
 70157  1  0  0  0  0
 71158  1  0  0  0  0
 78159  1  0  0  0  0
 79160  1  0  0  0  0
 82161  1  0  0  0  0
 82162  1  0  0  0  0
 82163  1  0  0  0  0
 83164  1  0  0  0  0
 84165  1  0  0  0  0
 86166  1  0  0  0  0
 87167  1  0  0  0  0
 90168  1  0  0  0  0
 90169  1  0  0  0  0
 90170  1  0  0  0  0
 91171  1  0  0  0  0
 92172  1  0  0  0  0
 96173  1  0  0  0  0
101174  1  0  0  0  0
107175  1  0  0  0  0
107176  1  0  0  0  0
108177  1  0  0  0  0
108178  1  0  0  0  0
108179  1  0  0  0  0
M  END
