179

C          3.64690       -3.93480        4.89290
C          4.93120       -4.36150        4.75420
S          5.90510       -4.37370        3.29870
C          7.34570       -4.94040        4.20840
O          8.42160       -5.11580        3.71300
N          7.00070       -5.13160        5.51150
C          7.98690       -5.58370        6.47860
C          8.86940       -4.43450        6.94760
C          5.70040       -4.83130        5.89660
O          5.29390       -4.96250        7.03100
C          2.79830       -3.43220        3.89520
C          1.56700       -2.77800        4.08030
N          0.88700       -2.74910        5.27600
C          0.18880       -1.61450        5.70480
C          0.68520       -0.33140        5.47710
C          0.05520        0.76160        6.03080
C         -1.08890        0.59700        6.80810
S         -1.78930        2.04270        7.54650
C         -2.94150        1.39070        8.78600
C         -1.62600       -0.67130        6.97800
C         -0.98940       -1.76610        6.43230
C          0.88520       -3.89490        6.09600
C          0.74350       -5.16000        5.53420
C          0.75860       -6.28920        6.32880
C          0.90990       -6.17020        7.70420
S          0.93170       -7.53600        8.81740
C          1.08550       -8.98000        7.72740
C          1.03620       -4.90280        8.27150
C          1.02660       -3.77770        7.47910
C          1.10450       -2.22350        2.86780
S         -0.26610       -1.27220        2.38650
C          0.21960       -1.37830        0.69210
C          1.35450       -2.16600        0.52410
N          1.88600       -2.60280       -0.68740
C          3.28690       -2.77330       -0.69540
C          4.09350       -1.73110       -0.24540
C          5.46020       -1.89450       -0.13500
C          6.04410       -3.10680       -0.47810
S          7.77410       -3.42260       -0.33520
C          8.25400       -2.35080        1.04990
C          5.24550       -4.13730       -0.96610
C          3.88210       -3.97830       -1.06710
C          1.09150       -3.35290       -1.56470
C          1.52930       -3.57960       -2.86960
C          0.80230       -4.37210       -3.73240
C         -0.40390       -4.92410       -3.32090
S         -1.41670       -5.93190       -4.36390
C         -0.21330       -6.67270       -5.50540
C         -0.87190       -4.66290       -2.03820
C         -0.12840       -3.90000       -1.16490
C          1.88110       -2.56970        1.76940
S          3.27150       -3.49210        2.20260
C         -0.54100       -0.70800       -0.29840
C         -1.69370        0.03730       -0.09210
N         -2.26290        0.33500        1.15490
C         -1.66460        1.33400        1.93240
C         -0.59900        2.08860        1.43910
C         -0.01290        3.06520        2.21370
C         -0.49210        3.33340        3.49060
S          0.32030        4.60800        4.40860
C         -0.94750        5.13140        5.59900
C         -1.54260        2.57830        3.99410
C         -2.10450        1.57430        3.23290
C         -3.63950        0.05350        1.23570
C         -4.58580        1.00040        1.62580
C         -5.92190        0.67010        1.65590
C         -6.34940       -0.60370        1.28530
S         -8.08730       -0.90300        1.37230
C         -8.27710       -2.58450        0.71470
C         -5.41340       -1.54310        0.87620
C         -4.07250       -1.21280        0.85290
C         -2.20920        0.54480       -1.30010
S         -3.56520        1.55030       -1.66780
C         -3.07880        1.58720       -3.35040
C         -1.88490        0.91670       -3.58840
N         -1.17830        1.00970       -4.77830
C         -1.17920        2.23540       -5.46730
C         -1.07780        3.43490       -4.76110
C         -1.22880        4.64130       -5.40730
C         -1.47390        4.68010       -6.77740
S         -1.78620        6.26430       -7.49620
C         -2.67750        5.85150       -9.02420
C         -1.47660        3.49510       -7.50120
C         -1.33930        2.28460       -6.84990
C         -0.57050       -0.11630       -5.33870
C          0.60410        0.02160       -6.07410
C          1.18110       -1.06910       -6.69130
C          0.58450       -2.31780       -6.59010
S          1.22710       -3.76720       -7.37620
C          2.50300       -3.13840       -8.49930
C         -0.57500       -2.46720       -5.83350
C         -1.14180       -1.38130       -5.20440
C         -1.42490        0.27700       -2.41290
S         -0.05230       -0.69260       -1.99170
C         -3.82010        2.30720       -4.33860
C         -4.09840        1.87080       -5.61380
C         -4.65250        2.87100       -6.41310
Cl        -5.04110        2.62750       -8.06310
C         -4.78190        4.10020       -5.78210
S         -4.28690        3.96680       -4.11930
C         -5.08640        5.32250       -6.41760
C         -4.84730        6.57130       -5.95290
S         -4.22810        7.01810       -4.38420
C         -4.08850        8.74010       -4.87880
O         -3.68190        9.60830       -4.16500
N         -4.53130        8.87430       -6.16220
C         -4.44500       10.15660       -6.84170
C         -3.04030       10.38930       -7.38250
C         -4.96930        7.74320       -6.82360
O         -5.36500        7.74300       -7.96720
H          3.27420       -3.95640        5.90980
H          8.59230       -6.35910        6.00330
H          7.42430       -6.00430        7.31540
H          8.26300       -3.65660        7.40610
H          9.58400       -4.79860        7.68000
H          9.41440       -4.01280        6.10620
H          1.58820       -0.19850        4.90080
H          0.46610        1.74870        5.88950
H         -3.25430        2.24850        9.37350
H         -2.42820        0.67370        9.41960
H         -3.80510        0.94490        8.30080
H         -2.53470       -0.82340        7.53780
H         -1.40020       -2.75310        6.58300
H          0.62300       -5.25930        4.46550
H          0.64210       -7.25400        5.86240
H          1.94460       -8.85400        7.07540
H          1.24210       -9.82830        8.38640
H          0.17190       -9.12290        7.15750
H          1.15710       -4.81650        9.33990
H          1.14300       -2.80020        7.92230
H          3.63770       -0.79200        0.03370
H          6.06260       -1.07400        0.22110
H          9.17950       -2.76340        1.43870
H          8.41400       -1.33180        0.70860
H          7.48150       -2.39720        1.81060
H          5.70620       -5.07530       -1.23380
H          3.26850       -4.80110       -1.40120
H          2.45450       -3.13580       -3.20370
H          1.17990       -4.55060       -4.72570
H          0.63310       -7.04480       -4.93680
H          0.10330       -5.94940       -6.25090
H         -0.73140       -7.49600       -5.98720
H         -1.81410       -5.08580       -1.72450
H         -0.48870       -3.74530       -0.15910
H         -0.23180        1.92070        0.43810
H          0.81130        3.64430        1.82630
H         -1.04930        4.39890        6.39420
H         -1.88800        5.27720        5.07720
H         -0.59700        6.07390        6.00760
H         -1.92340        2.75930        4.98540
H         -2.89380        0.96860        3.65110
H         -4.27320        2.00010        1.88490
H         -6.65650        1.40270        1.95320
H         -7.89240       -2.63070       -0.29980
H         -9.34520       -2.77790        0.71330
H         -7.77530       -3.29800        1.36190
H         -5.71040       -2.53470        0.57520
H         -3.34580       -1.94540        0.53260
H         -0.91340        3.41480       -3.69430
H         -1.18370        5.56520       -4.85210
H         -3.35260        5.02440       -8.83070
H         -1.97480        5.60980       -9.81670
H         -3.25110        6.73440       -9.29010
H         -1.61030        3.50010       -8.57110
H         -1.38280        1.36660       -7.41700
H          1.06370        0.99440       -6.16430
H          2.09350       -0.92850       -7.24810
H          3.34300       -2.74760       -7.93220
H          2.82300       -3.99410       -9.08600
H          2.07620       -2.38100       -9.15020
H         -1.04610       -3.43440       -5.76260
H         -2.04750       -1.50450       -4.62940
H         -3.90450        0.87030       -5.95470
H         -5.45490        5.26030       -7.43530
H         -5.17350       10.12550       -7.65510
H         -4.71440       10.93550       -6.12500
H         -3.00430       11.33560       -7.91430
H         -2.76150        9.58990       -8.06530
H         -2.32360       10.41760       -6.56540
