190

C          7.29190       -7.53920        5.12810
C          8.28710       -8.42930        4.88450
S          8.91000       -9.46640        6.16230
C         10.10870      -10.20670        5.06310
O         10.88960      -11.05370        5.38350
N          9.96670       -9.65280        3.82230
C         10.84700      -10.04590        2.73340
C         12.13700       -9.23680        2.75380
C          8.99990       -8.68190        3.63850
O          8.80800       -8.15100        2.56440
C          6.65800       -6.61040        4.26810
C          5.68360       -5.74150        4.70710
C          5.18740       -4.87690        3.71520
C          4.15490       -3.91760        3.83760
C          3.42850       -3.65460        5.06190
C          2.10170       -3.32520        5.15690
C          1.61450       -3.00010        6.43550
C          2.54730       -3.04790        7.42920
S          2.37370       -2.69790        9.12970
C          0.56770       -2.49460        9.31990
C         -0.17470       -3.81450        9.24970
Se         4.22920       -3.56980        6.78270
C          3.83940       -3.23420        2.66740
C          4.43970       -3.47580        1.40810
C          5.44020       -4.46120        1.28140
C          5.99860       -4.84950        0.00580
C          7.24830       -5.35160       -0.25080
C          7.47070       -5.83590       -1.55070
C          6.39080       -5.77010       -2.38760
S          6.39740       -6.35110       -4.03580
C          4.61210       -6.40460       -4.43110
C          4.08810       -5.06680       -4.91470
Se         4.93470       -4.94800       -1.54670
C          5.80540       -5.11950        2.46030
S          6.99220       -6.39200        2.56630
C          3.87770       -2.65660        0.38970
C          2.87620       -1.85520        0.83070
S          2.64340       -1.98040        2.56190
C          1.88690       -1.07690        0.12990
C          0.53600       -1.31710        0.29460
N          0.04880       -2.46110        0.94590
C          0.63660       -3.67690        0.55440
C          1.04350       -4.64300        1.47250
C          1.68950       -5.79030        1.05910
C          1.94680       -5.99940       -0.28770
S          2.76480       -7.44520       -0.89780
C          3.82610       -7.92450        0.49470
C          1.52690       -5.05040       -1.21600
C          0.87600       -3.90890       -0.80140
C         -0.60610       -2.32920        2.17240
C         -1.40090       -3.36460        2.66140
C         -1.95090       -3.29800        3.92640
C         -1.73990       -2.17720        4.71740
S         -2.29040       -2.03560        6.39530
C         -3.51790       -3.36240        6.56140
C         -1.01790       -1.10470        4.20260
C         -0.45910       -1.17650        2.94590
C         -0.24110       -0.32930       -0.34430
S         -1.93350       -0.01610       -0.48720
C         -1.60170        1.42690       -1.43760
C         -0.24810        1.59460       -1.69430
N          0.30100        2.55860       -2.52830
C         -0.24240        2.80280       -3.79290
C         -0.94690        1.81350       -4.47420
C         -1.52940        2.07230       -5.69990
C         -1.40960        3.32800       -6.27830
S         -2.11580        3.78580       -7.82950
C         -3.03220        2.30810       -8.34910
C         -0.68670        4.31580       -5.61170
C         -0.11410        4.06080       -4.38690
C          1.45780        3.22180       -2.09610
C          2.50030        3.49880       -2.97530
C          3.62680        4.17070       -2.54280
C          3.73710        4.56330       -1.21520
S          5.11540        5.44330       -0.55130
C          6.29940        5.50750       -1.92610
C          2.70330        4.27010       -0.32760
C          1.57580        3.61110       -0.76170
C          0.51910        0.60990       -1.02740
S          2.21790        0.30010       -0.88820
C         -2.66970        2.30750       -1.76310
C         -4.00920        2.04390       -1.75800
C         -4.81880        3.16840       -2.05060
C         -6.22580        3.24320       -2.11720
C         -7.07920        2.08550       -1.96040
C         -8.31530        2.03770       -1.37790
C         -8.97540        0.79430       -1.41770
C         -8.30180       -0.20210       -2.06180
S         -8.94680       -1.80600       -2.32530
C         -7.41600       -2.77170       -2.58100
C         -6.61910       -2.93090       -1.30230
Se        -6.65040        0.41240       -2.72600
C         -6.76760        4.50220       -2.38280
C         -5.97580        5.65990       -2.60170
C         -4.56440        5.59360       -2.50230
C         -3.72190        6.75800       -2.62680
C         -3.97230        8.03040       -2.18580
C         -2.94840        8.97250       -2.39290
C         -1.83730        8.48800       -3.02470
S         -0.44550        9.45850       -3.44290
C          0.80780        8.16960       -3.77760
C          1.30260        7.49790       -2.51210
Se        -2.02770        6.66110       -3.44290
C         -4.03850        4.33390       -2.24860
S         -2.34000        3.99840       -2.08310
C         -6.76710        6.76130       -2.96910
C         -8.12120        6.50160       -2.99360
S         -8.46640        4.84280       -2.56030
C         -9.07710        7.48770       -3.33270
C        -10.43390        7.43430       -3.34500
S        -11.39090        8.83630       -3.81110
C        -12.92300        7.96570       -3.52090
O        -14.01110        8.43720       -3.67760
N        -12.63440        6.69620       -3.10770
C        -13.70250        5.77350       -2.75830
C        -14.12290        5.94930       -1.30510
C        -11.30710        6.32610       -2.98390
O        -10.97350        5.21720       -2.62100
H          6.91790       -7.51630        6.14580
H         11.06000      -11.11080        2.84730
H         10.29620       -9.86780        1.80690
H         12.77180       -9.54170        1.92680
H         11.91790       -8.17600        2.65400
H         12.67220       -9.40430        3.68560
H          5.33630       -5.74440        5.72720
H          1.43210       -3.34030        4.31480
H          0.58700       -2.72070        6.58630
H          0.45960       -2.03800       10.30340
H          0.22570       -1.79010        8.56310
H         -0.00310       -4.30550        8.29450
H         -1.24210       -3.63590        9.36180
H          0.15600       -4.47990       10.04370
H          8.02940       -5.36020        0.48930
H          8.41040       -6.25750       -1.86190
H          4.52300       -7.16360       -5.20800
H          4.09110       -6.74580       -3.53260
H          3.03290       -5.15390       -5.16560
H          4.63350       -4.74020       -5.79710
H          4.19710       -4.30650       -4.13870
H          4.18280       -2.66880       -0.64360
H          0.87140       -4.49530        2.52710
H          1.99830       -6.51030        1.80060
H          4.57030       -8.60170        0.08710
H          3.24390       -8.43360        1.25730
H          4.31250       -7.04050        0.89750
H          1.71260       -5.22150       -2.26630
H          0.56200       -3.17630       -1.52970
H         -1.56950       -4.24020        2.05250
H         -2.53290       -4.13220        4.28460
H         -3.02970       -4.33300        6.55340
H         -4.24960       -3.28160        5.76320
H         -3.99860       -3.20140        7.52140
H         -0.87700       -0.22330        4.80900
H          0.12280       -0.34780        2.57270
H         -1.04860        0.82960       -4.04080
H         -2.07220        1.28080       -6.19090
H         -3.78480        2.05870       -7.60680
H         -2.34640        1.48170       -8.51250
H         -3.51240        2.57760       -9.28470
H         -0.59390        5.29240       -6.06500
H          0.42070        4.84280       -3.86730
H          2.42810        3.18530       -4.00600
H          4.41300        4.37430       -3.25180
H          5.89690        6.10150       -2.74160
H          6.54290        4.50030       -2.25110
H          7.18520        5.98940       -1.52430
H          2.79460        4.57630        0.70290
H          0.77080        3.40190       -0.07290
H         -4.38880        1.06230       -1.52730
H         -8.74310        2.88300       -0.86730
H         -9.93950        0.63340       -0.96770
H         -7.75640       -3.73430       -2.96080
H         -6.83760       -2.26230       -3.35830
H         -6.29830       -1.95910       -0.92640
H         -5.73430       -3.53560       -1.49000
H         -7.22190       -3.41590       -0.53810
H         -4.86760        8.28010       -1.64130
H         -3.02020        9.99430       -2.06230
H          0.35070        7.45240       -4.46770
H          1.61340        8.69550       -4.28890
H          2.06450        6.75900       -2.75460
H          0.48560        6.98890       -1.99910
H          1.73190        8.23170       -1.83430
H         -6.36440        7.71990       -3.24240
H         -8.64160        8.43850       -3.62050
H        -14.54250        5.97080       -3.42760
H        -13.31380        4.76650       -2.92660
H        -14.91490        5.24540       -1.06650
H        -13.27900        5.76380       -0.64440
H        -14.49080        6.95920       -1.13900
