220

C         -4.21170       -6.89370        4.13040
C         -3.63140       -7.89300        4.85200
S         -4.61320       -9.19390        5.51830
C         -3.17450      -10.03780        6.15040
O         -3.20110      -11.07530        6.74730
N         -2.06660       -9.29680        5.85210
C         -0.74240       -9.77070        6.21840
C         -0.12400      -10.58980        5.09330
C         -2.23230       -8.11140        5.15720
O         -1.29370       -7.38650        4.88030
C         -3.63510       -5.78730        3.48370
C         -4.37660       -4.88010        2.70480
N         -5.73300       -5.05000        2.42130
C         -6.66940       -4.15670        2.94240
C         -6.40320       -3.46010        4.11910
C         -7.36820       -2.66320        4.70320
C         -8.61900       -2.54300        4.11570
S         -9.96070       -1.62570        4.81050
C         -9.24800       -0.85380        6.28870
C         -8.86790       -3.18400        2.90310
C         -7.90490       -3.97420        2.31770
C         -6.12070       -6.25610        1.81700
C         -7.28930       -6.92040        2.18140
C         -7.63320       -8.12070        1.59040
C         -6.80610       -8.68870        0.63110
S         -7.13650      -10.21720       -0.18660
C         -8.60620      -10.85990        0.66330
C         -5.63380       -8.02930        0.26570
C         -5.29590       -6.82870        0.84700
C         -3.56340       -3.86390        2.18540
S         -3.80200       -2.53150        1.09700
C         -2.06900       -2.22980        1.04950
C         -1.36950       -3.08340        1.89040
N          0.00520       -3.06000        2.08170
C          0.65880       -4.28750        2.26400
C          1.62210       -4.43410        3.25690
C          2.17750       -5.67130        3.51330
C          1.76350       -6.78230        2.79060
S          2.37760       -8.41220        3.10210
C          2.87350       -8.31420        4.84710
C          0.84430       -6.62990        1.75690
C          0.30630       -5.39130        1.48730
C          0.70950       -1.85400        2.10300
C          1.99190       -1.76660        1.56200
C          2.63340       -0.55000        1.48990
C          2.01740        0.60590        1.96510
S          2.88690        2.12920        1.74590
C          2.02890        3.26860        2.87260
C          0.76570        0.51460        2.55670
C          0.12710       -0.70690        2.63160
C         -2.22310       -4.00770        2.53370
S         -1.93200       -5.37470        3.54320
C         -1.37260       -1.40570        0.09120
C         -1.19180       -0.04050       -0.06400
N         -1.96380        0.95770        0.48200
C         -3.15290        0.66270        1.21510
C         -4.34640        0.50630        0.52120
C         -5.54540        0.38360        1.19470
C         -5.56020        0.42240        2.58190
S         -7.03300        0.39120        3.54290
C         -8.36270        0.33700        2.31360
C         -4.36150        0.54340        3.28100
C         -3.16760        0.67420        2.60340
C         -2.06470        2.21880       -0.14890
C         -1.98780        2.38400       -1.53050
C         -2.18270        3.62750       -2.09380
C         -2.49660        4.72010       -1.29510
S         -2.79390        6.26760       -2.09590
C         -3.92710        7.07820       -0.92540
C         -2.58400        4.56100        0.08090
C         -2.36200        3.32240        0.64510
C         -0.03210        0.22880       -0.84620
S          0.87530        1.66490       -1.23440
C          2.03410        0.70760       -2.14260
C          1.65210       -0.63560       -2.24500
N          2.14140       -1.57820       -3.11960
C          2.48780       -1.28550       -4.44230
C          1.94960       -0.18930       -5.11280
C          2.28360        0.06720       -6.42700
C          3.16420       -0.76730       -7.09970
S          3.60320       -0.54340       -8.79180
C          3.31310        1.23080       -9.05010
C          3.70740       -1.86340       -6.43600
C          3.37950       -2.11730       -5.12430
C          2.16930       -2.91730       -2.68020
C          1.55130       -3.92960       -3.41160
C          1.60390       -5.22980       -2.96190
C          2.27320       -5.54390       -1.77980
S          2.30080       -7.24190       -1.30470
C          3.71170       -7.33570       -0.16820
C          2.87650       -4.53310       -1.04310
C          2.82750       -3.22980       -1.49650
C          0.54720       -0.89680       -1.40130
S         -0.23870       -2.34250       -0.90010
C          3.19660        1.33000       -2.66670
C          4.33140        0.63800       -3.10230
F          4.50840       -0.65670       -2.77190
C          5.35780        1.25570       -3.80410
F          6.39370        0.48930       -4.18210
C          5.39090        2.62770       -4.02430
C          4.39550        3.38920       -3.35350
N          4.53180        4.71990       -3.28130
C          3.64130        5.41980       -2.61570
C          3.96970        6.83520       -2.40320
C          3.84780        7.43040       -1.15280
C          4.20260        8.75220       -0.95490
C          4.68720        9.52830       -2.00490
O          5.04540       10.82710       -1.93070
C          4.96160       11.49740       -0.68760
C          5.44460       12.92230       -0.90350
C          4.82250        8.90400       -3.25430
C          4.48770        7.58640       -3.45690
F          5.29900        9.62590       -4.28730
C          2.47120        4.79640       -2.08310
N          2.34230        3.48810       -2.13570
C          3.29650        2.75350       -2.71610
C          1.44080        5.59290       -1.41520
C          1.05300        6.83550       -1.90730
C          0.22680        7.66300       -1.17470
C         -0.23560        7.28100        0.08200
O         -0.98100        8.05320        0.91400
C         -0.94710        9.46170        0.74980
C         -2.07130       10.00270       -0.12810
C          0.10520        5.99680        0.52610
F         -0.33290        5.59130        1.74010
C          0.91390        5.15600       -0.20250
C          6.44200        3.29090       -4.74780
C          7.02650        2.80690       -5.86390
S          8.46950        3.49220       -6.59030
C          8.53370        2.18960       -7.82010
O          9.40660        2.07350       -8.62930
N          7.42690        1.40130       -7.69030
C          7.22310        0.24680       -8.55120
C          7.66320       -1.03100       -7.85010
C          6.52480        1.69840       -6.68750
O          5.44370        1.16290       -6.58900
H         -5.28770       -6.96810        4.02630
H         -0.13700       -8.88590        6.42890
H         -0.85050      -10.37460        7.12190
H          0.00420       -9.97720        4.20400
H         -0.76100      -11.43790        4.85300
H          0.84730      -10.96410        5.40360
H         -5.44060       -3.56790        4.59700
H         -7.13390       -2.15430        5.62350
H         -8.40710       -0.22820        6.00420
H         -8.95440       -1.61910        7.00120
H        -10.04090       -0.24350        6.71010
H         -9.83160       -3.05990        2.43220
H         -8.10610       -4.46830        1.37930
H         -7.93110       -6.50260        2.94300
H         -8.54470       -8.60570        1.89960
H         -8.40230      -10.96340        1.72480
H         -9.45790      -10.21020        0.48400
H         -8.79110      -11.83620        0.22610
H         -4.99480       -8.47100       -0.48320
H         -4.38730       -6.32430        0.55470
H          1.92000       -3.57660        3.84230
H          2.91740       -5.76160        4.29280
H          3.81690       -7.78470        4.94690
H          2.99480       -9.33890        5.18330
H          2.08440       -7.82310        5.40790
H          0.55540       -7.49000        1.17350
H         -0.40560       -5.27180        0.68400
H          2.46310       -2.65990        1.18440
H          3.61570       -0.47560        1.04780
H          2.61520        4.18240        2.86720
H          1.02410        3.47860        2.51870
H          2.01370        2.84570        3.87270
H          0.27490        1.38960        2.95140
H         -0.84480       -0.78570        3.09360
H         -4.33440        0.49960       -0.55880
H         -6.45460        0.27110        0.62770
H         -8.30600        1.21120        1.67180
H         -9.28890        0.35120        2.88000
H         -8.29800       -0.58650        1.74520
H         -4.38410        0.56680        4.36000
H         -2.25040        0.82180        3.15040
H         -1.81440        1.53290       -2.17060
H         -2.12580        3.75520       -3.16380
H         -4.72260        6.38690       -0.66420
H         -3.38650        7.40220       -0.04180
H         -4.33640        7.93680       -1.44820
H         -2.81930        5.39210        0.72520
H         -2.43530        3.20630        1.71560
H          1.24840        0.46160       -4.61210
H          1.83940        0.91790       -6.91820
H          2.24980        1.43410       -9.13920
H          3.75340        1.77150       -8.21740
H          3.81270        1.48860       -9.97920
H          4.39880       -2.50660       -6.95810
H          3.82630       -2.95340       -4.60890
H          1.03940       -3.68860       -4.33120
H          1.13100       -6.02170       -3.52170
H          3.86650       -8.39310        0.02100
H          4.58750       -6.90590       -0.64480
H          3.47910       -6.83300        0.76540
H          3.39220       -4.75470       -0.12200
H          3.31900       -2.43930       -0.95100
H          3.49350        6.85110       -0.31420
H          4.10360        9.17600        0.03150
H          5.59090       10.98950        0.05600
H          3.92230       11.49610       -0.32980
H          4.82420       13.41560       -1.64640
H          5.39500       13.47530        0.03010
H          6.47010       12.91440       -1.26140
H          4.62110        7.14210       -4.42990
H          1.39770        7.16320       -2.87540
H         -0.04850        8.61950       -1.58700
H         -1.05270        9.86150        1.76350
H          0.02970        9.76610        0.35590
H         -3.03590        9.80060        0.33000
H         -2.05450        9.54820       -1.11530
H         -1.95610       11.07820       -0.23340
H          1.17490        4.18170        0.17500
H          6.75900        4.24380       -4.34630
H          6.15650        0.19420       -8.78210
H          7.79850        0.41280       -9.46360
H          7.46820       -1.88320       -8.49460
H          8.72650       -0.99590       -7.62340
H          7.10690       -1.15630       -6.92380
