
  xtb     02092214103D
 energy: -307.799138325015 gnorm: 0.000626975775 xtb: 6.4.1 (unknown)
186200  0     0  0            999 V2000
   -0.1151   -6.8782    3.9686 C   0  0  0  0  0  0  0  0  0  0  0  0
    0.7101   -7.0261    5.0261 C   0  0  0  0  0  0  0  0  0  0  0  0
    1.1317   -8.6233    5.6261 S   0  0  0  0  0  0  0  0  0  0  0  0
    2.5463   -7.9739    6.5048 C   0  0  0  0  0  0  0  0  0  0  0  0
    3.3306   -8.6500    7.1041 O   0  0  0  0  0  0  0  0  0  0  0  0
    2.5720   -6.6173    6.3634 N   0  0  0  0  0  0  0  0  0  0  0  0
    3.6537   -5.8555    6.9666 C   0  0  0  0  0  0  0  0  0  0  0  0
    3.4606   -5.7134    8.4700 C   0  0  0  0  0  0  0  0  0  0  0  0
    1.5733   -6.0063    5.6222 C   0  0  0  0  0  0  0  0  0  0  0  0
    1.5032   -4.8074    5.4681 O   0  0  0  0  0  0  0  0  0  0  0  0
   -0.4862   -5.6772    3.2861 C   0  0  0  0  0  0  0  0  0  0  0  0
   -0.3963   -5.5738    1.9031 C   0  0  0  0  0  0  0  0  0  0  0  0
    0.3124   -6.5083    1.1630 N   0  0  0  0  0  0  0  0  0  0  0  0
   -0.0346   -6.8186   -0.1469 C   0  0  0  0  0  0  0  0  0  0  0  0
    0.9256   -7.2705   -1.0548 C   0  0  0  0  0  0  0  0  0  0  0  0
    0.5644   -7.5960   -2.3418 C   0  0  0  0  0  0  0  0  0  0  0  0
   -0.7577   -7.4666   -2.7643 C   0  0  0  0  0  0  0  0  0  0  0  0
   -1.1086   -7.9253   -4.4330 S   0  0  0  0  0  0  0  0  0  0  0  0
   -2.7303   -7.1762   -4.7430 C   0  0  0  0  0  0  0  0  0  0  0  0
   -1.7146   -7.0136   -1.8670 C   0  0  0  0  0  0  0  0  0  0  0  0
   -1.3570   -6.6996   -0.5712 C   0  0  0  0  0  0  0  0  0  0  0  0
    1.5318   -6.9363    1.7417 C   0  0  0  0  0  0  0  0  0  0  0  0
    2.3900   -5.9855    2.2957 C   0  0  0  0  0  0  0  0  0  0  0  0
    3.5073   -6.3826    2.9924 C   0  0  0  0  0  0  0  0  0  0  0  0
    3.8057   -7.7374    3.1320 C   0  0  0  0  0  0  0  0  0  0  0  0
    5.2332   -8.1263    4.0949 S   0  0  0  0  0  0  0  0  0  0  0  0
    5.0661   -9.8997    4.4307 C   0  0  0  0  0  0  0  0  0  0  0  0
    2.9918   -8.6829    2.5218 C   0  0  0  0  0  0  0  0  0  0  0  0
    1.8617   -8.2831    1.8318 C   0  0  0  0  0  0  0  0  0  0  0  0
   -0.8713   -4.3268    1.4545 C   0  0  0  0  0  0  0  0  0  0  0  0
   -0.9392   -3.5554   -0.0807 S   0  0  0  0  0  0  0  0  0  0  0  0
   -1.4020   -2.0333    0.6749 C   0  0  0  0  0  0  0  0  0  0  0  0
   -1.6275   -2.1777    2.0399 C   0  0  0  0  0  0  0  0  0  0  0  0
   -2.0387   -1.1916    2.9252 N   0  0  0  0  0  0  0  0  0  0  0  0
   -1.4017   -1.2171    4.1862 C   0  0  0  0  0  0  0  0  0  0  0  0
   -0.0121   -1.2462    4.2339 C   0  0  0  0  0  0  0  0  0  0  0  0
    0.6512   -1.3594    5.4381 C   0  0  0  0  0  0  0  0  0  0  0  0
   -0.0735   -1.4429    6.6190 C   0  0  0  0  0  0  0  0  0  0  0  0
    0.6802   -1.6236    8.2013 S   0  0  0  0  0  0  0  0  0  0  0  0
    2.3334   -2.2420    7.7748 C   0  0  0  0  0  0  0  0  0  0  0  0
   -1.4647   -1.3808    6.5789 C   0  0  0  0  0  0  0  0  0  0  0  0
   -2.1257   -1.2761    5.3755 C   0  0  0  0  0  0  0  0  0  0  0  0
   -3.1961   -0.4448    2.7320 C   0  0  0  0  0  0  0  0  0  0  0  0
   -4.1619   -0.8158    1.7944 C   0  0  0  0  0  0  0  0  0  0  0  0
   -5.3139   -0.0698    1.6474 C   0  0  0  0  0  0  0  0  0  0  0  0
   -5.5329    1.0431    2.4456 C   0  0  0  0  0  0  0  0  0  0  0  0
   -7.0378    1.9614    2.2461 S   0  0  0  0  0  0  0  0  0  0  0  0
   -7.5250    2.1946    3.9875 C   0  0  0  0  0  0  0  0  0  0  0  0
   -4.5716    1.4266    3.3703 C   0  0  0  0  0  0  0  0  0  0  0  0
   -3.4107    0.6999    3.5015 C   0  0  0  0  0  0  0  0  0  0  0  0
   -1.2800   -3.4840    2.4778 C   0  0  0  0  0  0  0  0  0  0  0  0
   -1.0837   -4.2194    4.0359 S   0  0  0  0  0  0  0  0  0  0  0  0
   -1.2355   -0.8491   -0.1109 C   0  0  0  0  0  0  0  0  0  0  0  0
   -0.2436   -0.7019   -1.0734 C   0  0  0  0  0  0  0  0  0  0  0  0
    0.6025   -1.7314   -1.5404 N   0  0  0  0  0  0  0  0  0  0  0  0
    0.2214   -2.3897   -2.7215 C   0  0  0  0  0  0  0  0  0  0  0  0
    0.4921   -3.7466   -2.9222 C   0  0  0  0  0  0  0  0  0  0  0  0
    0.1190   -4.3721   -4.0901 C   0  0  0  0  0  0  0  0  0  0  0  0
   -0.5677   -3.6781   -5.0827 C   0  0  0  0  0  0  0  0  0  0  0  0
   -1.0053   -4.5824   -6.5374 S   0  0  0  0  0  0  0  0  0  0  0  0
   -1.5140   -3.2897   -7.7070 C   0  0  0  0  0  0  0  0  0  0  0  0
   -0.8919   -2.3479   -4.8691 C   0  0  0  0  0  0  0  0  0  0  0  0
   -0.4982   -1.7152   -3.7055 C   0  0  0  0  0  0  0  0  0  0  0  0
    1.7291   -2.0785   -0.7950 C   0  0  0  0  0  0  0  0  0  0  0  0
    1.8195   -1.7421    0.5590 C   0  0  0  0  0  0  0  0  0  0  0  0
    2.8829   -2.1675    1.3240 C   0  0  0  0  0  0  0  0  0  0  0  0
    3.9044   -2.9225    0.7583 C   0  0  0  0  0  0  0  0  0  0  0  0
    5.2001   -3.4638    1.8354 S   0  0  0  0  0  0  0  0  0  0  0  0
    5.9565   -4.8350    0.9177 C   0  0  0  0  0  0  0  0  0  0  0  0
    3.8744   -3.1762   -0.6055 C   0  0  0  0  0  0  0  0  0  0  0  0
    2.8057   -2.7536   -1.3710 C   0  0  0  0  0  0  0  0  0  0  0  0
   -0.1730    0.6226   -1.5403 C   0  0  0  0  0  0  0  0  0  0  0  0
    0.8527    1.4156   -2.6796 S   0  0  0  0  0  0  0  0  0  0  0  0
   -0.0420    2.9094   -2.4498 C   0  0  0  0  0  0  0  0  0  0  0  0
   -1.1211    2.7706   -1.5837 C   0  0  0  0  0  0  0  0  0  0  0  0
   -2.1191    3.7137   -1.4282 N   0  0  0  0  0  0  0  0  0  0  0  0
   -2.4324    4.5724   -2.4996 C   0  0  0  0  0  0  0  0  0  0  0  0
   -2.6527    5.9308   -2.2708 C   0  0  0  0  0  0  0  0  0  0  0  0
   -2.8269    6.7970   -3.3260 C   0  0  0  0  0  0  0  0  0  0  0  0
   -2.7832    6.3293   -4.6377 C   0  0  0  0  0  0  0  0  0  0  0  0
   -2.9167    7.5354   -5.9162 S   0  0  0  0  0  0  0  0  0  0  0  0
   -2.3340    6.6552   -7.3925 C   0  0  0  0  0  0  0  0  0  0  0  0
   -2.6448    4.9670   -4.8678 C   0  0  0  0  0  0  0  0  0  0  0  0
   -2.4770    4.0985   -3.8072 C   0  0  0  0  0  0  0  0  0  0  0  0
   -2.8121    3.8703   -0.2212 C   0  0  0  0  0  0  0  0  0  0  0  0
   -2.1757    3.7424    1.0122 C   0  0  0  0  0  0  0  0  0  0  0  0
   -2.8582    4.0355    2.1739 C   0  0  0  0  0  0  0  0  0  0  0  0
   -4.1821    4.4638    2.1282 C   0  0  0  0  0  0  0  0  0  0  0  0
   -4.9331    4.9316    3.6585 S   0  0  0  0  0  0  0  0  0  0  0  0
   -6.5152    5.6655    3.1556 C   0  0  0  0  0  0  0  0  0  0  0  0
   -4.8403    4.5225    0.9078 C   0  0  0  0  0  0  0  0  0  0  0  0
   -4.1594    4.2239   -0.2527 C   0  0  0  0  0  0  0  0  0  0  0  0
   -1.1400    1.4692   -1.0180 C   0  0  0  0  0  0  0  0  0  0  0  0
   -2.1125    0.6479    0.1596 S   0  0  0  0  0  0  0  0  0  0  0  0
    0.3357    4.0647   -3.2027 C   0  0  0  0  0  0  0  0  0  0  0  0
    0.3371    5.3752   -2.7971 C   0  0  0  0  0  0  0  0  0  0  0  0
    0.6355    6.2859   -3.8248 C   0  0  0  0  0  0  0  0  0  0  0  0
    0.4572    8.0175   -3.6623 S   0  0  0  0  0  0  0  0  0  0  0  0
    1.0397    8.3256   -1.9483 C   0  0  0  0  0  0  0  0  0  0  0  0
   -0.0999    8.5301   -0.9697 C   0  0  0  0  0  0  0  0  0  0  0  0
    0.9006    5.6704   -5.0421 C   0  0  0  0  0  0  0  0  0  0  0  0
    0.7379    3.9336   -4.8870 S   0  0  0  0  0  0  0  0  0  0  0  0
    1.2436    6.1571   -6.3239 C   0  0  0  0  0  0  0  0  0  0  0  0
    1.8131    7.3197   -6.7308 C   0  0  0  0  0  0  0  0  0  0  0  0
    2.4911    8.6256   -5.7939 S   0  0  0  0  0  0  0  0  0  0  0  0
    3.1048    9.4390   -7.2692 C   0  0  0  0  0  0  0  0  0  0  0  0
    3.7378   10.4547   -7.2594 O   0  0  0  0  0  0  0  0  0  0  0  0
    2.7420    8.7135   -8.3666 N   0  0  0  0  0  0  0  0  0  0  0  0
    3.0630    9.1810   -9.7047 C   0  0  0  0  0  0  0  0  0  0  0  0
    2.0489   10.2101  -10.1862 C   0  0  0  0  0  0  0  0  0  0  0  0
    2.0316    7.5454   -8.1625 C   0  0  0  0  0  0  0  0  0  0  0  0
    1.6553    6.8239   -9.0594 O   0  0  0  0  0  0  0  0  0  0  0  0
   -0.4880   -7.7899    3.5121 H   0  0  0  0  0  0  0  0  0  0  0  0
    3.6562   -4.8812    6.4733 H   0  0  0  0  0  0  0  0  0  0  0  0
    4.5888   -6.3782    6.7496 H   0  0  0  0  0  0  0  0  0  0  0  0
    2.5048   -5.2430    8.6897 H   0  0  0  0  0  0  0  0  0  0  0  0
    3.4892   -6.6917    8.9433 H   0  0  0  0  0  0  0  0  0  0  0  0
    4.2587   -5.1033    8.8831 H   0  0  0  0  0  0  0  0  0  0  0  0
    1.9560   -7.3574   -0.7444 H   0  0  0  0  0  0  0  0  0  0  0  0
    1.3059   -7.9490   -3.0422 H   0  0  0  0  0  0  0  0  0  0  0  0
   -2.8815   -7.2435   -5.8155 H   0  0  0  0  0  0  0  0  0  0  0  0
   -3.5081   -7.7279   -4.2225 H   0  0  0  0  0  0  0  0  0  0  0  0
   -2.7072   -6.1342   -4.4398 H   0  0  0  0  0  0  0  0  0  0  0  0
   -2.7476   -6.9165   -2.1592 H   0  0  0  0  0  0  0  0  0  0  0  0
   -2.1156   -6.3768    0.1261 H   0  0  0  0  0  0  0  0  0  0  0  0
    2.1598   -4.9346    2.2029 H   0  0  0  0  0  0  0  0  0  0  0  0
    4.1592   -5.6476    3.4384 H   0  0  0  0  0  0  0  0  0  0  0  0
    5.8561  -10.1356    5.1368 H   0  0  0  0  0  0  0  0  0  0  0  0
    5.2032  -10.4718    3.5176 H   0  0  0  0  0  0  0  0  0  0  0  0
    4.1003  -10.0956    4.8866 H   0  0  0  0  0  0  0  0  0  0  0  0
    3.2146   -9.7351    2.5935 H   0  0  0  0  0  0  0  0  0  0  0  0
    1.2182   -9.0226    1.3785 H   0  0  0  0  0  0  0  0  0  0  0  0
    0.5528   -1.1953    3.3151 H   0  0  0  0  0  0  0  0  0  0  0  0
    1.7278   -1.3857    5.4400 H   0  0  0  0  0  0  0  0  0  0  0  0
    2.7577   -2.6239    8.6978 H   0  0  0  0  0  0  0  0  0  0  0  0
    2.9535   -1.4345    7.3954 H   0  0  0  0  0  0  0  0  0  0  0  0
    2.2239   -3.0372    7.0433 H   0  0  0  0  0  0  0  0  0  0  0  0
   -2.0200   -1.4411    7.5022 H   0  0  0  0  0  0  0  0  0  0  0  0
   -3.2048   -1.2631    5.3481 H   0  0  0  0  0  0  0  0  0  0  0  0
   -4.0185   -1.7016    1.1941 H   0  0  0  0  0  0  0  0  0  0  0  0
   -6.0592   -0.3593    0.9226 H   0  0  0  0  0  0  0  0  0  0  0  0
   -6.8742    2.9153    4.4730 H   0  0  0  0  0  0  0  0  0  0  0  0
   -8.5450    2.5652    3.9714 H   0  0  0  0  0  0  0  0  0  0  0  0
   -7.4839    1.2362    4.4951 H   0  0  0  0  0  0  0  0  0  0  0  0
   -4.7193    2.2966    3.9887 H   0  0  0  0  0  0  0  0  0  0  0  0
   -2.6598    1.0180    4.2081 H   0  0  0  0  0  0  0  0  0  0  0  0
    0.9868   -4.3226   -2.1559 H   0  0  0  0  0  0  0  0  0  0  0  0
    0.3532   -5.4136   -4.2421 H   0  0  0  0  0  0  0  0  0  0  0  0
   -0.7377   -2.5336   -7.7760 H   0  0  0  0  0  0  0  0  0  0  0  0
   -2.4618   -2.8551   -7.4023 H   0  0  0  0  0  0  0  0  0  0  0  0
   -1.6309   -3.7894   -8.6635 H   0  0  0  0  0  0  0  0  0  0  0  0
   -1.4481   -1.7840   -5.6008 H   0  0  0  0  0  0  0  0  0  0  0  0
   -0.7626   -0.6787   -3.5755 H   0  0  0  0  0  0  0  0  0  0  0  0
    1.0464   -1.1477    1.0199 H   0  0  0  0  0  0  0  0  0  0  0  0
    2.9285   -1.9262    2.3755 H   0  0  0  0  0  0  0  0  0  0  0  0
    5.1768   -5.4998    0.5577 H   0  0  0  0  0  0  0  0  0  0  0  0
    6.5619   -4.4544    0.0999 H   0  0  0  0  0  0  0  0  0  0  0  0
    6.5875   -5.3575    1.6302 H   0  0  0  0  0  0  0  0  0  0  0  0
    4.6841   -3.6994   -1.0891 H   0  0  0  0  0  0  0  0  0  0  0  0
    2.8153   -2.9418   -2.4332 H   0  0  0  0  0  0  0  0  0  0  0  0
   -2.6664    6.3031   -1.2567 H   0  0  0  0  0  0  0  0  0  0  0  0
   -2.9659    7.8522   -3.1508 H   0  0  0  0  0  0  0  0  0  0  0  0
   -2.2236    7.4125   -8.1622 H   0  0  0  0  0  0  0  0  0  0  0  0
   -1.3705    6.1992   -7.1865 H   0  0  0  0  0  0  0  0  0  0  0  0
   -3.0653    5.9170   -7.7089 H   0  0  0  0  0  0  0  0  0  0  0  0
   -2.6579    4.5690   -5.8697 H   0  0  0  0  0  0  0  0  0  0  0  0
   -2.3568    3.0422   -3.9983 H   0  0  0  0  0  0  0  0  0  0  0  0
   -1.1373    3.4492    1.0559 H   0  0  0  0  0  0  0  0  0  0  0  0
   -2.3592    3.9644    3.1281 H   0  0  0  0  0  0  0  0  0  0  0  0
   -6.3334    6.4955    2.4792 H   0  0  0  0  0  0  0  0  0  0  0  0
   -6.9745    6.0272    4.0706 H   0  0  0  0  0  0  0  0  0  0  0  0
   -7.1475    4.9113    2.6957 H   0  0  0  0  0  0  0  0  0  0  0  0
   -5.8800    4.7957    0.8436 H   0  0  0  0  0  0  0  0  0  0  0  0
   -4.6706    4.2839   -1.2018 H   0  0  0  0  0  0  0  0  0  0  0  0
    0.1181    5.6637   -1.7860 H   0  0  0  0  0  0  0  0  0  0  0  0
    1.6446    9.2284   -2.0286 H   0  0  0  0  0  0  0  0  0  0  0  0
    1.6811    7.4922   -1.6698 H   0  0  0  0  0  0  0  0  0  0  0  0
   -0.7196    7.6402   -0.8977 H   0  0  0  0  0  0  0  0  0  0  0  0
   -0.7271    9.3577   -1.2911 H   0  0  0  0  0  0  0  0  0  0  0  0
    0.2995    8.7583    0.0168 H   0  0  0  0  0  0  0  0  0  0  0  0
    1.0715    5.4578   -7.1384 H   0  0  0  0  0  0  0  0  0  0  0  0
    3.0552    8.2998  -10.3504 H   0  0  0  0  0  0  0  0  0  0  0  0
    4.0642    9.6169   -9.6742 H   0  0  0  0  0  0  0  0  0  0  0  0
    2.3064   10.5345  -11.1903 H   0  0  0  0  0  0  0  0  0  0  0  0
    1.0512    9.7771  -10.2027 H   0  0  0  0  0  0  0  0  0  0  0  0
    2.0504   11.0754   -9.5274 H   0  0  0  0  0  0  0  0  0  0  0  0
  1  2  2  0  0  0  0
  2  3  1  0  0  0  0
  3  4  1  0  0  0  0
  4  5  2  0  0  0  0
  4  6  1  0  0  0  0
  6  7  1  0  0  0  0
  7  8  1  0  0  0  0
  6  9  1  0  0  0  0
  9 10  2  0  0  0  0
  1 11  1  0  0  0  0
 11 12  2  0  0  0  0
 12 13  1  0  0  0  0
 13 14  1  0  0  0  0
 14 15  2  0  0  0  0
 15 16  1  0  0  0  0
 16 17  2  0  0  0  0
 17 18  1  0  0  0  0
 18 19  1  0  0  0  0
 17 20  1  0  0  0  0
 20 21  2  0  0  0  0
 13 22  1  0  0  0  0
 22 23  2  0  0  0  0
 23 24  1  0  0  0  0
 24 25  2  0  0  0  0
 25 26  1  0  0  0  0
 26 27  1  0  0  0  0
 25 28  1  0  0  0  0
 28 29  2  0  0  0  0
 12 30  1  0  0  0  0
 30 31  1  0  0  0  0
 31 32  1  0  0  0  0
 32 33  2  0  0  0  0
 33 34  1  0  0  0  0
 34 35  1  0  0  0  0
 35 36  2  0  0  0  0
 36 37  1  0  0  0  0
 37 38  2  0  0  0  0
 38 39  1  0  0  0  0
 39 40  1  0  0  0  0
 38 41  1  0  0  0  0
 41 42  2  0  0  0  0
 34 43  1  0  0  0  0
 43 44  2  0  0  0  0
 44 45  1  0  0  0  0
 45 46  2  0  0  0  0
 46 47  1  0  0  0  0
 47 48  1  0  0  0  0
 46 49  1  0  0  0  0
 49 50  2  0  0  0  0
 33 51  1  0  0  0  0
 51 52  1  0  0  0  0
 32 53  1  0  0  0  0
 53 54  2  0  0  0  0
 54 55  1  0  0  0  0
 55 56  1  0  0  0  0
 56 57  2  0  0  0  0
 57 58  1  0  0  0  0
 58 59  2  0  0  0  0
 59 60  1  0  0  0  0
 60 61  1  0  0  0  0
 59 62  1  0  0  0  0
 62 63  2  0  0  0  0
 55 64  1  0  0  0  0
 64 65  2  0  0  0  0
 65 66  1  0  0  0  0
 66 67  2  0  0  0  0
 67 68  1  0  0  0  0
 68 69  1  0  0  0  0
 67 70  1  0  0  0  0
 70 71  2  0  0  0  0
 54 72  1  0  0  0  0
 72 73  1  0  0  0  0
 73 74  1  0  0  0  0
 74 75  2  0  0  0  0
 75 76  1  0  0  0  0
 76 77  1  0  0  0  0
 77 78  2  0  0  0  0
 78 79  1  0  0  0  0
 79 80  2  0  0  0  0
 80 81  1  0  0  0  0
 81 82  1  0  0  0  0
 80 83  1  0  0  0  0
 83 84  2  0  0  0  0
 76 85  1  0  0  0  0
 85 86  2  0  0  0  0
 86 87  1  0  0  0  0
 87 88  2  0  0  0  0
 88 89  1  0  0  0  0
 89 90  1  0  0  0  0
 88 91  1  0  0  0  0
 91 92  2  0  0  0  0
 75 93  1  0  0  0  0
 93 94  1  0  0  0  0
 74 95  1  0  0  0  0
 95 96  2  0  0  0  0
 96 97  1  0  0  0  0
 97 98  1  0  0  0  0
 98 99  1  0  0  0  0
 99100  1  0  0  0  0
 97101  2  0  0  0  0
101102  1  0  0  0  0
101103  1  0  0  0  0
103104  2  0  0  0  0
104105  1  0  0  0  0
105106  1  0  0  0  0
106107  2  0  0  0  0
106108  1  0  0  0  0
108109  1  0  0  0  0
109110  1  0  0  0  0
108111  1  0  0  0  0
111112  2  0  0  0  0
  9  2  1  0  0  0  0
 52 11  1  0  0  0  0
 94 53  1  0  0  0  0
102 95  1  0  0  0  0
111104  1  0  0  0  0
 21 14  1  0  0  0  0
 29 22  1  0  0  0  0
 51 30  2  0  0  0  0
 63 56  1  0  0  0  0
 71 64  1  0  0  0  0
 93 72  2  0  0  0  0
 42 35  1  0  0  0  0
 50 43  1  0  0  0  0
 84 77  1  0  0  0  0
 92 85  1  0  0  0  0
  1113  1  0  0  0  0
  7114  1  0  0  0  0
  7115  1  0  0  0  0
  8116  1  0  0  0  0
  8117  1  0  0  0  0
  8118  1  0  0  0  0
 15119  1  0  0  0  0
 16120  1  0  0  0  0
 19121  1  0  0  0  0
 19122  1  0  0  0  0
 19123  1  0  0  0  0
 20124  1  0  0  0  0
 21125  1  0  0  0  0
 23126  1  0  0  0  0
 24127  1  0  0  0  0
 27128  1  0  0  0  0
 27129  1  0  0  0  0
 27130  1  0  0  0  0
 28131  1  0  0  0  0
 29132  1  0  0  0  0
 36133  1  0  0  0  0
 37134  1  0  0  0  0
 40135  1  0  0  0  0
 40136  1  0  0  0  0
 40137  1  0  0  0  0
 41138  1  0  0  0  0
 42139  1  0  0  0  0
 44140  1  0  0  0  0
 45141  1  0  0  0  0
 48142  1  0  0  0  0
 48143  1  0  0  0  0
 48144  1  0  0  0  0
 49145  1  0  0  0  0
 50146  1  0  0  0  0
 57147  1  0  0  0  0
 58148  1  0  0  0  0
 61149  1  0  0  0  0
 61150  1  0  0  0  0
 61151  1  0  0  0  0
 62152  1  0  0  0  0
 63153  1  0  0  0  0
 65154  1  0  0  0  0
 66155  1  0  0  0  0
 69156  1  0  0  0  0
 69157  1  0  0  0  0
 69158  1  0  0  0  0
 70159  1  0  0  0  0
 71160  1  0  0  0  0
 78161  1  0  0  0  0
 79162  1  0  0  0  0
 82163  1  0  0  0  0
 82164  1  0  0  0  0
 82165  1  0  0  0  0
 83166  1  0  0  0  0
 84167  1  0  0  0  0
 86168  1  0  0  0  0
 87169  1  0  0  0  0
 90170  1  0  0  0  0
 90171  1  0  0  0  0
 90172  1  0  0  0  0
 91173  1  0  0  0  0
 92174  1  0  0  0  0
 96175  1  0  0  0  0
 99176  1  0  0  0  0
 99177  1  0  0  0  0
100178  1  0  0  0  0
100179  1  0  0  0  0
100180  1  0  0  0  0
103181  1  0  0  0  0
109182  1  0  0  0  0
109183  1  0  0  0  0
110184  1  0  0  0  0
110185  1  0  0  0  0
110186  1  0  0  0  0
M  END
