
  xtb     02062216353D
 energy: -276.970214142491 gnorm: 0.000863988730 xtb: 6.4.1 (unknown)
168180  0     0  0            999 V2000
   -1.3882   -1.8685    7.2794 C   0  0  0  0  0  0  0  0  0  0  0  0
   -2.4870   -1.4424    7.9807 C   0  0  0  0  0  0  0  0  0  0  0  0
   -2.7609   -1.9101    9.2792 C   0  0  0  0  0  0  0  0  0  0  0  0
   -3.0237   -2.3208   10.3183 N   0  0  0  0  0  0  0  0  0  0  0  0
   -3.3620   -0.4455    7.5126 C   0  0  0  0  0  0  0  0  0  0  0  0
   -4.0261    0.4292    7.1751 N   0  0  0  0  0  0  0  0  0  0  0  0
   -1.1308   -1.5911    5.9230 C   0  0  0  0  0  0  0  0  0  0  0  0
   -2.0264   -1.3211    4.8805 C   0  0  0  0  0  0  0  0  0  0  0  0
   -3.3939   -1.4851    4.9140 N   0  0  0  0  0  0  0  0  0  0  0  0
   -4.1728   -0.7253    4.0307 C   0  0  0  0  0  0  0  0  0  0  0  0
   -5.2306   -1.2954    3.3241 C   0  0  0  0  0  0  0  0  0  0  0  0
   -5.9083   -0.5588    2.3785 C   0  0  0  0  0  0  0  0  0  0  0  0
   -5.5505    0.7629    2.1206 C   0  0  0  0  0  0  0  0  0  0  0  0
   -6.4223    1.5838    0.8236 S   0  0  0  0  0  0  0  0  0  0  0  0
   -5.9123    3.3195    0.9977 C   0  0  0  0  0  0  0  0  0  0  0  0
   -4.5393    1.3531    2.8656 C   0  0  0  0  0  0  0  0  0  0  0  0
   -3.8631    0.6157    3.8165 C   0  0  0  0  0  0  0  0  0  0  0  0
   -3.9570   -2.5568    5.6276 C   0  0  0  0  0  0  0  0  0  0  0  0
   -3.3013   -3.7875    5.6865 C   0  0  0  0  0  0  0  0  0  0  0  0
   -3.8326   -4.8218    6.4224 C   0  0  0  0  0  0  0  0  0  0  0  0
   -5.0324   -4.6544    7.1129 C   0  0  0  0  0  0  0  0  0  0  0  0
   -5.6135   -6.0311    8.0457 S   0  0  0  0  0  0  0  0  0  0  0  0
   -6.7920   -5.2804    9.2044 C   0  0  0  0  0  0  0  0  0  0  0  0
   -5.7121   -3.4466    7.0154 C   0  0  0  0  0  0  0  0  0  0  0  0
   -5.1784   -2.4074    6.2787 C   0  0  0  0  0  0  0  0  0  0  0  0
   -1.3295   -1.0294    3.6902 C   0  0  0  0  0  0  0  0  0  0  0  0
   -1.8535   -0.7054    2.0823 S   0  0  0  0  0  0  0  0  0  0  0  0
   -0.1972   -0.7862    1.5012 C   0  0  0  0  0  0  0  0  0  0  0  0
    0.7122   -1.0168    2.5312 C   0  0  0  0  0  0  0  0  0  0  0  0
    2.0956   -1.1108    2.3940 N   0  0  0  0  0  0  0  0  0  0  0  0
    2.8852   -0.3071    3.2225 C   0  0  0  0  0  0  0  0  0  0  0  0
    2.4031    0.9282    3.6585 C   0  0  0  0  0  0  0  0  0  0  0  0
    3.1760    1.7338    4.4640 C   0  0  0  0  0  0  0  0  0  0  0  0
    4.4585    1.3389    4.8334 C   0  0  0  0  0  0  0  0  0  0  0  0
    5.3910    2.4697    5.8199 S   0  0  0  0  0  0  0  0  0  0  0  0
    7.0994    1.8993    5.5939 C   0  0  0  0  0  0  0  0  0  0  0  0
    4.9328    0.0997    4.4260 C   0  0  0  0  0  0  0  0  0  0  0  0
    4.1493   -0.7181    3.6373 C   0  0  0  0  0  0  0  0  0  0  0  0
    2.6409   -1.9448    1.4145 C   0  0  0  0  0  0  0  0  0  0  0  0
    3.8239   -1.6131    0.7549 C   0  0  0  0  0  0  0  0  0  0  0  0
    4.2826   -2.3811   -0.2955 C   0  0  0  0  0  0  0  0  0  0  0  0
    3.5611   -3.4884   -0.7205 C   0  0  0  0  0  0  0  0  0  0  0  0
    4.0123   -4.4786   -2.1123 S   0  0  0  0  0  0  0  0  0  0  0  0
    5.2037   -3.4397   -3.0061 C   0  0  0  0  0  0  0  0  0  0  0  0
    2.4119   -3.8593   -0.0253 C   0  0  0  0  0  0  0  0  0  0  0  0
    1.9625   -3.1039    1.0348 C   0  0  0  0  0  0  0  0  0  0  0  0
    0.0494   -1.1529    3.7710 C   0  0  0  0  0  0  0  0  0  0  0  0
    0.5513   -1.5939    5.3641 S   0  0  0  0  0  0  0  0  0  0  0  0
    0.0468   -0.5252    0.1294 C   0  0  0  0  0  0  0  0  0  0  0  0
   -0.8593   -0.5961   -0.9286 C   0  0  0  0  0  0  0  0  0  0  0  0
   -2.1298   -1.1494   -0.8929 N   0  0  0  0  0  0  0  0  0  0  0  0
   -2.3957   -2.3336   -0.2008 C   0  0  0  0  0  0  0  0  0  0  0  0
   -1.3965   -3.2878   -0.0024 C   0  0  0  0  0  0  0  0  0  0  0  0
   -1.6294   -4.3790    0.8036 C   0  0  0  0  0  0  0  0  0  0  0  0
   -2.8703   -4.5608    1.4131 C   0  0  0  0  0  0  0  0  0  0  0  0
   -3.0183   -5.9380    2.5082 S   0  0  0  0  0  0  0  0  0  0  0  0
   -4.7419   -5.8796    3.0687 C   0  0  0  0  0  0  0  0  0  0  0  0
   -3.8918   -3.6589    1.1490 C   0  0  0  0  0  0  0  0  0  0  0  0
   -3.6550   -2.5545    0.3561 C   0  0  0  0  0  0  0  0  0  0  0  0
   -3.1493   -0.5070   -1.6140 C   0  0  0  0  0  0  0  0  0  0  0  0
   -4.0232   -1.2418   -2.4132 C   0  0  0  0  0  0  0  0  0  0  0  0
   -5.0293   -0.6040   -3.1035 C   0  0  0  0  0  0  0  0  0  0  0  0
   -5.1812    0.7767   -3.0104 C   0  0  0  0  0  0  0  0  0  0  0  0
   -6.4931    1.5134   -3.9379 S   0  0  0  0  0  0  0  0  0  0  0  0
   -6.9146    2.9635   -2.9270 C   0  0  0  0  0  0  0  0  0  0  0  0
   -4.3001    1.5143   -2.2315 C   0  0  0  0  0  0  0  0  0  0  0  0
   -3.2941    0.8749   -1.5357 C   0  0  0  0  0  0  0  0  0  0  0  0
   -0.2908   -0.0695   -2.1089 C   0  0  0  0  0  0  0  0  0  0  0  0
   -0.8580    0.1258   -3.7254 S   0  0  0  0  0  0  0  0  0  0  0  0
    0.7313    0.7196   -4.2471 C   0  0  0  0  0  0  0  0  0  0  0  0
    1.6573    0.7038   -3.2005 C   0  0  0  0  0  0  0  0  0  0  0  0
    3.0119    0.9474   -3.2814 N   0  0  0  0  0  0  0  0  0  0  0  0
    3.6783    1.3925   -2.1252 C   0  0  0  0  0  0  0  0  0  0  0  0
    4.8626    0.7847   -1.7063 C   0  0  0  0  0  0  0  0  0  0  0  0
    5.4722    1.1824   -0.5397 C   0  0  0  0  0  0  0  0  0  0  0  0
    4.9173    2.1950    0.2429 C   0  0  0  0  0  0  0  0  0  0  0  0
    5.7528    2.5598    1.7514 S   0  0  0  0  0  0  0  0  0  0  0  0
    4.8449    3.9728    2.4311 C   0  0  0  0  0  0  0  0  0  0  0  0
    3.7629    2.8318   -0.1906 C   0  0  0  0  0  0  0  0  0  0  0  0
    3.1540    2.4355   -1.3668 C   0  0  0  0  0  0  0  0  0  0  0  0
    3.7812    0.4541   -4.3476 C   0  0  0  0  0  0  0  0  0  0  0  0
    4.9425    1.1275   -4.7216 C   0  0  0  0  0  0  0  0  0  0  0  0
    5.7188    0.6684   -5.7632 C   0  0  0  0  0  0  0  0  0  0  0  0
    5.3300   -0.4623   -6.4725 C   0  0  0  0  0  0  0  0  0  0  0  0
    6.2092   -1.0831   -7.8651 S   0  0  0  0  0  0  0  0  0  0  0  0
    7.2990    0.2947   -8.3182 C   0  0  0  0  0  0  0  0  0  0  0  0
    4.1896   -1.1598   -6.0795 C   0  0  0  0  0  0  0  0  0  0  0  0
    3.4272   -0.7149   -5.0219 C   0  0  0  0  0  0  0  0  0  0  0  0
    1.0324    0.3183   -1.9880 C   0  0  0  0  0  0  0  0  0  0  0  0
    1.6051    0.1153   -0.3729 S   0  0  0  0  0  0  0  0  0  0  0  0
    0.8115    1.1616   -5.5889 C   0  0  0  0  0  0  0  0  0  0  0  0
   -0.2594    1.1364   -6.4708 C   0  0  0  0  0  0  0  0  0  0  0  0
    0.0248    1.6755   -7.7196 C   0  0  0  0  0  0  0  0  0  0  0  0
   -1.0809    1.8201   -9.0661 S   0  0  0  0  0  0  0  0  0  0  0  0
   -2.5817    0.9486   -8.4966 C   0  0  0  0  0  0  0  0  0  0  0  0
   -2.4199   -0.5589   -8.5211 C   0  0  0  0  0  0  0  0  0  0  0  0
    1.3455    2.1334   -7.8300 C   0  0  0  0  0  0  0  0  0  0  0  0
    2.2090    1.8854   -6.3253 S   0  0  0  0  0  0  0  0  0  0  0  0
    1.9076    2.7015   -8.9782 C   0  0  0  0  0  0  0  0  0  0  0  0
    3.2097    3.0786   -9.1835 C   0  0  0  0  0  0  0  0  0  0  0  0
    4.2608    2.9248   -8.2685 C   0  0  0  0  0  0  0  0  0  0  0  0
    5.1784    2.8009   -7.5856 N   0  0  0  0  0  0  0  0  0  0  0  0
    3.5992    3.6471  -10.4132 C   0  0  0  0  0  0  0  0  0  0  0  0
    3.9232    4.1116  -11.4115 N   0  0  0  0  0  0  0  0  0  0  0  0
   -0.6380   -2.4368    7.8155 H   0  0  0  0  0  0  0  0  0  0  0  0
   -5.5071   -2.3217    3.5115 H   0  0  0  0  0  0  0  0  0  0  0  0
   -6.7157   -1.0037    1.8166 H   0  0  0  0  0  0  0  0  0  0  0  0
   -6.5364    3.8856    0.3126 H   0  0  0  0  0  0  0  0  0  0  0  0
   -6.0927    3.6520    2.0153 H   0  0  0  0  0  0  0  0  0  0  0  0
   -4.8671    3.4311    0.7237 H   0  0  0  0  0  0  0  0  0  0  0  0
   -4.2612    2.3832    2.7152 H   0  0  0  0  0  0  0  0  0  0  0  0
   -3.0850    1.0806    4.4023 H   0  0  0  0  0  0  0  0  0  0  0  0
   -2.3756   -3.9315    5.1493 H   0  0  0  0  0  0  0  0  0  0  0  0
   -3.3247   -5.7723    6.4702 H   0  0  0  0  0  0  0  0  0  0  0  0
   -6.3270   -4.4242    9.6838 H   0  0  0  0  0  0  0  0  0  0  0  0
   -7.7066   -5.0002    8.6894 H   0  0  0  0  0  0  0  0  0  0  0  0
   -7.0078   -6.0473    9.9416 H   0  0  0  0  0  0  0  0  0  0  0  0
   -6.6550   -3.2987    7.5160 H   0  0  0  0  0  0  0  0  0  0  0  0
   -5.7018   -1.4655    6.2155 H   0  0  0  0  0  0  0  0  0  0  0  0
    1.4234    1.2612    3.3478 H   0  0  0  0  0  0  0  0  0  0  0  0
    2.8003    2.6866    4.8062 H   0  0  0  0  0  0  0  0  0  0  0  0
    7.7295    2.6853    5.9982 H   0  0  0  0  0  0  0  0  0  0  0  0
    7.2657    0.9788    6.1453 H   0  0  0  0  0  0  0  0  0  0  0  0
    7.2950    1.7689    4.5335 H   0  0  0  0  0  0  0  0  0  0  0  0
    5.9091   -0.2455    4.7246 H   0  0  0  0  0  0  0  0  0  0  0  0
    4.5190   -1.6882    3.3418 H   0  0  0  0  0  0  0  0  0  0  0  0
    4.3660   -0.7247    1.0394 H   0  0  0  0  0  0  0  0  0  0  0  0
    5.1966   -2.0918   -0.7873 H   0  0  0  0  0  0  0  0  0  0  0  0
    5.3793   -3.9417   -3.9525 H   0  0  0  0  0  0  0  0  0  0  0  0
    6.1353   -3.3686   -2.4524 H   0  0  0  0  0  0  0  0  0  0  0  0
    4.7724   -2.4591   -3.1872 H   0  0  0  0  0  0  0  0  0  0  0  0
    1.8747   -4.7440   -0.3321 H   0  0  0  0  0  0  0  0  0  0  0  0
    1.0690   -3.3948    1.5666 H   0  0  0  0  0  0  0  0  0  0  0  0
   -0.4316   -3.1583   -0.4691 H   0  0  0  0  0  0  0  0  0  0  0  0
   -0.8507   -5.1069    0.9747 H   0  0  0  0  0  0  0  0  0  0  0  0
   -5.4121   -5.9789    2.2198 H   0  0  0  0  0  0  0  0  0  0  0  0
   -4.8604   -6.7290    3.7344 H   0  0  0  0  0  0  0  0  0  0  0  0
   -4.9246   -4.9608    3.6190 H   0  0  0  0  0  0  0  0  0  0  0  0
   -4.8741   -3.7904    1.5713 H   0  0  0  0  0  0  0  0  0  0  0  0
   -4.4429   -1.8339    0.1987 H   0  0  0  0  0  0  0  0  0  0  0  0
   -3.9071   -2.3129   -2.4824 H   0  0  0  0  0  0  0  0  0  0  0  0
   -5.7099   -1.1672   -3.7229 H   0  0  0  0  0  0  0  0  0  0  0  0
   -6.9737    2.6551   -1.8877 H   0  0  0  0  0  0  0  0  0  0  0  0
   -6.1836    3.7547   -3.0677 H   0  0  0  0  0  0  0  0  0  0  0  0
   -7.8867    3.2979   -3.2751 H   0  0  0  0  0  0  0  0  0  0  0  0
   -4.3938    2.5864   -2.1606 H   0  0  0  0  0  0  0  0  0  0  0  0
   -2.6142    1.4443   -0.9181 H   0  0  0  0  0  0  0  0  0  0  0  0
    5.2942   -0.0072   -2.2992 H   0  0  0  0  0  0  0  0  0  0  0  0
    6.3825    0.7054   -0.2092 H   0  0  0  0  0  0  0  0  0  0  0  0
    5.3324    4.2119    3.3713 H   0  0  0  0  0  0  0  0  0  0  0  0
    3.8141    3.6883    2.6186 H   0  0  0  0  0  0  0  0  0  0  0  0
    4.9131    4.8161    1.7501 H   0  0  0  0  0  0  0  0  0  0  0  0
    3.3235    3.6358    0.3770 H   0  0  0  0  0  0  0  0  0  0  0  0
    2.2554    2.9347   -1.6987 H   0  0  0  0  0  0  0  0  0  0  0  0
    5.2287    2.0256   -4.1967 H   0  0  0  0  0  0  0  0  0  0  0  0
    6.6100    1.2111   -6.0243 H   0  0  0  0  0  0  0  0  0  0  0  0
    6.7252    1.2179   -8.3214 H   0  0  0  0  0  0  0  0  0  0  0  0
    8.1368    0.3518   -7.6291 H   0  0  0  0  0  0  0  0  0  0  0  0
    7.6590    0.0714   -9.3177 H   0  0  0  0  0  0  0  0  0  0  0  0
    3.9072   -2.0530   -6.6154 H   0  0  0  0  0  0  0  0  0  0  0  0
    2.5479   -1.2668   -4.7227 H   0  0  0  0  0  0  0  0  0  0  0  0
   -1.2121    0.7367   -6.1760 H   0  0  0  0  0  0  0  0  0  0  0  0
   -3.3460    1.2675   -9.2054 H   0  0  0  0  0  0  0  0  0  0  0  0
   -2.8418    1.3260   -7.5089 H   0  0  0  0  0  0  0  0  0  0  0  0
   -3.3454   -1.0303   -8.1967 H   0  0  0  0  0  0  0  0  0  0  0  0
   -1.6176   -0.8801   -7.8607 H   0  0  0  0  0  0  0  0  0  0  0  0
   -2.1906   -0.8969   -9.5290 H   0  0  0  0  0  0  0  0  0  0  0  0
    1.2190    2.8479   -9.8032 H   0  0  0  0  0  0  0  0  0  0  0  0
  1  2  2  0  0  0  0
  2  3  1  0  0  0  0
  3  4  3  0  0  0  0
  2  5  1  0  0  0  0
  5  6  3  0  0  0  0
  1  7  1  0  0  0  0
  7  8  2  0  0  0  0
  8  9  1  0  0  0  0
  9 10  1  0  0  0  0
 10 11  2  0  0  0  0
 11 12  1  0  0  0  0
 12 13  2  0  0  0  0
 13 14  1  0  0  0  0
 14 15  1  0  0  0  0
 13 16  1  0  0  0  0
 16 17  2  0  0  0  0
  9 18  1  0  0  0  0
 18 19  2  0  0  0  0
 19 20  1  0  0  0  0
 20 21  2  0  0  0  0
 21 22  1  0  0  0  0
 22 23  1  0  0  0  0
 21 24  1  0  0  0  0
 24 25  2  0  0  0  0
  8 26  1  0  0  0  0
 26 27  1  0  0  0  0
 27 28  1  0  0  0  0
 28 29  2  0  0  0  0
 29 30  1  0  0  0  0
 30 31  1  0  0  0  0
 31 32  2  0  0  0  0
 32 33  1  0  0  0  0
 33 34  2  0  0  0  0
 34 35  1  0  0  0  0
 35 36  1  0  0  0  0
 34 37  1  0  0  0  0
 37 38  2  0  0  0  0
 30 39  1  0  0  0  0
 39 40  2  0  0  0  0
 40 41  1  0  0  0  0
 41 42  2  0  0  0  0
 42 43  1  0  0  0  0
 43 44  1  0  0  0  0
 42 45  1  0  0  0  0
 45 46  2  0  0  0  0
 29 47  1  0  0  0  0
 47 48  1  0  0  0  0
 28 49  1  0  0  0  0
 49 50  2  0  0  0  0
 50 51  1  0  0  0  0
 51 52  1  0  0  0  0
 52 53  2  0  0  0  0
 53 54  1  0  0  0  0
 54 55  2  0  0  0  0
 55 56  1  0  0  0  0
 56 57  1  0  0  0  0
 55 58  1  0  0  0  0
 58 59  2  0  0  0  0
 51 60  1  0  0  0  0
 60 61  2  0  0  0  0
 61 62  1  0  0  0  0
 62 63  2  0  0  0  0
 63 64  1  0  0  0  0
 64 65  1  0  0  0  0
 63 66  1  0  0  0  0
 66 67  2  0  0  0  0
 50 68  1  0  0  0  0
 68 69  1  0  0  0  0
 69 70  1  0  0  0  0
 70 71  2  0  0  0  0
 71 72  1  0  0  0  0
 72 73  1  0  0  0  0
 73 74  2  0  0  0  0
 74 75  1  0  0  0  0
 75 76  2  0  0  0  0
 76 77  1  0  0  0  0
 77 78  1  0  0  0  0
 76 79  1  0  0  0  0
 79 80  2  0  0  0  0
 72 81  1  0  0  0  0
 81 82  2  0  0  0  0
 82 83  1  0  0  0  0
 83 84  2  0  0  0  0
 84 85  1  0  0  0  0
 85 86  1  0  0  0  0
 84 87  1  0  0  0  0
 87 88  2  0  0  0  0
 71 89  1  0  0  0  0
 89 90  1  0  0  0  0
 70 91  1  0  0  0  0
 91 92  2  0  0  0  0
 92 93  1  0  0  0  0
 93 94  1  0  0  0  0
 94 95  1  0  0  0  0
 95 96  1  0  0  0  0
 93 97  2  0  0  0  0
 97 98  1  0  0  0  0
 97 99  1  0  0  0  0
 99100  2  0  0  0  0
100101  1  0  0  0  0
101102  3  0  0  0  0
100103  1  0  0  0  0
103104  3  0  0  0  0
 48  7  1  0  0  0  0
 90 49  1  0  0  0  0
 98 91  1  0  0  0  0
 17 10  1  0  0  0  0
 25 18  1  0  0  0  0
 47 26  2  0  0  0  0
 59 52  1  0  0  0  0
 67 60  1  0  0  0  0
 89 68  2  0  0  0  0
 38 31  1  0  0  0  0
 46 39  1  0  0  0  0
 80 73  1  0  0  0  0
 88 81  1  0  0  0  0
  1105  1  0  0  0  0
 11106  1  0  0  0  0
 12107  1  0  0  0  0
 15108  1  0  0  0  0
 15109  1  0  0  0  0
 15110  1  0  0  0  0
 16111  1  0  0  0  0
 17112  1  0  0  0  0
 19113  1  0  0  0  0
 20114  1  0  0  0  0
 23115  1  0  0  0  0
 23116  1  0  0  0  0
 23117  1  0  0  0  0
 24118  1  0  0  0  0
 25119  1  0  0  0  0
 32120  1  0  0  0  0
 33121  1  0  0  0  0
 36122  1  0  0  0  0
 36123  1  0  0  0  0
 36124  1  0  0  0  0
 37125  1  0  0  0  0
 38126  1  0  0  0  0
 40127  1  0  0  0  0
 41128  1  0  0  0  0
 44129  1  0  0  0  0
 44130  1  0  0  0  0
 44131  1  0  0  0  0
 45132  1  0  0  0  0
 46133  1  0  0  0  0
 53134  1  0  0  0  0
 54135  1  0  0  0  0
 57136  1  0  0  0  0
 57137  1  0  0  0  0
 57138  1  0  0  0  0
 58139  1  0  0  0  0
 59140  1  0  0  0  0
 61141  1  0  0  0  0
 62142  1  0  0  0  0
 65143  1  0  0  0  0
 65144  1  0  0  0  0
 65145  1  0  0  0  0
 66146  1  0  0  0  0
 67147  1  0  0  0  0
 74148  1  0  0  0  0
 75149  1  0  0  0  0
 78150  1  0  0  0  0
 78151  1  0  0  0  0
 78152  1  0  0  0  0
 79153  1  0  0  0  0
 80154  1  0  0  0  0
 82155  1  0  0  0  0
 83156  1  0  0  0  0
 86157  1  0  0  0  0
 86158  1  0  0  0  0
 86159  1  0  0  0  0
 87160  1  0  0  0  0
 88161  1  0  0  0  0
 92162  1  0  0  0  0
 95163  1  0  0  0  0
 95164  1  0  0  0  0
 96165  1  0  0  0  0
 96166  1  0  0  0  0
 96167  1  0  0  0  0
 99168  1  0  0  0  0
M  END
