170

C         -1.13590        5.39730       -6.11250
C         -2.23220        5.55490       -6.91870
C         -2.15820        6.42770       -8.02320
N         -2.08610        7.14430       -8.91690
C         -3.48600        4.94180       -6.74110
N         -4.53840        4.48970       -6.64700
C         -1.02060        4.55540       -4.99470
C          0.08260        4.45300       -4.13150
N          1.18230        5.27590       -4.14670
C          1.07040        6.64720       -4.45030
C          2.07840        7.28840       -5.16380
C          1.97010        8.63430       -5.45650
C          0.86350        9.37140       -5.05270
C          0.73210       10.81970       -5.40620
C         -0.13410        8.72230       -4.33330
C         -0.03680        7.38010       -4.02960
C          2.42610        4.76140       -3.74070
C          2.82510        3.49270       -4.15580
C          4.04190        2.98280       -3.75290
C          4.89580        3.72010       -2.94020
C          6.20790        3.14550       -2.50330
C          4.49580        4.98950       -2.54270
C          3.27640        5.50860       -2.93170
C         -0.10770        3.40720       -3.20140
S          0.85870        2.72060       -1.94360
C         -0.44380        1.61360       -1.51580
C         -1.53920        1.73130       -2.35630
N         -2.65370        0.92020       -2.33450
C         -2.55700       -0.42840       -1.95900
C         -1.43590       -1.19250       -2.26770
C         -1.36280       -2.51220       -1.86890
C         -2.40010       -3.10930       -1.16570
C         -2.30220       -4.52790       -0.69190
C         -3.53720       -2.35290       -0.90290
C         -3.62070       -1.03060       -1.29180
C         -3.83510        1.35040       -2.97840
C         -4.35140        2.61920       -2.73370
C         -5.46950        3.05710       -3.41620
C         -6.10030        2.24920       -4.35360
C         -7.25290        2.77140       -5.14880
C         -5.59900        0.97010       -4.56300
C         -4.48140        0.52000       -3.88860
C         -1.33710        2.77110       -3.30110
S         -2.30050        3.41820       -4.57490
C         -0.25470        0.71930       -0.40560
C         -1.00420        0.62800        0.75370
N         -2.02200        1.50360        1.09360
C         -3.03770        1.11100        1.97330
C         -3.54940       -0.18270        1.93430
C         -4.54040       -0.57950        2.81200
C         -5.03960        0.31320        3.74830
S         -6.30250       -0.07740        4.91910
C         -6.47370       -1.87980        4.78150
C         -4.53810        1.61320        3.78470
C         -3.54860        2.00770        2.91410
C         -1.90420        2.85320        0.71950
C         -0.66910        3.49340        0.74360
C         -0.53620        4.79730        0.30910
C         -1.64710        5.49130       -0.14660
S         -1.58660        7.13590       -0.78640
C          0.16210        7.59700       -0.63560
C         -2.89810        4.87710       -0.11270
C         -3.02770        3.57420        0.31670
C         -0.50760       -0.39840        1.59780
S         -0.95630       -0.98700        3.15990
C          0.39580       -2.10560        3.14450
C          1.18920       -1.97360        2.01460
N          2.41090       -2.60280        1.82070
C          2.78620       -3.00430        0.53260
C          4.11260       -2.90080        0.12290
C          4.49520       -3.30480       -1.14070
C          3.55230       -3.81840       -2.02100
S          3.91330       -4.37080       -3.65870
C          5.69590       -4.08300       -3.83880
C          2.22400       -3.92350       -1.61380
C          1.84170       -3.52270       -0.35340
C          3.25030       -2.86540        2.91250
C          3.94530       -4.06920        2.99870
C          4.66930       -4.39260        4.13110
C          4.70200       -3.51840        5.20820
S          5.47690       -3.86590        6.75620
C          6.15430       -5.53630        6.55190
C          4.06780       -2.28160        5.09840
C          3.36150       -1.95370        3.96430
C          0.63580       -1.02020        1.12340
S          1.12440       -0.37770       -0.40220
C          0.65740       -2.96950        4.25370
S          0.64350       -2.33400        5.89400
C          1.35860       -3.79520        6.46810
C          1.91330       -4.36030        7.61410
C          2.40460       -5.63770        7.23790
N          2.15640       -5.85200        5.90630
C          2.42550       -7.05650        5.16450
C          1.20960       -7.97980        5.13400
C          1.52450       -4.73690        5.43010
C          1.11300       -4.26460        4.17960
C          3.06520       -6.30610        8.25940
C          3.09160       -5.55790        9.42820
S          2.25550       -4.00890        9.25700
C          3.68930       -5.85030       10.66860
C          4.52000       -6.90110       10.95260
C          4.96690       -7.85090       10.01690
N          5.36570       -8.62170        9.26330
C          5.03170       -7.07570       12.25520
N          5.44350       -7.22520       13.31550
H         -0.25810        5.97330       -6.37870
H          2.94060        6.72590       -5.49140
H          2.75680        9.11720       -6.01740
H          1.70860       11.28140       -5.53100
H          0.18780       10.92120       -6.34570
H          0.17900       11.35800       -4.63970
H         -0.99990        9.27520       -3.99980
H         -0.82270        6.89570       -3.47010
H          2.17970        2.91600       -4.80210
H          4.33820        1.99710       -4.08070
H          6.04300        2.34820       -1.77850
H          6.74110        2.71910       -3.35120
H          6.83300        3.90550       -2.04180
H          5.14430        5.58160       -1.91340
H          2.98010        6.49760       -2.61250
H         -0.62600       -0.75690       -2.83360
H         -0.48430       -3.08490       -2.12300
H         -1.47360       -5.04270       -1.17190
H         -3.22170       -5.07000       -0.90420
H         -2.14380       -4.55280        0.38740
H         -4.36710       -2.80480       -0.37800
H         -4.50690       -0.45110       -1.07860
H         -3.85910        3.26330       -2.02180
H         -5.84740        4.05160       -3.23100
H         -7.92140        3.36210       -4.52610
H         -6.86830        3.41780       -5.93770
H         -7.81450        1.96180       -5.60810
H         -6.07680        0.32150       -5.28280
H         -4.09110       -0.46960       -4.07880
H         -3.17810       -0.88100        1.20090
H         -4.91420       -1.58850        2.74710
H         -6.90290       -2.14500        3.81950
H         -5.50590       -2.35050        4.92730
H         -7.15150       -2.17120        5.57780
H         -4.92780        2.30560        4.51480
H         -3.15660        3.01230        2.96660
H          0.20290        2.96380        1.09790
H          0.44120        5.25070        0.32920
H          0.23980        8.59220       -1.06280
H          0.77960        6.90650       -1.20300
H          0.45060        7.61830        0.41140
H         -3.76370        5.43280       -0.44070
H         -3.99780        3.10060        0.34080
H          4.84840       -2.49760        0.80290
H          5.53030       -3.20770       -1.42550
H          5.91380       -3.02420       -3.73360
H          5.94370       -4.41210       -4.84320
H          6.24460       -4.67500       -3.11190
H          1.50390       -4.33900       -2.30260
H          0.81220       -3.61420       -0.04020
H          3.89910       -4.77010        2.17750
H          5.18400       -5.33940        4.16740
H          6.91180       -5.53960        5.77370
H          6.60570       -5.78950        7.50620
H          5.35560       -6.23780        6.33120
H          4.12720       -1.58760        5.92270
H          2.86810       -0.99600        3.89550
H          2.71040       -6.77330        4.14700
H          3.26840       -7.56830        5.63600
H          0.36470       -7.47490        4.67170
H          1.43730       -8.87640        4.56450
H          0.93050       -8.26940        6.14430
H          1.15320       -4.81800        3.25950
H          3.50230       -7.28380        8.18010
H          3.48260       -5.15680       11.47430
