
  xtb     02142211503D
 energy: -276.034907558382 gnorm: 0.000582614532 xtb: 6.4.1 (unknown)
170184  0     0  0            999 V2000
   -1.1359    5.3973   -6.1125 C   0  0  0  0  0  0  0  0  0  0  0  0
   -2.2322    5.5549   -6.9187 C   0  0  0  0  0  0  0  0  0  0  0  0
   -2.1582    6.4277   -8.0232 C   0  0  0  0  0  0  0  0  0  0  0  0
   -2.0861    7.1443   -8.9169 N   0  0  0  0  0  0  0  0  0  0  0  0
   -3.4860    4.9418   -6.7411 C   0  0  0  0  0  0  0  0  0  0  0  0
   -4.5384    4.4897   -6.6470 N   0  0  0  0  0  0  0  0  0  0  0  0
   -1.0206    4.5554   -4.9947 C   0  0  0  0  0  0  0  0  0  0  0  0
    0.0826    4.4530   -4.1315 C   0  0  0  0  0  0  0  0  0  0  0  0
    1.1823    5.2759   -4.1467 N   0  0  0  0  0  0  0  0  0  0  0  0
    1.0704    6.6472   -4.4503 C   0  0  0  0  0  0  0  0  0  0  0  0
    2.0784    7.2884   -5.1638 C   0  0  0  0  0  0  0  0  0  0  0  0
    1.9701    8.6343   -5.4565 C   0  0  0  0  0  0  0  0  0  0  0  0
    0.8635    9.3714   -5.0527 C   0  0  0  0  0  0  0  0  0  0  0  0
    0.7321   10.8197   -5.4062 C   0  0  0  0  0  0  0  0  0  0  0  0
   -0.1341    8.7223   -4.3333 C   0  0  0  0  0  0  0  0  0  0  0  0
   -0.0368    7.3801   -4.0296 C   0  0  0  0  0  0  0  0  0  0  0  0
    2.4261    4.7614   -3.7407 C   0  0  0  0  0  0  0  0  0  0  0  0
    2.8251    3.4927   -4.1558 C   0  0  0  0  0  0  0  0  0  0  0  0
    4.0419    2.9828   -3.7529 C   0  0  0  0  0  0  0  0  0  0  0  0
    4.8958    3.7201   -2.9402 C   0  0  0  0  0  0  0  0  0  0  0  0
    6.2079    3.1455   -2.5033 C   0  0  0  0  0  0  0  0  0  0  0  0
    4.4958    4.9895   -2.5427 C   0  0  0  0  0  0  0  0  0  0  0  0
    3.2764    5.5086   -2.9317 C   0  0  0  0  0  0  0  0  0  0  0  0
   -0.1077    3.4072   -3.2014 C   0  0  0  0  0  0  0  0  0  0  0  0
    0.8587    2.7206   -1.9436 S   0  0  0  0  0  0  0  0  0  0  0  0
   -0.4438    1.6136   -1.5158 C   0  0  0  0  0  0  0  0  0  0  0  0
   -1.5392    1.7313   -2.3563 C   0  0  0  0  0  0  0  0  0  0  0  0
   -2.6537    0.9202   -2.3345 N   0  0  0  0  0  0  0  0  0  0  0  0
   -2.5570   -0.4284   -1.9590 C   0  0  0  0  0  0  0  0  0  0  0  0
   -1.4359   -1.1925   -2.2677 C   0  0  0  0  0  0  0  0  0  0  0  0
   -1.3628   -2.5122   -1.8689 C   0  0  0  0  0  0  0  0  0  0  0  0
   -2.4001   -3.1093   -1.1657 C   0  0  0  0  0  0  0  0  0  0  0  0
   -2.3022   -4.5279   -0.6919 C   0  0  0  0  0  0  0  0  0  0  0  0
   -3.5372   -2.3529   -0.9029 C   0  0  0  0  0  0  0  0  0  0  0  0
   -3.6207   -1.0306   -1.2918 C   0  0  0  0  0  0  0  0  0  0  0  0
   -3.8351    1.3504   -2.9784 C   0  0  0  0  0  0  0  0  0  0  0  0
   -4.3514    2.6192   -2.7337 C   0  0  0  0  0  0  0  0  0  0  0  0
   -5.4695    3.0571   -3.4162 C   0  0  0  0  0  0  0  0  0  0  0  0
   -6.1003    2.2492   -4.3536 C   0  0  0  0  0  0  0  0  0  0  0  0
   -7.2529    2.7714   -5.1488 C   0  0  0  0  0  0  0  0  0  0  0  0
   -5.5990    0.9701   -4.5630 C   0  0  0  0  0  0  0  0  0  0  0  0
   -4.4814    0.5200   -3.8886 C   0  0  0  0  0  0  0  0  0  0  0  0
   -1.3371    2.7711   -3.3011 C   0  0  0  0  0  0  0  0  0  0  0  0
   -2.3005    3.4182   -4.5749 S   0  0  0  0  0  0  0  0  0  0  0  0
   -0.2547    0.7193   -0.4056 C   0  0  0  0  0  0  0  0  0  0  0  0
   -1.0042    0.6280    0.7537 C   0  0  0  0  0  0  0  0  0  0  0  0
   -2.0220    1.5036    1.0936 N   0  0  0  0  0  0  0  0  0  0  0  0
   -3.0377    1.1110    1.9733 C   0  0  0  0  0  0  0  0  0  0  0  0
   -3.5494   -0.1827    1.9343 C   0  0  0  0  0  0  0  0  0  0  0  0
   -4.5404   -0.5795    2.8120 C   0  0  0  0  0  0  0  0  0  0  0  0
   -5.0396    0.3132    3.7483 C   0  0  0  0  0  0  0  0  0  0  0  0
   -6.3025   -0.0774    4.9191 S   0  0  0  0  0  0  0  0  0  0  0  0
   -6.4737   -1.8798    4.7815 C   0  0  0  0  0  0  0  0  0  0  0  0
   -4.5381    1.6132    3.7847 C   0  0  0  0  0  0  0  0  0  0  0  0
   -3.5486    2.0077    2.9141 C   0  0  0  0  0  0  0  0  0  0  0  0
   -1.9042    2.8532    0.7195 C   0  0  0  0  0  0  0  0  0  0  0  0
   -0.6691    3.4934    0.7436 C   0  0  0  0  0  0  0  0  0  0  0  0
   -0.5362    4.7973    0.3091 C   0  0  0  0  0  0  0  0  0  0  0  0
   -1.6471    5.4913   -0.1466 C   0  0  0  0  0  0  0  0  0  0  0  0
   -1.5866    7.1359   -0.7864 S   0  0  0  0  0  0  0  0  0  0  0  0
    0.1621    7.5970   -0.6356 C   0  0  0  0  0  0  0  0  0  0  0  0
   -2.8981    4.8771   -0.1127 C   0  0  0  0  0  0  0  0  0  0  0  0
   -3.0277    3.5742    0.3167 C   0  0  0  0  0  0  0  0  0  0  0  0
   -0.5076   -0.3984    1.5978 C   0  0  0  0  0  0  0  0  0  0  0  0
   -0.9563   -0.9870    3.1599 S   0  0  0  0  0  0  0  0  0  0  0  0
    0.3958   -2.1056    3.1445 C   0  0  0  0  0  0  0  0  0  0  0  0
    1.1892   -1.9736    2.0146 C   0  0  0  0  0  0  0  0  0  0  0  0
    2.4109   -2.6028    1.8207 N   0  0  0  0  0  0  0  0  0  0  0  0
    2.7862   -3.0043    0.5326 C   0  0  0  0  0  0  0  0  0  0  0  0
    4.1126   -2.9008    0.1229 C   0  0  0  0  0  0  0  0  0  0  0  0
    4.4952   -3.3048   -1.1407 C   0  0  0  0  0  0  0  0  0  0  0  0
    3.5523   -3.8184   -2.0210 C   0  0  0  0  0  0  0  0  0  0  0  0
    3.9133   -4.3708   -3.6587 S   0  0  0  0  0  0  0  0  0  0  0  0
    5.6959   -4.0830   -3.8388 C   0  0  0  0  0  0  0  0  0  0  0  0
    2.2240   -3.9235   -1.6138 C   0  0  0  0  0  0  0  0  0  0  0  0
    1.8417   -3.5227   -0.3534 C   0  0  0  0  0  0  0  0  0  0  0  0
    3.2503   -2.8654    2.9125 C   0  0  0  0  0  0  0  0  0  0  0  0
    3.9453   -4.0692    2.9987 C   0  0  0  0  0  0  0  0  0  0  0  0
    4.6693   -4.3926    4.1311 C   0  0  0  0  0  0  0  0  0  0  0  0
    4.7020   -3.5184    5.2082 C   0  0  0  0  0  0  0  0  0  0  0  0
    5.4769   -3.8659    6.7562 S   0  0  0  0  0  0  0  0  0  0  0  0
    6.1543   -5.5363    6.5519 C   0  0  0  0  0  0  0  0  0  0  0  0
    4.0678   -2.2816    5.0984 C   0  0  0  0  0  0  0  0  0  0  0  0
    3.3615   -1.9537    3.9643 C   0  0  0  0  0  0  0  0  0  0  0  0
    0.6358   -1.0202    1.1234 C   0  0  0  0  0  0  0  0  0  0  0  0
    1.1244   -0.3777   -0.4022 S   0  0  0  0  0  0  0  0  0  0  0  0
    0.6574   -2.9695    4.2537 C   0  0  0  0  0  0  0  0  0  0  0  0
    0.6435   -2.3340    5.8940 S   0  0  0  0  0  0  0  0  0  0  0  0
    1.3586   -3.7952    6.4681 C   0  0  0  0  0  0  0  0  0  0  0  0
    1.9133   -4.3603    7.6141 C   0  0  0  0  0  0  0  0  0  0  0  0
    2.4046   -5.6377    7.2379 C   0  0  0  0  0  0  0  0  0  0  0  0
    2.1564   -5.8520    5.9063 N   0  0  0  0  0  0  0  0  0  0  0  0
    2.4255   -7.0565    5.1645 C   0  0  0  0  0  0  0  0  0  0  0  0
    1.2096   -7.9798    5.1340 C   0  0  0  0  0  0  0  0  0  0  0  0
    1.5245   -4.7369    5.4301 C   0  0  0  0  0  0  0  0  0  0  0  0
    1.1130   -4.2646    4.1796 C   0  0  0  0  0  0  0  0  0  0  0  0
    3.0652   -6.3061    8.2594 C   0  0  0  0  0  0  0  0  0  0  0  0
    3.0916   -5.5579    9.4282 C   0  0  0  0  0  0  0  0  0  0  0  0
    2.2555   -4.0089    9.2570 S   0  0  0  0  0  0  0  0  0  0  0  0
    3.6893   -5.8503   10.6686 C   0  0  0  0  0  0  0  0  0  0  0  0
    4.5200   -6.9011   10.9526 C   0  0  0  0  0  0  0  0  0  0  0  0
    4.9669   -7.8509   10.0169 C   0  0  0  0  0  0  0  0  0  0  0  0
    5.3657   -8.6217    9.2633 N   0  0  0  0  0  0  0  0  0  0  0  0
    5.0317   -7.0757   12.2552 C   0  0  0  0  0  0  0  0  0  0  0  0
    5.4435   -7.2252   13.3155 N   0  0  0  0  0  0  0  0  0  0  0  0
   -0.2581    5.9733   -6.3787 H   0  0  0  0  0  0  0  0  0  0  0  0
    2.9406    6.7259   -5.4914 H   0  0  0  0  0  0  0  0  0  0  0  0
    2.7568    9.1172   -6.0174 H   0  0  0  0  0  0  0  0  0  0  0  0
    1.7086   11.2814   -5.5310 H   0  0  0  0  0  0  0  0  0  0  0  0
    0.1878   10.9212   -6.3457 H   0  0  0  0  0  0  0  0  0  0  0  0
    0.1790   11.3580   -4.6397 H   0  0  0  0  0  0  0  0  0  0  0  0
   -0.9999    9.2752   -3.9998 H   0  0  0  0  0  0  0  0  0  0  0  0
   -0.8227    6.8957   -3.4701 H   0  0  0  0  0  0  0  0  0  0  0  0
    2.1797    2.9160   -4.8021 H   0  0  0  0  0  0  0  0  0  0  0  0
    4.3382    1.9971   -4.0807 H   0  0  0  0  0  0  0  0  0  0  0  0
    6.0430    2.3482   -1.7785 H   0  0  0  0  0  0  0  0  0  0  0  0
    6.7411    2.7191   -3.3512 H   0  0  0  0  0  0  0  0  0  0  0  0
    6.8330    3.9055   -2.0418 H   0  0  0  0  0  0  0  0  0  0  0  0
    5.1443    5.5816   -1.9134 H   0  0  0  0  0  0  0  0  0  0  0  0
    2.9801    6.4976   -2.6125 H   0  0  0  0  0  0  0  0  0  0  0  0
   -0.6260   -0.7569   -2.8336 H   0  0  0  0  0  0  0  0  0  0  0  0
   -0.4843   -3.0849   -2.1230 H   0  0  0  0  0  0  0  0  0  0  0  0
   -1.4736   -5.0427   -1.1719 H   0  0  0  0  0  0  0  0  0  0  0  0
   -3.2217   -5.0700   -0.9042 H   0  0  0  0  0  0  0  0  0  0  0  0
   -2.1438   -4.5528    0.3874 H   0  0  0  0  0  0  0  0  0  0  0  0
   -4.3671   -2.8048   -0.3780 H   0  0  0  0  0  0  0  0  0  0  0  0
   -4.5069   -0.4511   -1.0786 H   0  0  0  0  0  0  0  0  0  0  0  0
   -3.8591    3.2633   -2.0218 H   0  0  0  0  0  0  0  0  0  0  0  0
   -5.8474    4.0516   -3.2310 H   0  0  0  0  0  0  0  0  0  0  0  0
   -7.9214    3.3621   -4.5261 H   0  0  0  0  0  0  0  0  0  0  0  0
   -6.8683    3.4178   -5.9377 H   0  0  0  0  0  0  0  0  0  0  0  0
   -7.8145    1.9618   -5.6081 H   0  0  0  0  0  0  0  0  0  0  0  0
   -6.0768    0.3215   -5.2828 H   0  0  0  0  0  0  0  0  0  0  0  0
   -4.0911   -0.4696   -4.0788 H   0  0  0  0  0  0  0  0  0  0  0  0
   -3.1781   -0.8810    1.2009 H   0  0  0  0  0  0  0  0  0  0  0  0
   -4.9142   -1.5885    2.7471 H   0  0  0  0  0  0  0  0  0  0  0  0
   -6.9029   -2.1450    3.8195 H   0  0  0  0  0  0  0  0  0  0  0  0
   -5.5059   -2.3505    4.9273 H   0  0  0  0  0  0  0  0  0  0  0  0
   -7.1515   -2.1712    5.5778 H   0  0  0  0  0  0  0  0  0  0  0  0
   -4.9278    2.3056    4.5148 H   0  0  0  0  0  0  0  0  0  0  0  0
   -3.1566    3.0123    2.9666 H   0  0  0  0  0  0  0  0  0  0  0  0
    0.2029    2.9638    1.0979 H   0  0  0  0  0  0  0  0  0  0  0  0
    0.4412    5.2507    0.3292 H   0  0  0  0  0  0  0  0  0  0  0  0
    0.2398    8.5922   -1.0628 H   0  0  0  0  0  0  0  0  0  0  0  0
    0.7796    6.9065   -1.2030 H   0  0  0  0  0  0  0  0  0  0  0  0
    0.4506    7.6183    0.4114 H   0  0  0  0  0  0  0  0  0  0  0  0
   -3.7637    5.4328   -0.4407 H   0  0  0  0  0  0  0  0  0  0  0  0
   -3.9978    3.1006    0.3408 H   0  0  0  0  0  0  0  0  0  0  0  0
    4.8484   -2.4976    0.8029 H   0  0  0  0  0  0  0  0  0  0  0  0
    5.5303   -3.2077   -1.4255 H   0  0  0  0  0  0  0  0  0  0  0  0
    5.9138   -3.0242   -3.7336 H   0  0  0  0  0  0  0  0  0  0  0  0
    5.9437   -4.4121   -4.8432 H   0  0  0  0  0  0  0  0  0  0  0  0
    6.2446   -4.6750   -3.1119 H   0  0  0  0  0  0  0  0  0  0  0  0
    1.5039   -4.3390   -2.3026 H   0  0  0  0  0  0  0  0  0  0  0  0
    0.8122   -3.6142   -0.0402 H   0  0  0  0  0  0  0  0  0  0  0  0
    3.8991   -4.7701    2.1775 H   0  0  0  0  0  0  0  0  0  0  0  0
    5.1840   -5.3394    4.1674 H   0  0  0  0  0  0  0  0  0  0  0  0
    6.9118   -5.5396    5.7737 H   0  0  0  0  0  0  0  0  0  0  0  0
    6.6057   -5.7895    7.5062 H   0  0  0  0  0  0  0  0  0  0  0  0
    5.3556   -6.2378    6.3312 H   0  0  0  0  0  0  0  0  0  0  0  0
    4.1272   -1.5876    5.9227 H   0  0  0  0  0  0  0  0  0  0  0  0
    2.8681   -0.9960    3.8955 H   0  0  0  0  0  0  0  0  0  0  0  0
    2.7104   -6.7733    4.1470 H   0  0  0  0  0  0  0  0  0  0  0  0
    3.2684   -7.5683    5.6360 H   0  0  0  0  0  0  0  0  0  0  0  0
    0.3647   -7.4749    4.6717 H   0  0  0  0  0  0  0  0  0  0  0  0
    1.4373   -8.8764    4.5645 H   0  0  0  0  0  0  0  0  0  0  0  0
    0.9305   -8.2694    6.1443 H   0  0  0  0  0  0  0  0  0  0  0  0
    1.1532   -4.8180    3.2595 H   0  0  0  0  0  0  0  0  0  0  0  0
    3.5023   -7.2838    8.1801 H   0  0  0  0  0  0  0  0  0  0  0  0
    3.4826   -5.1568   11.4743 H   0  0  0  0  0  0  0  0  0  0  0  0
  1  2  2  0  0  0  0
  2  3  1  0  0  0  0
  3  4  3  0  0  0  0
  2  5  1  0  0  0  0
  5  6  3  0  0  0  0
  1  7  1  0  0  0  0
  7  8  2  0  0  0  0
  8  9  1  0  0  0  0
  9 10  1  0  0  0  0
 10 11  2  0  0  0  0
 11 12  1  0  0  0  0
 12 13  2  0  0  0  0
 13 14  1  0  0  0  0
 13 15  1  0  0  0  0
 15 16  2  0  0  0  0
  9 17  1  0  0  0  0
 17 18  2  0  0  0  0
 18 19  1  0  0  0  0
 19 20  2  0  0  0  0
 20 21  1  0  0  0  0
 20 22  1  0  0  0  0
 22 23  2  0  0  0  0
  8 24  1  0  0  0  0
 24 25  1  0  0  0  0
 25 26  1  0  0  0  0
 26 27  2  0  0  0  0
 27 28  1  0  0  0  0
 28 29  1  0  0  0  0
 29 30  2  0  0  0  0
 30 31  1  0  0  0  0
 31 32  2  0  0  0  0
 32 33  1  0  0  0  0
 32 34  1  0  0  0  0
 34 35  2  0  0  0  0
 28 36  1  0  0  0  0
 36 37  2  0  0  0  0
 37 38  1  0  0  0  0
 38 39  2  0  0  0  0
 39 40  1  0  0  0  0
 39 41  1  0  0  0  0
 41 42  2  0  0  0  0
 27 43  1  0  0  0  0
 43 44  1  0  0  0  0
 26 45  1  0  0  0  0
 45 46  2  0  0  0  0
 46 47  1  0  0  0  0
 47 48  1  0  0  0  0
 48 49  2  0  0  0  0
 49 50  1  0  0  0  0
 50 51  2  0  0  0  0
 51 52  1  0  0  0  0
 52 53  1  0  0  0  0
 51 54  1  0  0  0  0
 54 55  2  0  0  0  0
 47 56  1  0  0  0  0
 56 57  2  0  0  0  0
 57 58  1  0  0  0  0
 58 59  2  0  0  0  0
 59 60  1  0  0  0  0
 60 61  1  0  0  0  0
 59 62  1  0  0  0  0
 62 63  2  0  0  0  0
 46 64  1  0  0  0  0
 64 65  1  0  0  0  0
 65 66  1  0  0  0  0
 66 67  2  0  0  0  0
 67 68  1  0  0  0  0
 68 69  1  0  0  0  0
 69 70  2  0  0  0  0
 70 71  1  0  0  0  0
 71 72  2  0  0  0  0
 72 73  1  0  0  0  0
 73 74  1  0  0  0  0
 72 75  1  0  0  0  0
 75 76  2  0  0  0  0
 68 77  1  0  0  0  0
 77 78  2  0  0  0  0
 78 79  1  0  0  0  0
 79 80  2  0  0  0  0
 80 81  1  0  0  0  0
 81 82  1  0  0  0  0
 80 83  1  0  0  0  0
 83 84  2  0  0  0  0
 67 85  1  0  0  0  0
 85 86  1  0  0  0  0
 66 87  1  0  0  0  0
 87 88  1  0  0  0  0
 88 89  1  0  0  0  0
 89 90  1  0  0  0  0
 90 91  2  0  0  0  0
 91 92  1  0  0  0  0
 92 93  1  0  0  0  0
 93 94  1  0  0  0  0
 92 95  1  0  0  0  0
 95 96  1  0  0  0  0
 91 97  1  0  0  0  0
 97 98  2  0  0  0  0
 98 99  1  0  0  0  0
 98100  1  0  0  0  0
100101  2  0  0  0  0
101102  1  0  0  0  0
102103  3  0  0  0  0
101104  1  0  0  0  0
104105  3  0  0  0  0
 44  7  1  0  0  0  0
 86 45  1  0  0  0  0
 96 87  2  0  0  0  0
 16 10  1  0  0  0  0
 23 17  1  0  0  0  0
 43 24  2  0  0  0  0
 55 48  1  0  0  0  0
 63 56  1  0  0  0  0
 85 64  2  0  0  0  0
 95 89  2  0  0  0  0
 35 29  1  0  0  0  0
 42 36  1  0  0  0  0
 76 69  1  0  0  0  0
 84 77  1  0  0  0  0
 99 90  1  0  0  0  0
  1106  1  0  0  0  0
 11107  1  0  0  0  0
 12108  1  0  0  0  0
 14109  1  0  0  0  0
 14110  1  0  0  0  0
 14111  1  0  0  0  0
 15112  1  0  0  0  0
 16113  1  0  0  0  0
 18114  1  0  0  0  0
 19115  1  0  0  0  0
 21116  1  0  0  0  0
 21117  1  0  0  0  0
 21118  1  0  0  0  0
 22119  1  0  0  0  0
 23120  1  0  0  0  0
 30121  1  0  0  0  0
 31122  1  0  0  0  0
 33123  1  0  0  0  0
 33124  1  0  0  0  0
 33125  1  0  0  0  0
 34126  1  0  0  0  0
 35127  1  0  0  0  0
 37128  1  0  0  0  0
 38129  1  0  0  0  0
 40130  1  0  0  0  0
 40131  1  0  0  0  0
 40132  1  0  0  0  0
 41133  1  0  0  0  0
 42134  1  0  0  0  0
 49135  1  0  0  0  0
 50136  1  0  0  0  0
 53137  1  0  0  0  0
 53138  1  0  0  0  0
 53139  1  0  0  0  0
 54140  1  0  0  0  0
 55141  1  0  0  0  0
 57142  1  0  0  0  0
 58143  1  0  0  0  0
 61144  1  0  0  0  0
 61145  1  0  0  0  0
 61146  1  0  0  0  0
 62147  1  0  0  0  0
 63148  1  0  0  0  0
 70149  1  0  0  0  0
 71150  1  0  0  0  0
 74151  1  0  0  0  0
 74152  1  0  0  0  0
 74153  1  0  0  0  0
 75154  1  0  0  0  0
 76155  1  0  0  0  0
 78156  1  0  0  0  0
 79157  1  0  0  0  0
 82158  1  0  0  0  0
 82159  1  0  0  0  0
 82160  1  0  0  0  0
 83161  1  0  0  0  0
 84162  1  0  0  0  0
 93163  1  0  0  0  0
 93164  1  0  0  0  0
 94165  1  0  0  0  0
 94166  1  0  0  0  0
 94167  1  0  0  0  0
 96168  1  0  0  0  0
 97169  1  0  0  0  0
100170  1  0  0  0  0
M  END
