
  xtb     02042207183D
 energy: -238.955687495849 gnorm: 0.000327535180 xtb: 6.4.1 (unknown)
137151  0     0  0            999 V2000
    5.7718   -8.5548   -0.4817 C   0  0  0  0  0  0  0  0  0  0  0  0
    7.0294   -9.0775   -0.3921 C   0  0  0  0  0  0  0  0  0  0  0  0
    8.2284   -8.3665   -0.6035 C   0  0  0  0  0  0  0  0  0  0  0  0
    9.2264   -7.8283   -0.7787 N   0  0  0  0  0  0  0  0  0  0  0  0
    7.2020  -10.4302   -0.0273 C   0  0  0  0  0  0  0  0  0  0  0  0
    7.3256  -11.5256    0.2892 N   0  0  0  0  0  0  0  0  0  0  0  0
    5.4390   -7.2077   -0.7502 C   0  0  0  0  0  0  0  0  0  0  0  0
    6.2249   -6.1518   -1.1592 C   0  0  0  0  0  0  0  0  0  0  0  0
    5.5359   -4.9365   -1.2096 C   0  0  0  0  0  0  0  0  0  0  0  0
    6.3056   -3.4569   -1.7736 S   0  0  0  0  0  0  0  0  0  0  0  0
    5.0550   -2.8443   -2.9767 C   0  0  0  0  0  0  0  0  0  0  0  0
    5.6782   -1.7450   -3.8134 C   0  0  0  0  0  0  0  0  0  0  0  0
    4.2141   -5.0306   -0.7971 C   0  0  0  0  0  0  0  0  0  0  0  0
    3.7898   -6.6834   -0.4801 S   0  0  0  0  0  0  0  0  0  0  0  0
    3.3280   -3.9544   -0.4970 C   0  0  0  0  0  0  0  0  0  0  0  0
    3.6473   -2.8321    0.2637 C   0  0  0  0  0  0  0  0  0  0  0  0
    4.8319   -2.6568    0.9458 N   0  0  0  0  0  0  0  0  0  0  0  0
    5.4980   -3.7727    1.4826 C   0  0  0  0  0  0  0  0  0  0  0  0
    6.8835   -3.8978    1.3759 C   0  0  0  0  0  0  0  0  0  0  0  0
    7.5077   -5.0523    1.7920 C   0  0  0  0  0  0  0  0  0  0  0  0
    6.7686   -6.1031    2.3339 C   0  0  0  0  0  0  0  0  0  0  0  0
    7.6611   -7.5726    2.7312 S   0  0  0  0  0  0  0  0  0  0  0  0
    6.3711   -8.7457    3.2398 C   0  0  0  0  0  0  0  0  0  0  0  0
    5.4005   -5.9503    2.5136 C   0  0  0  0  0  0  0  0  0  0  0  0
    4.7741   -4.7946    2.0895 C   0  0  0  0  0  0  0  0  0  0  0  0
    5.3576   -1.3703    1.1208 C   0  0  0  0  0  0  0  0  0  0  0  0
    6.0284   -1.0406    2.2945 C   0  0  0  0  0  0  0  0  0  0  0  0
    6.5568    0.2221    2.4739 C   0  0  0  0  0  0  0  0  0  0  0  0
    6.4177    1.1832    1.4810 C   0  0  0  0  0  0  0  0  0  0  0  0
    7.0462    2.8265    1.5925 S   0  0  0  0  0  0  0  0  0  0  0  0
    7.8906    2.8673    3.1990 C   0  0  0  0  0  0  0  0  0  0  0  0
    5.7450    0.8568    0.3048 C   0  0  0  0  0  0  0  0  0  0  0  0
    5.2248   -0.4040    0.1235 C   0  0  0  0  0  0  0  0  0  0  0  0
    2.5496   -1.9379    0.3185 C   0  0  0  0  0  0  0  0  0  0  0  0
    2.2739   -0.4293    1.1191 S   0  0  0  0  0  0  0  0  0  0  0  0
    0.6446   -0.3751    0.4750 C   0  0  0  0  0  0  0  0  0  0  0  0
    0.2972   -1.5344   -0.2255 C   0  0  0  0  0  0  0  0  0  0  0  0
   -0.9693   -1.8893   -0.6322 N   0  0  0  0  0  0  0  0  0  0  0  0
   -1.1101   -2.6948   -1.7716 C   0  0  0  0  0  0  0  0  0  0  0  0
   -2.0475   -3.7230   -1.7963 C   0  0  0  0  0  0  0  0  0  0  0  0
   -2.1728   -4.5327   -2.9076 C   0  0  0  0  0  0  0  0  0  0  0  0
   -1.3571   -4.3273   -4.0137 C   0  0  0  0  0  0  0  0  0  0  0  0
   -1.4088   -5.3020   -5.4803 S   0  0  0  0  0  0  0  0  0  0  0  0
   -2.6964   -6.5372   -5.1480 C   0  0  0  0  0  0  0  0  0  0  0  0
   -0.4286   -3.2865   -3.9970 C   0  0  0  0  0  0  0  0  0  0  0  0
   -0.3069   -2.4764   -2.8919 C   0  0  0  0  0  0  0  0  0  0  0  0
   -2.1087   -1.4131    0.0287 C   0  0  0  0  0  0  0  0  0  0  0  0
   -2.1197   -1.2453    1.4122 C   0  0  0  0  0  0  0  0  0  0  0  0
   -3.1820   -0.6288    2.0426 C   0  0  0  0  0  0  0  0  0  0  0  0
   -4.2650   -0.1708    1.2997 C   0  0  0  0  0  0  0  0  0  0  0  0
   -5.6109    0.7537    1.9546 S   0  0  0  0  0  0  0  0  0  0  0  0
   -5.1688    1.0252    3.6917 C   0  0  0  0  0  0  0  0  0  0  0  0
   -4.3040   -0.4359   -0.0698 C   0  0  0  0  0  0  0  0  0  0  0  0
   -3.2467   -1.0545   -0.6965 C   0  0  0  0  0  0  0  0  0  0  0  0
    1.4145   -2.3961   -0.3344 C   0  0  0  0  0  0  0  0  0  0  0  0
    1.6543   -3.9611   -1.0360 S   0  0  0  0  0  0  0  0  0  0  0  0
   -0.1743    0.7548    0.7477 C   0  0  0  0  0  0  0  0  0  0  0  0
   -1.1267    1.2616   -0.1593 C   0  0  0  0  0  0  0  0  0  0  0  0
   -2.1290    2.2380    0.2148 C   0  0  0  0  0  0  0  0  0  0  0  0
   -2.9320    2.5193   -0.8127 N   0  0  0  0  0  0  0  0  0  0  0  0
   -2.4379    1.7183   -2.1133 S   0  0  0  0  0  4  0  0  0  0  0  0
   -1.2201    0.9197   -1.4465 N   0  0  0  0  0  0  0  0  0  0  0  0
   -2.2229    2.7555    1.5261 C   0  0  0  0  0  0  0  0  0  0  0  0
   -1.1848    2.3350    2.3911 C   0  0  0  0  0  0  0  0  0  0  0  0
   -1.0355    2.7176    3.6598 N   0  0  0  0  0  0  0  0  0  0  0  0
    0.2673    2.0094    4.2778 S   0  0  0  0  0  0  0  0  0  0  0  0
    0.7017    1.1537    2.9911 N   0  0  0  0  0  0  0  0  0  0  0  0
   -0.1523    1.4035    1.9973 C   0  0  0  0  0  0  0  0  0  0  0  0
   -3.2904    3.5200    2.0541 C   0  0  0  0  0  0  0  0  0  0  0  0
   -4.2942    4.2087    1.4393 C   0  0  0  0  0  0  0  0  0  0  0  0
   -5.5707    4.4278    2.1709 C   0  0  0  0  0  0  0  0  0  0  0  0
   -5.7797    4.2192    3.3473 O   0  0  0  0  0  0  0  0  0  0  0  0
   -6.5350    4.8758    1.1494 C   0  0  0  0  0  0  0  0  0  0  0  0
   -7.8981    5.1067    1.3187 C   0  0  0  0  0  0  0  0  0  0  0  0
   -8.5431    5.5154    0.1762 C   0  0  0  0  0  0  0  0  0  0  0  0
   -7.8864    5.6710   -1.0518 C   0  0  0  0  0  0  0  0  0  0  0  0
   -6.5426    5.4445   -1.2348 C   0  0  0  0  0  0  0  0  0  0  0  0
   -5.8665    5.0413   -0.0819 C   0  0  0  0  0  0  0  0  0  0  0  0
   -4.4482    4.7533    0.1162 C   0  0  0  0  0  0  0  0  0  0  0  0
   -3.4246    5.1560   -0.7034 C   0  0  0  0  0  0  0  0  0  0  0  0
   -3.6019    5.7515   -1.9659 C   0  0  0  0  0  0  0  0  0  0  0  0
   -3.6812    6.2238   -3.0101 N   0  0  0  0  0  0  0  0  0  0  0  0
   -2.0670    5.0719   -0.3364 C   0  0  0  0  0  0  0  0  0  0  0  0
   -0.9515    5.0454   -0.0650 N   0  0  0  0  0  0  0  0  0  0  0  0
   -9.1436    6.1113   -1.7590 C   0  0  0  0  0  0  0  0  0  0  0  0
   -9.3090    7.6228   -2.0533 C   0  0  0  0  0  0  0  0  0  0  0  0
   -8.5019    8.3536   -1.0089 C   0  0  0  0  0  0  0  0  0  0  0  0
   -9.1224    8.2113    0.1546 C   0  0  0  0  0  0  0  0  0  0  0  0
  -10.3600    7.3813   -0.0820 C   0  0  0  0  0  0  0  0  0  0  0  0
  -10.7269    7.8417   -1.5018 C   0  0  0  0  0  0  0  0  0  0  0  0
   -9.8745    5.9429   -0.3897 C   0  0  0  0  0  0  0  0  0  0  0  0
    4.9415   -9.2206   -0.2766 H   0  0  0  0  0  0  0  0  0  0  0  0
    7.2625   -6.2400   -1.4219 H   0  0  0  0  0  0  0  0  0  0  0  0
    4.1916   -2.4772   -2.4226 H   0  0  0  0  0  0  0  0  0  0  0  0
    4.7571   -3.6943   -3.5899 H   0  0  0  0  0  0  0  0  0  0  0  0
    6.5404   -2.1236   -4.3566 H   0  0  0  0  0  0  0  0  0  0  0  0
    4.9502   -1.3684   -4.5287 H   0  0  0  0  0  0  0  0  0  0  0  0
    6.0057   -0.9236   -3.1798 H   0  0  0  0  0  0  0  0  0  0  0  0
    7.4578   -3.1007    0.9303 H   0  0  0  0  0  0  0  0  0  0  0  0
    8.5735   -5.1687    1.6738 H   0  0  0  0  0  0  0  0  0  0  0  0
    6.8790   -9.6963    3.3715 H   0  0  0  0  0  0  0  0  0  0  0  0
    5.6208   -8.8367    2.4595 H   0  0  0  0  0  0  0  0  0  0  0  0
    5.9264   -8.4309    4.1793 H   0  0  0  0  0  0  0  0  0  0  0  0
    4.8067   -6.7241    2.9726 H   0  0  0  0  0  0  0  0  0  0  0  0
    3.7060   -4.6917    2.2159 H   0  0  0  0  0  0  0  0  0  0  0  0
    6.1337   -1.7802    3.0742 H   0  0  0  0  0  0  0  0  0  0  0  0
    7.0676    0.4431    3.3968 H   0  0  0  0  0  0  0  0  0  0  0  0
    7.1757    2.7034    3.9999 H   0  0  0  0  0  0  0  0  0  0  0  0
    8.6863    2.1283    3.2194 H   0  0  0  0  0  0  0  0  0  0  0  0
    8.3121    3.8643    3.2807 H   0  0  0  0  0  0  0  0  0  0  0  0
    5.6446    1.6048   -0.4665 H   0  0  0  0  0  0  0  0  0  0  0  0
    4.7228   -0.6486   -0.7996 H   0  0  0  0  0  0  0  0  0  0  0  0
   -2.6763   -3.8915   -0.9345 H   0  0  0  0  0  0  0  0  0  0  0  0
   -2.9037   -5.3246   -2.8931 H   0  0  0  0  0  0  0  0  0  0  0  0
   -3.6523   -6.0462   -4.9907 H   0  0  0  0  0  0  0  0  0  0  0  0
   -2.4162   -7.1451   -4.2928 H   0  0  0  0  0  0  0  0  0  0  0  0
   -2.7431   -7.1552   -6.0392 H   0  0  0  0  0  0  0  0  0  0  0  0
    0.1886   -3.1216   -4.8666 H   0  0  0  0  0  0  0  0  0  0  0  0
    0.3954   -1.6568   -2.8885 H   0  0  0  0  0  0  0  0  0  0  0  0
   -1.2777   -1.5825    1.9987 H   0  0  0  0  0  0  0  0  0  0  0  0
   -3.1525   -0.5080    3.1136 H   0  0  0  0  0  0  0  0  0  0  0  0
   -5.8343    1.8087    4.0427 H   0  0  0  0  0  0  0  0  0  0  0  0
   -4.1424    1.3697    3.7600 H   0  0  0  0  0  0  0  0  0  0  0  0
   -5.3216    0.1131    4.2618 H   0  0  0  0  0  0  0  0  0  0  0  0
   -5.1644   -0.1176   -0.6380 H   0  0  0  0  0  0  0  0  0  0  0  0
   -3.2710   -1.2213   -1.7632 H   0  0  0  0  0  0  0  0  0  0  0  0
   -3.3724    3.4770    3.1367 H   0  0  0  0  0  0  0  0  0  0  0  0
   -8.3694    4.9722    2.2798 H   0  0  0  0  0  0  0  0  0  0  0  0
   -6.0467    5.5585   -2.1848 H   0  0  0  0  0  0  0  0  0  0  0  0
   -9.4684    5.4885   -2.5903 H   0  0  0  0  0  0  0  0  0  0  0  0
   -9.1237    7.9045   -3.0863 H   0  0  0  0  0  0  0  0  0  0  0  0
   -7.5616    8.8337   -1.2073 H   0  0  0  0  0  0  0  0  0  0  0  0
   -8.8041    8.5493    1.1233 H   0  0  0  0  0  0  0  0  0  0  0  0
  -11.1329    7.4437    0.6797 H   0  0  0  0  0  0  0  0  0  0  0  0
  -11.0372    8.8849   -1.5394 H   0  0  0  0  0  0  0  0  0  0  0  0
  -11.4799    7.2164   -1.9798 H   0  0  0  0  0  0  0  0  0  0  0  0
  -10.6783    5.2117   -0.3272 H   0  0  0  0  0  0  0  0  0  0  0  0
  1  2  2  0  0  0  0
  2  3  1  0  0  0  0
  3  4  3  0  0  0  0
  2  5  1  0  0  0  0
  5  6  3  0  0  0  0
  1  7  1  0  0  0  0
  7  8  2  0  0  0  0
  8  9  1  0  0  0  0
  9 10  1  0  0  0  0
 10 11  1  0  0  0  0
 11 12  1  0  0  0  0
  9 13  2  0  0  0  0
 13 14  1  0  0  0  0
 13 15  1  0  0  0  0
 15 16  2  0  0  0  0
 16 17  1  0  0  0  0
 17 18  1  0  0  0  0
 18 19  2  0  0  0  0
 19 20  1  0  0  0  0
 20 21  2  0  0  0  0
 21 22  1  0  0  0  0
 22 23  1  0  0  0  0
 21 24  1  0  0  0  0
 24 25  2  0  0  0  0
 17 26  1  0  0  0  0
 26 27  2  0  0  0  0
 27 28  1  0  0  0  0
 28 29  2  0  0  0  0
 29 30  1  0  0  0  0
 30 31  1  0  0  0  0
 29 32  1  0  0  0  0
 32 33  2  0  0  0  0
 16 34  1  0  0  0  0
 34 35  1  0  0  0  0
 35 36  1  0  0  0  0
 36 37  2  0  0  0  0
 37 38  1  0  0  0  0
 38 39  1  0  0  0  0
 39 40  2  0  0  0  0
 40 41  1  0  0  0  0
 41 42  2  0  0  0  0
 42 43  1  0  0  0  0
 43 44  1  0  0  0  0
 42 45  1  0  0  0  0
 45 46  2  0  0  0  0
 38 47  1  0  0  0  0
 47 48  2  0  0  0  0
 48 49  1  0  0  0  0
 49 50  2  0  0  0  0
 50 51  1  0  0  0  0
 51 52  1  0  0  0  0
 50 53  1  0  0  0  0
 53 54  2  0  0  0  0
 37 55  1  0  0  0  0
 55 56  1  0  0  0  0
 36 57  1  0  0  0  0
 57 58  2  0  0  0  0
 58 59  1  0  0  0  0
 59 60  1  0  0  0  0
 60 61  2  0  0  0  0
 61 62  2  0  0  0  0
 59 63  2  0  0  0  0
 63 64  1  0  0  0  0
 64 65  2  0  0  0  0
 65 66  1  0  0  0  0
 66 67  1  0  0  0  0
 67 68  2  0  0  0  0
 63 69  1  0  0  0  0
 69 70  2  0  0  0  0
 70 71  1  0  0  0  0
 71 72  2  0  0  0  0
 71 73  1  0  0  0  0
 73 74  2  0  0  0  0
 74 75  1  0  0  0  0
 75 76  2  0  0  0  0
 76 77  1  0  0  0  0
 77 78  2  0  0  0  0
 78 79  1  0  0  0  0
 79 80  2  0  0  0  0
 80 81  1  0  0  0  0
 81 82  3  0  0  0  0
 80 83  1  0  0  0  0
 83 84  3  0  0  0  0
 76 85  1  0  0  0  0
 85 86  1  0  0  0  0
 86 87  1  0  0  0  0
 87 88  2  0  0  0  0
 88 89  1  0  0  0  0
 89 90  1  0  0  0  0
 89 91  1  0  0  0  0
 14  7  1  0  0  0  0
 56 15  1  0  0  0  0
 68 57  1  0  0  0  0
 79 70  1  0  0  0  0
 91 85  1  0  0  0  0
 25 18  1  0  0  0  0
 33 26  1  0  0  0  0
 55 34  2  0  0  0  0
 62 58  1  0  0  0  0
 68 64  1  0  0  0  0
 78 73  1  0  0  0  0
 90 86  1  0  0  0  0
 46 39  1  0  0  0  0
 54 47  1  0  0  0  0
 91 75  1  0  0  0  0
  1 92  1  0  0  0  0
  8 93  1  0  0  0  0
 11 94  1  0  0  0  0
 11 95  1  0  0  0  0
 12 96  1  0  0  0  0
 12 97  1  0  0  0  0
 12 98  1  0  0  0  0
 19 99  1  0  0  0  0
 20100  1  0  0  0  0
 23101  1  0  0  0  0
 23102  1  0  0  0  0
 23103  1  0  0  0  0
 24104  1  0  0  0  0
 25105  1  0  0  0  0
 27106  1  0  0  0  0
 28107  1  0  0  0  0
 31108  1  0  0  0  0
 31109  1  0  0  0  0
 31110  1  0  0  0  0
 32111  1  0  0  0  0
 33112  1  0  0  0  0
 40113  1  0  0  0  0
 41114  1  0  0  0  0
 44115  1  0  0  0  0
 44116  1  0  0  0  0
 44117  1  0  0  0  0
 45118  1  0  0  0  0
 46119  1  0  0  0  0
 48120  1  0  0  0  0
 49121  1  0  0  0  0
 52122  1  0  0  0  0
 52123  1  0  0  0  0
 52124  1  0  0  0  0
 53125  1  0  0  0  0
 54126  1  0  0  0  0
 69127  1  0  0  0  0
 74128  1  0  0  0  0
 77129  1  0  0  0  0
 85130  1  0  0  0  0
 86131  1  0  0  0  0
 87132  1  0  0  0  0
 88133  1  0  0  0  0
 89134  1  0  0  0  0
 90135  1  0  0  0  0
 90136  1  0  0  0  0
 91137  1  0  0  0  0
M  END
