
  xtb     02052222203D
 energy: -341.148739965018 gnorm: 0.000384148220 xtb: 6.4.1 (unknown)
202218  0     0  0            999 V2000
   -2.3771    5.5490    4.8115 C   0  0  0  0  0  0  0  0  0  0  0  0
   -1.7579    6.7248    5.1024 C   0  0  0  0  0  0  0  0  0  0  0  0
   -0.5557    7.5060    4.0943 S   0  0  0  0  0  0  0  0  0  0  0  0
   -0.3152    8.7478    5.2929 C   0  0  0  0  0  0  0  0  0  0  0  0
    0.7127    9.6511    5.1809 C   0  0  0  0  0  0  0  0  0  0  0  0
    0.9853   10.6810    6.0981 C   0  0  0  0  0  0  0  0  0  0  0  0
    1.2747   11.5368    6.8069 N   0  0  0  0  0  0  0  0  0  0  0  0
    1.6316    9.5134    4.1250 C   0  0  0  0  0  0  0  0  0  0  0  0
    2.4042    9.3668    3.2879 N   0  0  0  0  0  0  0  0  0  0  0  0
   -1.1997    8.6353    6.3150 N   0  0  0  0  0  0  0  0  0  0  0  0
   -1.2867    9.5981    7.3662 C   0  0  0  0  0  0  0  0  0  0  0  0
   -1.8882   10.8217    7.1099 C   0  0  0  0  0  0  0  0  0  0  0  0
   -1.9795   11.7542    8.1260 C   0  0  0  0  0  0  0  0  0  0  0  0
   -1.4819   11.4607    9.3846 C   0  0  0  0  0  0  0  0  0  0  0  0
   -0.8968   10.2313    9.6333 C   0  0  0  0  0  0  0  0  0  0  0  0
   -0.7961    9.2908    8.6240 C   0  0  0  0  0  0  0  0  0  0  0  0
   -2.0159    7.5076    6.3015 C   0  0  0  0  0  0  0  0  0  0  0  0
   -2.7769    7.2208    7.1994 O   0  0  0  0  0  0  0  0  0  0  0  0
   -1.9716    4.6339    3.8131 C   0  0  0  0  0  0  0  0  0  0  0  0
   -0.6772    4.3322    3.3747 C   0  0  0  0  0  0  0  0  0  0  0  0
    0.4993    4.7703    3.9633 N   0  0  0  0  0  0  0  0  0  0  0  0
    0.5687    4.9289    5.3546 C   0  0  0  0  0  0  0  0  0  0  0  0
    1.3256    5.9497    5.9333 C   0  0  0  0  0  0  0  0  0  0  0  0
    1.2370    6.2048    7.2852 C   0  0  0  0  0  0  0  0  0  0  0  0
    0.3895    5.4500    8.0888 C   0  0  0  0  0  0  0  0  0  0  0  0
    0.1993    5.9089    9.7864 S   0  0  0  0  0  0  0  0  0  0  0  0
   -1.5830    5.6337   10.0275 C   0  0  0  0  0  0  0  0  0  0  0  0
   -0.2844    4.3677    7.5382 C   0  0  0  0  0  0  0  0  0  0  0  0
   -0.1867    4.1051    6.1887 C   0  0  0  0  0  0  0  0  0  0  0  0
    1.5394    5.2023    3.1265 C   0  0  0  0  0  0  0  0  0  0  0  0
    2.8701    5.0347    3.5014 C   0  0  0  0  0  0  0  0  0  0  0  0
    3.8775    5.5715    2.7269 C   0  0  0  0  0  0  0  0  0  0  0  0
    3.5651    6.2796    1.5766 C   0  0  0  0  0  0  0  0  0  0  0  0
    4.8562    7.0725    0.6404 S   0  0  0  0  0  0  0  0  0  0  0  0
    5.3719    8.3045    1.8728 C   0  0  0  0  0  0  0  0  0  0  0  0
    2.2474    6.3954    1.1638 C   0  0  0  0  0  0  0  0  0  0  0  0
    1.2399    5.8526    1.9305 C   0  0  0  0  0  0  0  0  0  0  0  0
   -0.7051    3.3926    2.3245 C   0  0  0  0  0  0  0  0  0  0  0  0
    0.5091    2.6371    1.3464 S   0  0  0  0  0  0  0  0  0  0  0  0
   -0.7206    1.6872    0.5202 C   0  0  0  0  0  0  0  0  0  0  0  0
   -2.0085    2.0050    0.9499 C   0  0  0  0  0  0  0  0  0  0  0  0
   -3.1784    1.4842    0.4074 N   0  0  0  0  0  0  0  0  0  0  0  0
   -4.1998    1.1239    1.2964 C   0  0  0  0  0  0  0  0  0  0  0  0
   -5.5315    1.4302    1.0352 C   0  0  0  0  0  0  0  0  0  0  0  0
   -6.5202    1.0985    1.9414 C   0  0  0  0  0  0  0  0  0  0  0  0
   -6.1907    0.4669    3.1329 C   0  0  0  0  0  0  0  0  0  0  0  0
   -7.3663   -0.0021    4.3635 S   0  0  0  0  0  0  0  0  0  0  0  0
   -8.9144    0.7666    3.8043 C   0  0  0  0  0  0  0  0  0  0  0  0
   -4.8589    0.1514    3.3944 C   0  0  0  0  0  0  0  0  0  0  0  0
   -3.8760    0.4711    2.4865 C   0  0  0  0  0  0  0  0  0  0  0  0
   -3.4044    1.5704   -0.9711 C   0  0  0  0  0  0  0  0  0  0  0  0
   -4.1976    0.6170   -1.6148 C   0  0  0  0  0  0  0  0  0  0  0  0
   -4.3762    0.6693   -2.9774 C   0  0  0  0  0  0  0  0  0  0  0  0
   -3.7660    1.6682   -3.7360 C   0  0  0  0  0  0  0  0  0  0  0  0
   -4.0445    1.6128   -5.4786 S   0  0  0  0  0  0  0  0  0  0  0  0
   -3.1899    3.0858   -6.1071 C   0  0  0  0  0  0  0  0  0  0  0  0
   -2.9862    2.6231   -3.0997 C   0  0  0  0  0  0  0  0  0  0  0  0
   -2.8125    2.5755   -1.7293 C   0  0  0  0  0  0  0  0  0  0  0  0
   -1.9802    2.9515    1.9917 C   0  0  0  0  0  0  0  0  0  0  0  0
   -3.1935    3.6603    2.9948 S   0  0  0  0  0  0  0  0  0  0  0  0
   -0.3723    0.6166   -0.3380 C   0  0  0  0  0  0  0  0  0  0  0  0
    0.8532    0.3162   -0.9292 C   0  0  0  0  0  0  0  0  0  0  0  0
    1.9667    1.1391   -0.9843 N   0  0  0  0  0  0  0  0  0  0  0  0
    3.2111    0.4823   -1.0540 C   0  0  0  0  0  0  0  0  0  0  0  0
    4.1225    0.7533   -2.0746 C   0  0  0  0  0  0  0  0  0  0  0  0
    5.2805    0.0175   -2.1787 C   0  0  0  0  0  0  0  0  0  0  0  0
    5.5559   -1.0047   -1.2716 C   0  0  0  0  0  0  0  0  0  0  0  0
    7.0362   -1.9232   -1.5543 S   0  0  0  0  0  0  0  0  0  0  0  0
    6.9487   -3.2789   -0.3504 C   0  0  0  0  0  0  0  0  0  0  0  0
    4.6734   -1.2487   -0.2289 C   0  0  0  0  0  0  0  0  0  0  0  0
    3.5116   -0.5084   -0.1240 C   0  0  0  0  0  0  0  0  0  0  0  0
    1.8699    2.4867   -1.3501 C   0  0  0  0  0  0  0  0  0  0  0  0
    0.7606    2.9766   -2.0396 C   0  0  0  0  0  0  0  0  0  0  0  0
    0.7037    4.3022   -2.4067 C   0  0  0  0  0  0  0  0  0  0  0  0
    1.7607    5.1634   -2.1244 C   0  0  0  0  0  0  0  0  0  0  0  0
    1.5867    6.8394   -2.6515 S   0  0  0  0  0  0  0  0  0  0  0  0
    3.2953    7.4493   -2.6973 C   0  0  0  0  0  0  0  0  0  0  0  0
    2.8689    4.6809   -1.4398 C   0  0  0  0  0  0  0  0  0  0  0  0
    2.9121    3.3603   -1.0434 C   0  0  0  0  0  0  0  0  0  0  0  0
    0.8177   -0.9621   -1.5313 C   0  0  0  0  0  0  0  0  0  0  0  0
    1.9580   -1.8875   -2.4371 S   0  0  0  0  0  0  0  0  0  0  0  0
    0.7595   -3.1646   -2.7050 C   0  0  0  0  0  0  0  0  0  0  0  0
   -0.4827   -2.8356   -2.1593 C   0  0  0  0  0  0  0  0  0  0  0  0
   -1.6729   -3.5211   -2.2711 N   0  0  0  0  0  0  0  0  0  0  0  0
   -2.0430   -4.2347   -3.4144 C   0  0  0  0  0  0  0  0  0  0  0  0
   -2.8782   -5.3481   -3.2949 C   0  0  0  0  0  0  0  0  0  0  0  0
   -3.1610   -6.1236   -4.3949 C   0  0  0  0  0  0  0  0  0  0  0  0
   -2.6019   -5.8209   -5.6340 C   0  0  0  0  0  0  0  0  0  0  0  0
   -2.8686   -6.9764   -6.9452 S   0  0  0  0  0  0  0  0  0  0  0  0
   -1.4471   -6.6815   -8.0397 C   0  0  0  0  0  0  0  0  0  0  0  0
   -1.8483   -4.6649   -5.7794 C   0  0  0  0  0  0  0  0  0  0  0  0
   -1.5816   -3.8732   -4.6791 C   0  0  0  0  0  0  0  0  0  0  0  0
   -2.5977   -3.3883   -1.2148 C   0  0  0  0  0  0  0  0  0  0  0  0
   -2.1790   -3.5611    0.1044 C   0  0  0  0  0  0  0  0  0  0  0  0
   -3.0721   -3.4053    1.1394 C   0  0  0  0  0  0  0  0  0  0  0  0
   -4.4041   -3.0824    0.8829 C   0  0  0  0  0  0  0  0  0  0  0  0
   -5.4494   -2.9268    2.2904 S   0  0  0  0  0  0  0  0  0  0  0  0
   -7.0692   -2.5012    1.5967 C   0  0  0  0  0  0  0  0  0  0  0  0
   -4.8249   -2.9200   -0.4313 C   0  0  0  0  0  0  0  0  0  0  0  0
   -3.9271   -3.0708   -1.4702 C   0  0  0  0  0  0  0  0  0  0  0  0
   -0.4051   -1.6038   -1.4596 C   0  0  0  0  0  0  0  0  0  0  0  0
   -1.5621   -0.6601   -0.5952 S   0  0  0  0  0  0  0  0  0  0  0  0
    1.2301   -4.2965   -3.4131 C   0  0  0  0  0  0  0  0  0  0  0  0
    2.4269   -4.3366   -4.1099 C   0  0  0  0  0  0  0  0  0  0  0  0
    2.6606   -5.5444   -4.7602 C   0  0  0  0  0  0  0  0  0  0  0  0
    4.0422   -5.9247   -5.7618 S   0  0  0  0  0  0  0  0  0  0  0  0
    5.2291   -4.5951   -5.3484 C   0  0  0  0  0  0  0  0  0  0  0  0
    5.7528   -4.7021   -3.9298 C   0  0  0  0  0  0  0  0  0  0  0  0
    1.6247   -6.4703   -4.5807 C   0  0  0  0  0  0  0  0  0  0  0  0
    0.4131   -5.8267   -3.4928 S   0  0  0  0  0  0  0  0  0  0  0  0
    1.4464   -7.6658   -5.2854 C   0  0  0  0  0  0  0  0  0  0  0  0
    0.3821   -8.5140   -5.2187 C   0  0  0  0  0  0  0  0  0  0  0  0
   -0.9529   -8.4050   -4.0933 S   0  0  0  0  0  0  0  0  0  0  0  0
   -1.7821   -9.7116   -4.9076 C   0  0  0  0  0  0  0  0  0  0  0  0
   -2.9880  -10.1875   -4.4568 C   0  0  0  0  0  0  0  0  0  0  0  0
   -3.6165   -9.5677   -3.3615 C   0  0  0  0  0  0  0  0  0  0  0  0
   -4.1370   -9.0504   -2.4783 N   0  0  0  0  0  0  0  0  0  0  0  0
   -3.6601  -11.3022   -4.9871 C   0  0  0  0  0  0  0  0  0  0  0  0
   -4.2508  -12.2195   -5.3459 N   0  0  0  0  0  0  0  0  0  0  0  0
   -1.0694  -10.1778   -5.9632 N   0  0  0  0  0  0  0  0  0  0  0  0
   -1.5884  -11.1205   -6.8975 C   0  0  0  0  0  0  0  0  0  0  0  0
   -2.6625  -10.7596   -7.6990 C   0  0  0  0  0  0  0  0  0  0  0  0
   -3.1488  -11.6664   -8.6218 C   0  0  0  0  0  0  0  0  0  0  0  0
   -2.5606  -12.9137   -8.7477 C   0  0  0  0  0  0  0  0  0  0  0  0
   -1.4781  -13.2569   -7.9562 C   0  0  0  0  0  0  0  0  0  0  0  0
   -0.9839  -12.3600   -7.0263 C   0  0  0  0  0  0  0  0  0  0  0  0
    0.1745   -9.5854   -6.1811 C   0  0  0  0  0  0  0  0  0  0  0  0
    0.9206   -9.9071   -7.0778 O   0  0  0  0  0  0  0  0  0  0  0  0
   -3.2622    5.3128    5.3901 H   0  0  0  0  0  0  0  0  0  0  0  0
   -2.2724   11.0385    6.1236 H   0  0  0  0  0  0  0  0  0  0  0  0
   -2.4386   12.7113    7.9320 H   0  0  0  0  0  0  0  0  0  0  0  0
   -1.5509   12.1941   10.1733 H   0  0  0  0  0  0  0  0  0  0  0  0
   -0.5094   10.0001   10.6135 H   0  0  0  0  0  0  0  0  0  0  0  0
   -0.3368    8.3324    8.8077 H   0  0  0  0  0  0  0  0  0  0  0  0
    1.9496    6.5760    5.3126 H   0  0  0  0  0  0  0  0  0  0  0  0
    1.8002    7.0167    7.7210 H   0  0  0  0  0  0  0  0  0  0  0  0
   -1.8454    6.1671   10.9356 H   0  0  0  0  0  0  0  0  0  0  0  0
   -2.1267    6.0462    9.1813 H   0  0  0  0  0  0  0  0  0  0  0  0
   -1.7904    4.5751   10.1515 H   0  0  0  0  0  0  0  0  0  0  0  0
   -0.8950    3.7310    8.1581 H   0  0  0  0  0  0  0  0  0  0  0  0
   -0.7220    3.2658    5.7712 H   0  0  0  0  0  0  0  0  0  0  0  0
    3.1080    4.4951    4.4060 H   0  0  0  0  0  0  0  0  0  0  0  0
    4.9084    5.4490    3.0233 H   0  0  0  0  0  0  0  0  0  0  0  0
    6.0315    8.9965    1.3596 H   0  0  0  0  0  0  0  0  0  0  0  0
    4.4885    8.8180    2.2403 H   0  0  0  0  0  0  0  0  0  0  0  0
    5.9021    7.8139    2.6840 H   0  0  0  0  0  0  0  0  0  0  0  0
    2.0051    6.9445    0.2687 H   0  0  0  0  0  0  0  0  0  0  0  0
    0.2104    5.9761    1.6290 H   0  0  0  0  0  0  0  0  0  0  0  0
   -5.7947    1.9410    0.1209 H   0  0  0  0  0  0  0  0  0  0  0  0
   -7.5424    1.3509    1.7082 H   0  0  0  0  0  0  0  0  0  0  0  0
   -8.7712    1.8360    3.6823 H   0  0  0  0  0  0  0  0  0  0  0  0
   -9.2553    0.3055    2.8816 H   0  0  0  0  0  0  0  0  0  0  0  0
   -9.6344    0.5787    4.5947 H   0  0  0  0  0  0  0  0  0  0  0  0
   -4.6111   -0.3566    4.3130 H   0  0  0  0  0  0  0  0  0  0  0  0
   -2.8468    0.2132    2.6873 H   0  0  0  0  0  0  0  0  0  0  0  0
   -4.6474   -0.1750   -1.0361 H   0  0  0  0  0  0  0  0  0  0  0  0
   -4.9812   -0.0715   -3.4773 H   0  0  0  0  0  0  0  0  0  0  0  0
   -3.3750    3.0948   -7.1767 H   0  0  0  0  0  0  0  0  0  0  0  0
   -2.1227    3.0086   -5.9192 H   0  0  0  0  0  0  0  0  0  0  0  0
   -3.6086    3.9794   -5.6536 H   0  0  0  0  0  0  0  0  0  0  0  0
   -2.5090    3.4146   -3.6546 H   0  0  0  0  0  0  0  0  0  0  0  0
   -2.2096    3.3300   -1.2453 H   0  0  0  0  0  0  0  0  0  0  0  0
    3.9029    1.5238   -2.7978 H   0  0  0  0  0  0  0  0  0  0  0  0
    5.9784    0.2098   -2.9791 H   0  0  0  0  0  0  0  0  0  0  0  0
    6.0233   -3.8309   -0.4849 H   0  0  0  0  0  0  0  0  0  0  0  0
    7.0356   -2.8893    0.6597 H   0  0  0  0  0  0  0  0  0  0  0  0
    7.7967   -3.9200   -0.5701 H   0  0  0  0  0  0  0  0  0  0  0  0
    4.8720   -2.0134    0.5044 H   0  0  0  0  0  0  0  0  0  0  0  0
    2.8176   -0.7087    0.6793 H   0  0  0  0  0  0  0  0  0  0  0  0
   -0.0490    2.3125   -2.3040 H   0  0  0  0  0  0  0  0  0  0  0  0
   -0.1547    4.6842   -2.9384 H   0  0  0  0  0  0  0  0  0  0  0  0
    3.6884    7.5735   -1.6923 H   0  0  0  0  0  0  0  0  0  0  0  0
    3.2482    8.4113   -3.1981 H   0  0  0  0  0  0  0  0  0  0  0  0
    3.9056    6.7590   -3.2713 H   0  0  0  0  0  0  0  0  0  0  0  0
    3.6998    5.3245   -1.2010 H   0  0  0  0  0  0  0  0  0  0  0  0
    3.7673    2.9981   -0.4935 H   0  0  0  0  0  0  0  0  0  0  0  0
   -3.2705   -5.6292   -2.3305 H   0  0  0  0  0  0  0  0  0  0  0  0
   -3.7880   -6.9948   -4.2900 H   0  0  0  0  0  0  0  0  0  0  0  0
   -1.3714   -7.5562   -8.6791 H   0  0  0  0  0  0  0  0  0  0  0  0
   -0.5451   -6.5824   -7.4424 H   0  0  0  0  0  0  0  0  0  0  0  0
   -1.6153   -5.7968   -8.6470 H   0  0  0  0  0  0  0  0  0  0  0  0
   -1.4560   -4.3751   -6.7415 H   0  0  0  0  0  0  0  0  0  0  0  0
   -0.9871   -2.9796   -4.7999 H   0  0  0  0  0  0  0  0  0  0  0  0
   -1.1505   -3.8216    0.3067 H   0  0  0  0  0  0  0  0  0  0  0  0
   -2.7550   -3.5411    2.1617 H   0  0  0  0  0  0  0  0  0  0  0  0
   -7.4233   -3.3025    0.9550 H   0  0  0  0  0  0  0  0  0  0  0  0
   -7.0045   -1.5573    1.0621 H   0  0  0  0  0  0  0  0  0  0  0  0
   -7.7268   -2.3961    2.4543 H   0  0  0  0  0  0  0  0  0  0  0  0
   -5.8493   -2.6745   -0.6611 H   0  0  0  0  0  0  0  0  0  0  0  0
   -4.2554   -2.9371   -2.4902 H   0  0  0  0  0  0  0  0  0  0  0  0
    3.0671   -3.4751   -4.1645 H   0  0  0  0  0  0  0  0  0  0  0  0
    4.7502   -3.6365   -5.5422 H   0  0  0  0  0  0  0  0  0  0  0  0
    6.0320   -4.7375   -6.0713 H   0  0  0  0  0  0  0  0  0  0  0  0
    4.9417   -4.6286   -3.2084 H   0  0  0  0  0  0  0  0  0  0  0  0
    6.2585   -5.6540   -3.7851 H   0  0  0  0  0  0  0  0  0  0  0  0
    6.4587   -3.8960   -3.7387 H   0  0  0  0  0  0  0  0  0  0  0  0
    2.2048   -7.9145   -6.0195 H   0  0  0  0  0  0  0  0  0  0  0  0
   -3.1110   -9.7821   -7.5930 H   0  0  0  0  0  0  0  0  0  0  0  0
   -3.9888  -11.3958   -9.2427 H   0  0  0  0  0  0  0  0  0  0  0  0
   -2.9467  -13.6199   -9.4670 H   0  0  0  0  0  0  0  0  0  0  0  0
   -1.0172  -14.2275   -8.0580 H   0  0  0  0  0  0  0  0  0  0  0  0
   -0.1387  -12.6129   -6.4049 H   0  0  0  0  0  0  0  0  0  0  0  0
  1  2  2  0  0  0  0
  2  3  1  0  0  0  0
  3  4  1  0  0  0  0
  4  5  2  0  0  0  0
  5  6  1  0  0  0  0
  6  7  3  0  0  0  0
  5  8  1  0  0  0  0
  8  9  3  0  0  0  0
  4 10  1  0  0  0  0
 10 11  1  0  0  0  0
 11 12  2  0  0  0  0
 12 13  1  0  0  0  0
 13 14  2  0  0  0  0
 14 15  1  0  0  0  0
 15 16  2  0  0  0  0
 10 17  1  0  0  0  0
 17 18  2  0  0  0  0
  1 19  1  0  0  0  0
 19 20  2  0  0  0  0
 20 21  1  0  0  0  0
 21 22  1  0  0  0  0
 22 23  2  0  0  0  0
 23 24  1  0  0  0  0
 24 25  2  0  0  0  0
 25 26  1  0  0  0  0
 26 27  1  0  0  0  0
 25 28  1  0  0  0  0
 28 29  2  0  0  0  0
 21 30  1  0  0  0  0
 30 31  2  0  0  0  0
 31 32  1  0  0  0  0
 32 33  2  0  0  0  0
 33 34  1  0  0  0  0
 34 35  1  0  0  0  0
 33 36  1  0  0  0  0
 36 37  2  0  0  0  0
 20 38  1  0  0  0  0
 38 39  1  0  0  0  0
 39 40  1  0  0  0  0
 40 41  2  0  0  0  0
 41 42  1  0  0  0  0
 42 43  1  0  0  0  0
 43 44  2  0  0  0  0
 44 45  1  0  0  0  0
 45 46  2  0  0  0  0
 46 47  1  0  0  0  0
 47 48  1  0  0  0  0
 46 49  1  0  0  0  0
 49 50  2  0  0  0  0
 42 51  1  0  0  0  0
 51 52  2  0  0  0  0
 52 53  1  0  0  0  0
 53 54  2  0  0  0  0
 54 55  1  0  0  0  0
 55 56  1  0  0  0  0
 54 57  1  0  0  0  0
 57 58  2  0  0  0  0
 41 59  1  0  0  0  0
 59 60  1  0  0  0  0
 40 61  1  0  0  0  0
 61 62  2  0  0  0  0
 62 63  1  0  0  0  0
 63 64  1  0  0  0  0
 64 65  2  0  0  0  0
 65 66  1  0  0  0  0
 66 67  2  0  0  0  0
 67 68  1  0  0  0  0
 68 69  1  0  0  0  0
 67 70  1  0  0  0  0
 70 71  2  0  0  0  0
 63 72  1  0  0  0  0
 72 73  2  0  0  0  0
 73 74  1  0  0  0  0
 74 75  2  0  0  0  0
 75 76  1  0  0  0  0
 76 77  1  0  0  0  0
 75 78  1  0  0  0  0
 78 79  2  0  0  0  0
 62 80  1  0  0  0  0
 80 81  1  0  0  0  0
 81 82  1  0  0  0  0
 82 83  2  0  0  0  0
 83 84  1  0  0  0  0
 84 85  1  0  0  0  0
 85 86  2  0  0  0  0
 86 87  1  0  0  0  0
 87 88  2  0  0  0  0
 88 89  1  0  0  0  0
 89 90  1  0  0  0  0
 88 91  1  0  0  0  0
 91 92  2  0  0  0  0
 84 93  1  0  0  0  0
 93 94  2  0  0  0  0
 94 95  1  0  0  0  0
 95 96  2  0  0  0  0
 96 97  1  0  0  0  0
 97 98  1  0  0  0  0
 96 99  1  0  0  0  0
 99100  2  0  0  0  0
 83101  1  0  0  0  0
101102  1  0  0  0  0
 82103  1  0  0  0  0
103104  2  0  0  0  0
104105  1  0  0  0  0
105106  1  0  0  0  0
106107  1  0  0  0  0
107108  1  0  0  0  0
105109  2  0  0  0  0
109110  1  0  0  0  0
109111  1  0  0  0  0
111112  2  0  0  0  0
112113  1  0  0  0  0
113114  1  0  0  0  0
114115  2  0  0  0  0
115116  1  0  0  0  0
116117  3  0  0  0  0
115118  1  0  0  0  0
118119  3  0  0  0  0
114120  1  0  0  0  0
120121  1  0  0  0  0
121122  2  0  0  0  0
122123  1  0  0  0  0
123124  2  0  0  0  0
124125  1  0  0  0  0
125126  2  0  0  0  0
120127  1  0  0  0  0
127128  2  0  0  0  0
 17  2  1  0  0  0  0
 60 19  1  0  0  0  0
102 61  1  0  0  0  0
110103  1  0  0  0  0
127112  1  0  0  0  0
 16 11  1  0  0  0  0
 29 22  1  0  0  0  0
 37 30  1  0  0  0  0
 59 38  2  0  0  0  0
 71 64  1  0  0  0  0
 79 72  1  0  0  0  0
101 80  2  0  0  0  0
126121  1  0  0  0  0
 50 43  1  0  0  0  0
 58 51  1  0  0  0  0
 92 85  1  0  0  0  0
100 93  1  0  0  0  0
  1129  1  0  0  0  0
 12130  1  0  0  0  0
 13131  1  0  0  0  0
 14132  1  0  0  0  0
 15133  1  0  0  0  0
 16134  1  0  0  0  0
 23135  1  0  0  0  0
 24136  1  0  0  0  0
 27137  1  0  0  0  0
 27138  1  0  0  0  0
 27139  1  0  0  0  0
 28140  1  0  0  0  0
 29141  1  0  0  0  0
 31142  1  0  0  0  0
 32143  1  0  0  0  0
 35144  1  0  0  0  0
 35145  1  0  0  0  0
 35146  1  0  0  0  0
 36147  1  0  0  0  0
 37148  1  0  0  0  0
 44149  1  0  0  0  0
 45150  1  0  0  0  0
 48151  1  0  0  0  0
 48152  1  0  0  0  0
 48153  1  0  0  0  0
 49154  1  0  0  0  0
 50155  1  0  0  0  0
 52156  1  0  0  0  0
 53157  1  0  0  0  0
 56158  1  0  0  0  0
 56159  1  0  0  0  0
 56160  1  0  0  0  0
 57161  1  0  0  0  0
 58162  1  0  0  0  0
 65163  1  0  0  0  0
 66164  1  0  0  0  0
 69165  1  0  0  0  0
 69166  1  0  0  0  0
 69167  1  0  0  0  0
 70168  1  0  0  0  0
 71169  1  0  0  0  0
 73170  1  0  0  0  0
 74171  1  0  0  0  0
 77172  1  0  0  0  0
 77173  1  0  0  0  0
 77174  1  0  0  0  0
 78175  1  0  0  0  0
 79176  1  0  0  0  0
 86177  1  0  0  0  0
 87178  1  0  0  0  0
 90179  1  0  0  0  0
 90180  1  0  0  0  0
 90181  1  0  0  0  0
 91182  1  0  0  0  0
 92183  1  0  0  0  0
 94184  1  0  0  0  0
 95185  1  0  0  0  0
 98186  1  0  0  0  0
 98187  1  0  0  0  0
 98188  1  0  0  0  0
 99189  1  0  0  0  0
100190  1  0  0  0  0
104191  1  0  0  0  0
107192  1  0  0  0  0
107193  1  0  0  0  0
108194  1  0  0  0  0
108195  1  0  0  0  0
108196  1  0  0  0  0
111197  1  0  0  0  0
122198  1  0  0  0  0
123199  1  0  0  0  0
124200  1  0  0  0  0
125201  1  0  0  0  0
126202  1  0  0  0  0
M  END
