254

C         -4.89960       -6.90490       -0.17700
C         -4.25060       -8.05430       -0.51950
S         -2.80710       -8.19930       -1.50110
C         -2.72770       -9.91340       -1.17340
C         -1.71640      -10.68700       -1.69270
C         -1.63140      -12.08500       -1.59050
N         -1.51220      -13.22720       -1.56530
C         -0.67320      -10.05640       -2.39140
N          0.18890       -9.52300       -2.93210
N         -3.76330      -10.32840       -0.40070
C         -3.90420      -11.66740        0.06900
C         -3.02040      -12.15740        1.01950
C         -3.17360      -13.45160        1.48010
C         -4.20640      -14.24110        1.00350
C         -5.09550      -13.73660        0.07010
C         -4.94980      -12.44460       -0.40170
C         -4.65980       -9.34170        0.00630
O         -5.62390       -9.56330        0.71120
C         -4.60340       -5.60400       -0.59890
C         -5.01200       -4.38310       -0.01950
N         -5.92170       -4.27640        1.00750
C         -6.97630       -5.21310        1.05410
C         -7.74270       -5.43920       -0.08760
C         -8.64840       -6.47720       -0.11590
C         -8.79530       -7.30680        0.99210
S         -9.85490       -8.71100        0.85120
C         -8.93290       -9.94490        1.81900
C         -8.10030       -7.02350        2.16240
C         -7.19780       -5.98030        2.19560
C         -5.74210       -3.37960        2.06330
C         -4.47180       -2.96970        2.45930
C         -4.30910       -2.09600        3.51730
C         -5.41460       -1.64020        4.22010
S         -5.33440       -0.55040        5.61090
C         -3.57330       -0.14280        5.76150
C         -6.68810       -2.06190        3.83800
C         -6.85280       -2.90950        2.76740
C         -4.32860       -3.30330       -0.61110
S         -4.21140       -1.59130       -0.34560
C         -2.95140       -1.41970       -1.58610
C         -2.73160       -2.62630       -2.23030
N         -1.83010       -2.93610       -3.28170
C         -0.79070       -3.76950       -2.79390
C         -0.06630       -3.32160       -1.68960
C          0.91960       -4.10610       -1.13130
C          1.19350       -5.36990       -1.64980
S          2.45700       -6.30520       -0.84940
C          2.76630       -7.67840       -1.99270
C          0.44850       -5.83870       -2.72310
C         -0.53450       -5.04620       -3.28390
C         -2.41750       -3.20380       -4.52790
C         -3.79180       -3.07410       -4.73160
C         -4.35170       -3.35240       -5.95920
C         -3.55890       -3.75610       -7.02750
S         -4.38950       -4.12740       -8.54330
C         -3.05100       -4.14610       -9.76660
C         -2.18690       -3.85280       -6.84490
C         -1.62650       -3.56950       -5.61580
C         -3.48230       -3.66770       -1.64850
S         -3.48030       -5.36310       -1.93520
C         -2.24310       -0.18520       -1.55120
C         -1.08650        0.27980       -2.18090
N         -0.50250       -0.16590       -3.35630
C         -1.22310       -0.31580       -4.54600
C         -0.54260       -0.75240       -5.68570
C         -1.18340       -0.82580       -6.89940
C         -2.53040       -0.49210       -7.01100
S         -3.24020       -0.60280       -8.62160
C         -5.02450       -0.50170       -8.32000
C         -3.21950       -0.08320       -5.87960
C         -2.57090        0.00920       -4.66280
C          0.88540        0.13600       -3.47680
C          1.81450       -0.55350       -2.70360
C          3.13140       -0.14500       -2.67380
C          3.54130        0.95800       -3.41730
S          5.20330        1.51320       -3.20340
C          5.08990        3.28190       -3.60820
C          2.64080        1.57940       -4.27400
C          1.32170        1.17260       -4.30020
C         -0.53490        1.36350       -1.44550
S          0.95500        2.21620       -1.56790
C          0.59950        3.10730       -0.09820
C         -0.68320        2.86870        0.37470
N         -1.28480        3.58570        1.38400
C         -2.63780        3.36310        1.73390
C         -3.07740        2.15610        2.26210
C         -4.42050        1.95720        2.54020
C         -5.33560        2.97480        2.31180
S         -7.07240        2.84690        2.57460
C         -7.32920        1.10070        2.98410
C         -4.88560        4.20640        1.83550
C         -3.55580        4.39750        1.54680
C         -0.76520        4.83780        1.78000
C         -0.79740        5.16840        3.13240
C         -0.30510        6.37990        3.56420
C          0.24390        7.28330        2.65470
S          0.91430        8.76980        3.33110
C          1.25400        9.79710        1.87310
C          0.24890        6.97110        1.30240
C         -0.26830        5.76490        0.86970
C         -1.28540        1.82120       -0.37270
S         -2.72900        0.88540       -0.22540
C          1.70840        3.85870        0.41240
C          2.35030        3.77380        1.63870
N          1.93300        3.00860        2.70970
C          2.38540        3.34370        4.00110
C          2.84840        2.35630        4.86660
C          3.34030        2.70010        6.10870
C          3.38830        4.02600        6.52380
C          3.98840        4.38940        7.84580
C          2.90330        5.00130        5.66410
C          2.40740        4.67080        4.41810
C          1.29190        1.77860        2.50620
C          1.63440        0.94610        1.44280
C          0.95060       -0.23540        1.23230
C         -0.06030       -0.64260        2.09250
C         -0.83560       -1.90080        1.84940
C         -0.34990        0.16260        3.18890
C          0.30110        1.36280        3.39140
C          3.55800        4.51910        1.63410
S          4.83270        4.72160        2.77990
C          5.77530        5.62700        1.59450
C          5.10720        5.72880        0.35660
N          5.59900        6.34330       -0.77700
C          4.70800        7.05710       -1.59120
C          3.70570        7.83100       -1.00820
C          2.82290        8.53640       -1.79940
C          2.91460        8.50080       -3.18620
C          1.93970        9.25660       -4.03520
C          3.92080        7.73280       -3.75860
C          4.80690        7.01620       -2.97900
C          6.91940        6.11610       -1.20320
C          7.65560        7.14190       -1.79020
C          8.95200        6.91190       -2.20630
C          9.54750        5.66560       -2.04830
C         10.96450        5.43370       -2.47070
C          8.80160        4.64630       -1.46670
C          7.50260        4.86010       -1.05120
C          3.84840        5.11440        0.41420
S          2.62130        4.80300       -0.76440
C          7.01300        6.22260        1.86240
C          7.74740        6.24390        3.01510
S          9.28250        7.11000        3.06380
C          9.50680        6.70130        4.74350
C         10.58250        7.14300        5.47290
C         11.57780        7.92240        4.85320
N         12.39410        8.55370        4.35130
C         10.77480        6.89780        6.84310
N         10.98860        6.75310        7.96260
N          8.48200        5.93440        5.20000
C          8.42680        5.40920        6.52600
C          7.56470        5.98150        7.44720
C          7.50500        5.46230        8.72810
C          8.29390        4.37970        9.07710
C          9.13910        3.80320        8.14420
C          9.20660        4.31260        6.86080
C          7.46620        5.64050        4.29660
O          6.50800        4.95810        4.60760
H         -5.69930       -7.05230        0.53500
H         -2.22010      -11.53160        1.38680
H         -2.48340      -13.84240        2.21170
H         -4.31900      -15.25260        1.36230
H         -5.90350      -14.35050       -0.29760
H         -5.63590      -12.03760       -1.12890
H         -7.59020       -4.82270       -0.96090
H         -9.22680       -6.67660       -1.00430
H         -9.10510       -9.80270        2.88190
H         -7.87720       -9.86890        1.57370
H         -9.32060      -10.91160        1.51360
H         -8.23850       -7.63190        3.04140
H         -6.62820       -5.78150        3.09150
H         -3.60010       -3.35720        1.95480
H         -3.31160       -1.79620        3.79280
H         -2.99840       -1.04200        5.96430
H         -3.23270        0.36100        4.86140
H         -3.50480        0.53440        6.60740
H         -7.54600       -1.71280        4.39150
H         -7.84310       -3.22120        2.47210
H         -0.30630       -2.35780       -1.26410
H          1.48680       -3.75700       -0.28050
H          3.60850       -8.22100       -1.57420
H          1.90010       -8.33170       -2.05620
H          3.02850       -7.28100       -2.96870
H          0.59740       -6.83190       -3.11380
H         -1.12830       -5.44690       -4.09080
H         -4.43710       -2.75420       -3.92770
H         -5.42050       -3.27300       -6.09500
H         -3.53850       -4.22060      -10.73370
H         -2.41040       -5.00950       -9.61130
H         -2.49450       -3.21570       -9.70150
H         -1.53870       -4.14560       -7.65480
H         -0.55590       -3.63390       -5.49790
H          0.49800       -1.02910       -5.61400
H         -0.64610       -1.14760       -7.77820
H         -5.49690       -0.74310       -9.26690
H         -5.29860        0.50430       -8.01500
H         -5.30200       -1.23700       -7.57140
H         -4.26250        0.18510       -5.93120
H         -3.12380        0.35980       -3.80540
H          1.49520       -1.39440       -2.11020
H          3.84740       -0.65730       -2.04990
H          6.00340        3.72830       -3.22540
H          5.03550        3.42530       -4.68340
H          4.22520        3.71110       -3.10960
H          2.95000        2.40160       -4.89890
H          0.61310        1.68420       -4.93490
H         -2.36160        1.37140        2.45320
H         -4.74160        1.00110        2.92090
H         -8.40520        0.96500        3.02730
H         -6.90740        0.47120        2.20580
H         -6.89160        0.88190        3.95330
H         -5.60040        4.99910        1.67680
H         -3.21730        5.34620        1.15720
H         -1.21280        4.46660        3.83930
H         -0.32360        6.63480        4.61250
H          1.56270       10.76270        2.26140
H          2.05910        9.36470        1.28620
H          0.34850        9.90820        1.28390
H          0.64580        7.65470        0.56950
H         -0.29640        5.55530       -0.18910
H          2.83920        1.32280        4.55220
H          3.71380        1.92490        6.76220
H          3.77420        3.63020        8.59500
H          3.61330        5.34880        8.19420
H          5.07140        4.46360        7.74080
H          2.92010        6.03870        5.96450
H          2.04090        5.44230        3.75920
H          2.44580        1.22090        0.78540
H          1.22300       -0.85730        0.39190
H         -0.30470       -2.56810        1.17570
H         -1.02120       -2.42780        2.78380
H         -1.80070       -1.65740        1.40100
H         -1.09930       -0.15780        3.89970
H          0.05140        1.98660        4.23700
H          3.63590        7.87560        0.06950
H          2.05370        9.13950       -1.33730
H          1.67790       10.20620       -3.57340
H          1.02300        8.67800       -4.15450
H          2.35030        9.44650       -5.02360
H          4.01080        7.68960       -4.83430
H          5.57790        6.41960       -3.44310
H          7.20650        8.11680       -1.91190
H          9.51410        7.71780       -2.65470
H         11.23460        6.08300       -3.30000
H         11.63810        5.65070       -1.64080
H         11.11760        4.39810       -2.76540
H          9.24020        3.66660       -1.34560
H          6.93280        4.05750       -0.60620
H          7.44890        6.76420        1.03060
H          6.95360        6.82410        7.16010
H          6.84360        5.90910        9.45490
H          8.24950        3.98320       10.07980
H          9.75060        2.95630        8.41490
H          9.86300        3.87250        6.12460
