
  xtb     02132216503D
 energy: -288.055135309607 gnorm: 0.000650338774 xtb: 6.4.1 (unknown)
157170  0     0  0            999 V2000
   -3.6964    0.8728   -5.4854 C   0  0  0  0  0  0  0  0  0  0  0  0
   -4.9572    1.3987   -5.4236 C   0  0  0  0  0  0  0  0  0  0  0  0
   -6.0692    1.2029   -6.7765 S   0  0  0  0  0  0  0  0  0  0  0  0
   -7.3682    1.9317   -5.8645 C   0  0  0  0  0  0  0  0  0  0  0  0
   -8.6521    1.9876   -6.3456 C   0  0  0  0  0  0  0  0  0  0  0  0
   -9.7649    2.4505   -5.6225 C   0  0  0  0  0  0  0  0  0  0  0  0
  -10.7250    2.7832   -5.0872 N   0  0  0  0  0  0  0  0  0  0  0  0
   -8.9359    1.5128   -7.6409 C   0  0  0  0  0  0  0  0  0  0  0  0
   -9.1696    1.1385   -8.7000 N   0  0  0  0  0  0  0  0  0  0  0  0
   -6.9311    2.3663   -4.6529 N   0  0  0  0  0  0  0  0  0  0  0  0
   -7.7408    3.0747   -3.7166 C   0  0  0  0  0  0  0  0  0  0  0  0
   -8.2179    4.3388   -4.0305 C   0  0  0  0  0  0  0  0  0  0  0  0
   -8.9763    5.0229   -3.0987 C   0  0  0  0  0  0  0  0  0  0  0  0
   -9.2397    4.4552   -1.8632 C   0  0  0  0  0  0  0  0  0  0  0  0
   -8.7405    3.2024   -1.5511 C   0  0  0  0  0  0  0  0  0  0  0  0
   -7.9873    2.5052   -2.4777 C   0  0  0  0  0  0  0  0  0  0  0  0
   -5.5997    2.1133   -4.3453 C   0  0  0  0  0  0  0  0  0  0  0  0
   -5.0958    2.4890   -3.3028 O   0  0  0  0  0  0  0  0  0  0  0  0
   -2.7065    0.8059   -4.4967 C   0  0  0  0  0  0  0  0  0  0  0  0
   -1.4893    0.1028   -4.6428 C   0  0  0  0  0  0  0  0  0  0  0  0
   -1.0252   -0.4794   -5.7978 N   0  0  0  0  0  0  0  0  0  0  0  0
   -1.1580    0.1255   -7.0560 C   0  0  0  0  0  0  0  0  0  0  0  0
   -1.1215    1.5110   -7.1935 C   0  0  0  0  0  0  0  0  0  0  0  0
   -1.2579    2.0991   -8.4351 C   0  0  0  0  0  0  0  0  0  0  0  0
   -1.4213    1.3095   -9.5668 C   0  0  0  0  0  0  0  0  0  0  0  0
   -1.5995    1.9419  -11.2020 S   0  0  0  0  0  0  0  0  0  0  0  0
   -1.7308    3.7370  -10.9663 C   0  0  0  0  0  0  0  0  0  0  0  0
   -1.4374   -0.0787   -9.4340 C   0  0  0  0  0  0  0  0  0  0  0  0
   -1.3099   -0.6657   -8.1957 C   0  0  0  0  0  0  0  0  0  0  0  0
   -0.2524   -1.6512   -5.6701 C   0  0  0  0  0  0  0  0  0  0  0  0
    0.9432   -1.8056   -6.3694 C   0  0  0  0  0  0  0  0  0  0  0  0
    1.7241   -2.9198   -6.1587 C   0  0  0  0  0  0  0  0  0  0  0  0
    1.3340   -3.8963   -5.2430 C   0  0  0  0  0  0  0  0  0  0  0  0
    2.4368   -5.2452   -4.9854 S   0  0  0  0  0  0  0  0  0  0  0  0
    1.8964   -5.9170   -3.3865 C   0  0  0  0  0  0  0  0  0  0  0  0
    0.1161   -3.7712   -4.5872 C   0  0  0  0  0  0  0  0  0  0  0  0
   -0.6700   -2.6583   -4.8042 C   0  0  0  0  0  0  0  0  0  0  0  0
   -0.8169    0.0110   -3.4075 C   0  0  0  0  0  0  0  0  0  0  0  0
    0.6308   -0.7540   -2.8517 S   0  0  0  0  0  0  0  0  0  0  0  0
    0.3236   -0.2250   -1.2030 C   0  0  0  0  0  0  0  0  0  0  0  0
   -0.8025    0.5721   -1.1176 C   0  0  0  0  0  0  0  0  0  0  0  0
   -1.3625    1.1508    0.0301 N   0  0  0  0  0  0  0  0  0  0  0  0
   -2.7443    0.9025    0.1684 C   0  0  0  0  0  0  0  0  0  0  0  0
   -3.1999   -0.4092    0.0749 C   0  0  0  0  0  0  0  0  0  0  0  0
   -4.5509   -0.6958    0.1237 C   0  0  0  0  0  0  0  0  0  0  0  0
   -5.4707    0.3326    0.2700 C   0  0  0  0  0  0  0  0  0  0  0  0
   -7.2217    0.1003    0.3173 S   0  0  0  0  0  0  0  0  0  0  0  0
   -7.4313   -1.7034    0.3324 C   0  0  0  0  0  0  0  0  0  0  0  0
   -5.0197    1.6468    0.3725 C   0  0  0  0  0  0  0  0  0  0  0  0
   -3.6744    1.9308    0.3220 C   0  0  0  0  0  0  0  0  0  0  0  0
   -0.8229    2.3363    0.5357 C   0  0  0  0  0  0  0  0  0  0  0  0
   -1.1423    2.7384    1.8332 C   0  0  0  0  0  0  0  0  0  0  0  0
   -0.6346    3.9127    2.3411 C   0  0  0  0  0  0  0  0  0  0  0  0
    0.2116    4.7105    1.5713 C   0  0  0  0  0  0  0  0  0  0  0  0
    0.8356    6.1729    2.3492 S   0  0  0  0  0  0  0  0  0  0  0  0
    1.7004    7.0432    1.0120 C   0  0  0  0  0  0  0  0  0  0  0  0
    0.5383    4.3106    0.2843 C   0  0  0  0  0  0  0  0  0  0  0  0
    0.0199    3.1375   -0.2283 C   0  0  0  0  0  0  0  0  0  0  0  0
   -1.4577    0.6702   -2.3712 C   0  0  0  0  0  0  0  0  0  0  0  0
   -2.9236    1.4327   -2.8610 S   0  0  0  0  0  0  0  0  0  0  0  0
    1.1690   -0.7804   -0.1653 C   0  0  0  0  0  0  0  0  0  0  0  0
    1.7132   -0.0620    0.9228 C   0  0  0  0  0  0  0  0  0  0  0  0
    1.6387    1.2322    1.2612 N   0  0  0  0  0  0  0  0  0  0  0  0
    2.3507    1.3278    2.3471 N   0  0  0  0  0  0  0  0  0  0  0  0
    2.5580    2.5795    3.0155 C   0  0  0  0  0  0  0  0  0  0  0  0
    3.5086    3.4559    2.2083 C   0  0  0  0  0  0  0  0  0  0  0  0
    2.9077    0.2385    2.7835 N   0  0  0  0  0  0  0  0  0  0  0  0
    2.5454   -0.6971    1.8977 C   0  0  0  0  0  0  0  0  0  0  0  0
    2.8768   -2.0626    1.8447 C   0  0  0  0  0  0  0  0  0  0  0  0
    2.3315   -2.7463    0.7796 C   0  0  0  0  0  0  0  0  0  0  0  0
    1.5172   -2.1248   -0.1827 C   0  0  0  0  0  0  0  0  0  0  0  0
    1.0466   -2.9341   -1.1560 F   0  0  0  0  0  0  0  0  0  0  0  0
    2.6187   -4.0438    0.5808 F   0  0  0  0  0  0  0  0  0  0  0  0
    3.7492   -2.6739    2.8443 C   0  0  0  0  0  0  0  0  0  0  0  0
    3.3700   -3.8668    3.5058 C   0  0  0  0  0  0  0  0  0  0  0  0
    2.1543   -4.4070    3.2575 N   0  0  0  0  0  0  0  0  0  0  0  0
    1.8395   -5.5124    3.8535 C   0  0  0  0  0  0  0  0  0  0  0  0
    2.7420   -6.1635    4.7495 C   0  0  0  0  0  0  0  0  0  0  0  0
    2.3678   -7.3233    5.2723 O   0  0  0  0  0  0  0  0  0  0  0  0
    3.2785   -7.9681    6.1618 C   0  0  0  0  0  0  0  0  0  0  0  0
    3.3096   -7.3102    7.5340 C   0  0  0  0  0  0  0  0  0  0  0  0
    3.9014   -5.6289    5.0517 N   0  0  0  0  0  0  0  0  0  0  0  0
    4.2372   -4.4695    4.4503 C   0  0  0  0  0  0  0  0  0  0  0  0
    5.4625   -3.8469    4.8044 C   0  0  0  0  0  0  0  0  0  0  0  0
    5.8028   -2.6821    4.1398 C   0  0  0  0  0  0  0  0  0  0  0  0
    4.9663   -2.1098    3.1745 C   0  0  0  0  0  0  0  0  0  0  0  0
    5.4063   -1.0233    2.5255 F   0  0  0  0  0  0  0  0  0  0  0  0
    7.0005   -2.1184    4.3469 F   0  0  0  0  0  0  0  0  0  0  0  0
    6.3201   -4.4792    5.7851 C   0  0  0  0  0  0  0  0  0  0  0  0
    6.9815   -3.8357    6.7638 C   0  0  0  0  0  0  0  0  0  0  0  0
    8.1336   -4.6349    7.8220 S   0  0  0  0  0  0  0  0  0  0  0  0
    8.4980   -3.1221    8.6253 C   0  0  0  0  0  0  0  0  0  0  0  0
    9.5050   -3.0175    9.5461 C   0  0  0  0  0  0  0  0  0  0  0  0
   10.2424   -4.1614    9.9162 C   0  0  0  0  0  0  0  0  0  0  0  0
   10.8370   -5.0910   10.2282 N   0  0  0  0  0  0  0  0  0  0  0  0
    9.9189   -1.8177   10.1554 C   0  0  0  0  0  0  0  0  0  0  0  0
   10.3273   -0.8771   10.6711 N   0  0  0  0  0  0  0  0  0  0  0  0
    7.6868   -2.1199    8.1902 N   0  0  0  0  0  0  0  0  0  0  0  0
    7.6697   -0.8197    8.7798 C   0  0  0  0  0  0  0  0  0  0  0  0
    8.0611    0.2718    8.0218 C   0  0  0  0  0  0  0  0  0  0  0  0
    8.0266    1.5322    8.5909 C   0  0  0  0  0  0  0  0  0  0  0  0
    7.6020    1.6946    9.8985 C   0  0  0  0  0  0  0  0  0  0  0  0
    7.1957    0.5992   10.6416 C   0  0  0  0  0  0  0  0  0  0  0  0
    7.2219   -0.6653   10.0837 C   0  0  0  0  0  0  0  0  0  0  0  0
    6.7982   -2.4283    7.1712 C   0  0  0  0  0  0  0  0  0  0  0  0
    5.9668   -1.6592    6.7600 O   0  0  0  0  0  0  0  0  0  0  0  0
   -3.4467    0.3850   -6.4203 H   0  0  0  0  0  0  0  0  0  0  0  0
   -8.0003    4.7778   -4.9934 H   0  0  0  0  0  0  0  0  0  0  0  0
   -9.3599    6.0021   -3.3403 H   0  0  0  0  0  0  0  0  0  0  0  0
   -9.8339    4.9942   -1.1411 H   0  0  0  0  0  0  0  0  0  0  0  0
   -8.9344    2.7568   -0.5875 H   0  0  0  0  0  0  0  0  0  0  0  0
   -7.5901    1.5309   -2.2396 H   0  0  0  0  0  0  0  0  0  0  0  0
   -0.9878    2.1312   -6.3196 H   0  0  0  0  0  0  0  0  0  0  0  0
   -1.2230    3.1740   -8.5059 H   0  0  0  0  0  0  0  0  0  0  0  0
   -1.9223    4.1462  -11.9534 H   0  0  0  0  0  0  0  0  0  0  0  0
   -0.7971    4.1351  -10.5793 H   0  0  0  0  0  0  0  0  0  0  0  0
   -2.5631    3.9620  -10.3061 H   0  0  0  0  0  0  0  0  0  0  0  0
   -1.5604   -0.6879  -10.3157 H   0  0  0  0  0  0  0  0  0  0  0  0
   -1.3335   -1.7406   -8.0989 H   0  0  0  0  0  0  0  0  0  0  0  0
    1.2652   -1.0371   -7.0559 H   0  0  0  0  0  0  0  0  0  0  0  0
    2.6609   -3.0354   -6.6813 H   0  0  0  0  0  0  0  0  0  0  0  0
    1.7706   -5.1051   -2.6771 H   0  0  0  0  0  0  0  0  0  0  0  0
    0.9782   -6.4849   -3.5058 H   0  0  0  0  0  0  0  0  0  0  0  0
    2.6938   -6.5769   -3.0595 H   0  0  0  0  0  0  0  0  0  0  0  0
   -0.2271   -4.5285   -3.9022 H   0  0  0  0  0  0  0  0  0  0  0  0
   -1.6140   -2.5598   -4.2883 H   0  0  0  0  0  0  0  0  0  0  0  0
   -2.4870   -1.2115   -0.0505 H   0  0  0  0  0  0  0  0  0  0  0  0
   -4.8685   -1.7229    0.0391 H   0  0  0  0  0  0  0  0  0  0  0  0
   -8.4994   -1.8718    0.4306 H   0  0  0  0  0  0  0  0  0  0  0  0
   -7.0766   -2.1315   -0.6011 H   0  0  0  0  0  0  0  0  0  0  0  0
   -6.9105   -2.1284    1.1855 H   0  0  0  0  0  0  0  0  0  0  0  0
   -5.7402    2.4443    0.4668 H   0  0  0  0  0  0  0  0  0  0  0  0
   -3.3409    2.9554    0.3728 H   0  0  0  0  0  0  0  0  0  0  0  0
   -1.7934    2.1231    2.4355 H   0  0  0  0  0  0  0  0  0  0  0  0
   -0.8857    4.2287    3.3429 H   0  0  0  0  0  0  0  0  0  0  0  0
    2.0224    7.9879    1.4389 H   0  0  0  0  0  0  0  0  0  0  0  0
    1.0160    7.2247    0.1886 H   0  0  0  0  0  0  0  0  0  0  0  0
    2.5661    6.4723    0.6889 H   0  0  0  0  0  0  0  0  0  0  0  0
    1.1853    4.9086   -0.3376 H   0  0  0  0  0  0  0  0  0  0  0  0
    0.2734    2.8420   -1.2349 H   0  0  0  0  0  0  0  0  0  0  0  0
    2.9767    2.3469    3.9953 H   0  0  0  0  0  0  0  0  0  0  0  0
    1.5901    3.0748    3.1210 H   0  0  0  0  0  0  0  0  0  0  0  0
    4.4843    2.9832    2.1259 H   0  0  0  0  0  0  0  0  0  0  0  0
    3.1027    3.6094    1.2115 H   0  0  0  0  0  0  0  0  0  0  0  0
    3.6212    4.4177    2.6999 H   0  0  0  0  0  0  0  0  0  0  0  0
    0.8640   -5.9335    3.6598 H   0  0  0  0  0  0  0  0  0  0  0  0
    2.9109   -8.9941    6.2300 H   0  0  0  0  0  0  0  0  0  0  0  0
    4.2780   -7.9601    5.7153 H   0  0  0  0  0  0  0  0  0  0  0  0
    3.9605   -7.8784    8.1919 H   0  0  0  0  0  0  0  0  0  0  0  0
    2.3101   -7.2841    7.9607 H   0  0  0  0  0  0  0  0  0  0  0  0
    3.6874   -6.2943    7.4525 H   0  0  0  0  0  0  0  0  0  0  0  0
    6.3985   -5.5555    5.7116 H   0  0  0  0  0  0  0  0  0  0  0  0
    8.3861    0.1298    7.0025 H   0  0  0  0  0  0  0  0  0  0  0  0
    8.3365    2.3872    8.0102 H   0  0  0  0  0  0  0  0  0  0  0  0
    7.5847    2.6791   10.3403 H   0  0  0  0  0  0  0  0  0  0  0  0
    6.8576    0.7263   11.6582 H   0  0  0  0  0  0  0  0  0  0  0  0
    6.9034   -1.5263   10.6535 H   0  0  0  0  0  0  0  0  0  0  0  0
  1  2  2  0  0  0  0
  2  3  1  0  0  0  0
  3  4  1  0  0  0  0
  4  5  2  0  0  0  0
  5  6  1  0  0  0  0
  6  7  3  0  0  0  0
  5  8  1  0  0  0  0
  8  9  3  0  0  0  0
  4 10  1  0  0  0  0
 10 11  1  0  0  0  0
 11 12  2  0  0  0  0
 12 13  1  0  0  0  0
 13 14  2  0  0  0  0
 14 15  1  0  0  0  0
 15 16  2  0  0  0  0
 10 17  1  0  0  0  0
 17 18  2  0  0  0  0
  1 19  1  0  0  0  0
 19 20  2  0  0  0  0
 20 21  1  0  0  0  0
 21 22  1  0  0  0  0
 22 23  2  0  0  0  0
 23 24  1  0  0  0  0
 24 25  2  0  0  0  0
 25 26  1  0  0  0  0
 26 27  1  0  0  0  0
 25 28  1  0  0  0  0
 28 29  2  0  0  0  0
 21 30  1  0  0  0  0
 30 31  2  0  0  0  0
 31 32  1  0  0  0  0
 32 33  2  0  0  0  0
 33 34  1  0  0  0  0
 34 35  1  0  0  0  0
 33 36  1  0  0  0  0
 36 37  2  0  0  0  0
 20 38  1  0  0  0  0
 38 39  1  0  0  0  0
 39 40  1  0  0  0  0
 40 41  2  0  0  0  0
 41 42  1  0  0  0  0
 42 43  1  0  0  0  0
 43 44  2  0  0  0  0
 44 45  1  0  0  0  0
 45 46  2  0  0  0  0
 46 47  1  0  0  0  0
 47 48  1  0  0  0  0
 46 49  1  0  0  0  0
 49 50  2  0  0  0  0
 42 51  1  0  0  0  0
 51 52  2  0  0  0  0
 52 53  1  0  0  0  0
 53 54  2  0  0  0  0
 54 55  1  0  0  0  0
 55 56  1  0  0  0  0
 54 57  1  0  0  0  0
 57 58  2  0  0  0  0
 41 59  1  0  0  0  0
 59 60  1  0  0  0  0
 40 61  1  0  0  0  0
 61 62  1  0  0  0  0
 62 63  2  0  0  0  0
 63 64  1  0  0  0  0
 64 65  1  0  0  0  0
 65 66  1  0  0  0  0
 64 67  1  0  0  0  0
 67 68  2  0  0  0  0
 68 69  1  0  0  0  0
 69 70  2  0  0  0  0
 70 71  1  0  0  0  0
 71 72  1  0  0  0  0
 70 73  1  0  0  0  0
 69 74  1  0  0  0  0
 74 75  1  0  0  0  0
 75 76  2  0  0  0  0
 76 77  1  0  0  0  0
 77 78  2  0  0  0  0
 78 79  1  0  0  0  0
 79 80  1  0  0  0  0
 80 81  1  0  0  0  0
 78 82  1  0  0  0  0
 82 83  2  0  0  0  0
 83 84  1  0  0  0  0
 84 85  2  0  0  0  0
 85 86  1  0  0  0  0
 86 87  1  0  0  0  0
 85 88  1  0  0  0  0
 84 89  1  0  0  0  0
 89 90  2  0  0  0  0
 90 91  1  0  0  0  0
 91 92  1  0  0  0  0
 92 93  2  0  0  0  0
 93 94  1  0  0  0  0
 94 95  3  0  0  0  0
 93 96  1  0  0  0  0
 96 97  3  0  0  0  0
 92 98  1  0  0  0  0
 98 99  1  0  0  0  0
 99100  2  0  0  0  0
100101  1  0  0  0  0
101102  2  0  0  0  0
102103  1  0  0  0  0
103104  2  0  0  0  0
 98105  1  0  0  0  0
105106  2  0  0  0  0
 17  2  1  0  0  0  0
 60 19  1  0  0  0  0
 71 61  2  0  0  0  0
 86 74  2  0  0  0  0
105 90  1  0  0  0  0
 16 11  1  0  0  0  0
 29 22  1  0  0  0  0
 37 30  1  0  0  0  0
 59 38  2  0  0  0  0
 68 62  1  0  0  0  0
 83 75  1  0  0  0  0
104 99  1  0  0  0  0
 50 43  1  0  0  0  0
 58 51  1  0  0  0  0
  1107  1  0  0  0  0
 12108  1  0  0  0  0
 13109  1  0  0  0  0
 14110  1  0  0  0  0
 15111  1  0  0  0  0
 16112  1  0  0  0  0
 23113  1  0  0  0  0
 24114  1  0  0  0  0
 27115  1  0  0  0  0
 27116  1  0  0  0  0
 27117  1  0  0  0  0
 28118  1  0  0  0  0
 29119  1  0  0  0  0
 31120  1  0  0  0  0
 32121  1  0  0  0  0
 35122  1  0  0  0  0
 35123  1  0  0  0  0
 35124  1  0  0  0  0
 36125  1  0  0  0  0
 37126  1  0  0  0  0
 44127  1  0  0  0  0
 45128  1  0  0  0  0
 48129  1  0  0  0  0
 48130  1  0  0  0  0
 48131  1  0  0  0  0
 49132  1  0  0  0  0
 50133  1  0  0  0  0
 52134  1  0  0  0  0
 53135  1  0  0  0  0
 56136  1  0  0  0  0
 56137  1  0  0  0  0
 56138  1  0  0  0  0
 57139  1  0  0  0  0
 58140  1  0  0  0  0
 65141  1  0  0  0  0
 65142  1  0  0  0  0
 66143  1  0  0  0  0
 66144  1  0  0  0  0
 66145  1  0  0  0  0
 77146  1  0  0  0  0
 80147  1  0  0  0  0
 80148  1  0  0  0  0
 81149  1  0  0  0  0
 81150  1  0  0  0  0
 81151  1  0  0  0  0
 89152  1  0  0  0  0
100153  1  0  0  0  0
101154  1  0  0  0  0
102155  1  0  0  0  0
103156  1  0  0  0  0
104157  1  0  0  0  0
M  END
