238

C         -7.35150       -3.74940        3.50510
C         -6.83450       -4.36200        4.61190
S         -7.81780       -4.80450        5.98870
C         -6.43440       -5.50070        6.80910
C         -6.58430       -5.94660        8.09960
C         -7.82910       -5.76390        8.73580
N         -8.83940       -5.59660        9.25380
C         -5.61620       -6.56680        8.90280
N         -4.87710       -7.08840        9.61210
N         -5.34350       -5.51320        6.00530
C         -4.10190       -6.23900        6.25750
C         -2.94300       -5.33100        6.58920
C         -2.05530       -4.94540        5.59170
C         -0.99940       -4.09870        5.88170
C         -0.81870       -3.63330        7.17300
C         -1.68900       -4.02820        8.17500
C         -2.74610       -4.87430        7.88650
C         -5.48290       -4.85470        4.78270
O         -4.59680       -4.82550        3.95310
C         -6.61180       -3.06770        2.52190
C         -5.37210       -2.41630        2.59530
N         -4.62100       -2.15500        3.71210
C         -5.16850       -2.03330        4.99030
C         -6.45760       -1.53980        5.19610
C         -7.02200       -1.53630        6.45510
C         -6.30420       -2.02030        7.54450
S         -6.96070       -2.17950        9.16960
C         -8.75440       -2.13690        8.90530
C         -4.97920       -2.41210        7.35950
C         -4.41780       -2.41880        6.10350
C         -3.23230       -1.95490        3.54600
C         -2.60890       -0.85020        4.11430
C         -1.26250       -0.62040        3.90550
C         -0.52040       -1.49740        3.12500
S          1.18950       -1.27950        2.74970
C          1.64790        0.26630        3.58130
C         -1.13570       -2.62890        2.58850
C         -2.47770       -2.85560        2.79500
C         -5.00750       -1.91690        1.32000
S         -3.64220       -1.03000        0.75430
C         -4.33370       -0.95950       -0.86110
C         -5.57510       -1.54380       -0.93390
N         -6.36190       -1.53870       -2.07800
C         -7.03550       -2.70580       -2.44410
C         -6.55980       -3.94580       -2.01560
C         -7.22570       -5.10350       -2.34790
C         -8.36560       -5.05870       -3.14160
S         -9.14130       -6.59690       -3.54300
C         -9.96460       -6.22220       -5.11800
C         -8.85080       -3.82880       -3.56330
C         -8.19930       -2.66480       -3.20850
C         -6.43430       -0.33970       -2.80210
C         -6.43140        0.87600       -2.11810
C         -6.46900        2.07540       -2.79820
C         -6.53550        2.08270       -4.18390
S         -6.60440        3.57940       -5.12070
C         -7.40720        4.72800       -3.96130
C         -6.54440        0.87580       -4.87570
C         -6.49310       -0.32210       -4.19480
C         -5.94700       -2.10110        0.32030
S         -7.34430       -2.92230        0.91450
C         -3.46000       -0.36650       -1.84850
C         -2.46310       -1.05550       -2.49990
N         -2.33810       -2.44750       -2.55020
C         -3.22750       -3.22180       -3.29330
C         -3.34140       -4.58910       -3.05090
C         -4.21050       -5.36930       -3.78870
C         -4.98850       -4.79340       -4.78320
S         -6.13890       -5.67280       -5.79220
C         -6.01410       -7.38910       -5.22030
C         -4.87810       -3.42790       -5.02780
C         -4.01340       -2.64850       -4.29300
C         -1.06500       -2.91500       -2.17220
C         -0.50360       -2.42160       -0.99390
C          0.80030       -2.72260       -0.66310
C          1.55680       -3.52960       -1.50000
S          3.25740       -3.82850       -1.07860
C          4.06840       -3.22530       -2.59310
C          0.98630       -4.07670       -2.64040
C         -0.31640       -3.76840       -2.97960
C         -1.44680       -0.18030       -2.95820
S          0.15490       -0.45850       -3.53730
C          0.57110        1.21910       -3.23050
C         -0.50280        1.96040       -2.76630
N         -0.42810        3.27090       -2.30740
C         -1.44700        4.16360       -2.64120
C         -2.15580        3.99920       -3.83040
C         -3.16860        4.87000       -4.17840
C         -3.47620        5.93970       -3.35000
S         -4.73570        7.12660       -3.72150
C         -4.92160        6.97890       -5.52260
C         -2.78270        6.10190       -2.15330
C         -1.78570        5.22140       -1.79640
C          0.63620        3.61180       -1.46030
C          1.31030        4.82260       -1.59030
C          2.43630        5.08990       -0.83390
C          2.91070        4.14400        0.06390
S          4.38670        4.31350        1.01670
C          4.91270        6.02250        0.71430
C          2.21050        2.95120        0.23390
C          1.08450        2.68990       -0.51100
C         -1.65770        1.14800       -2.63720
S         -3.19120        1.37430       -1.86710
C          1.96160        1.54320       -3.10870
C          2.63230        2.69990       -3.36030
C          3.93580        2.73980       -2.79890
C          4.87860        3.79450       -2.84070
C          4.67370        4.99470       -3.62030
C          5.17620        6.24590       -3.37240
C          4.91020        7.23680       -4.33250
C          4.19580        6.81220       -5.41770
S          3.72740        7.84280       -6.74530
C          2.90250        6.62350       -7.83370
C          2.41730        7.29750       -9.10000
Se         3.74880        4.99330       -5.26740
C          6.03870        3.59730       -2.08990
C          6.27260        2.43000       -1.32140
C          5.36350        1.35560       -1.32120
C          5.58000        0.13100       -0.57450
C          4.64080       -0.48930        0.20400
C          5.05900       -1.67240        0.84010
C          6.33530       -2.06170        0.56370
S          7.12310       -3.46390        1.26570
C          6.80600       -4.70410       -0.04830
C          7.68900       -4.49000       -1.25800
Se         7.19840       -0.84720       -0.58920
C          4.21640        1.55540       -2.07480
S          2.93450        0.39310       -2.21480
C          7.49530        2.47670       -0.62730
C          8.26170        3.57750       -0.90720
S          7.40190        4.68580       -1.96550
C          9.61650        3.80100       -0.54810
C         10.45160        2.78660       -0.20560
S          9.96720        1.10780       -0.17860
C         11.61330        0.58490        0.05320
C         11.84640       -0.77010        0.06500
C         13.08260       -1.41300        0.22300
N         14.07380       -1.98340        0.32320
C         10.70350       -1.56140       -0.17420
N          9.71770       -2.10380       -0.41090
N         12.45660        1.63550        0.19200
C         13.85770        1.50490        0.53380
C         14.06560        0.96060        1.92680
C         15.20730        0.22320        2.21050
C         15.41910       -0.27300        3.48340
C         14.49020       -0.04160        4.48390
C         13.35360        0.69750        4.20850
C         13.14400        1.20100        2.93640
C         11.88220        2.90330        0.06880
O         12.52070        3.92580        0.15510
H         -8.42620       -3.77350        3.37130
H         -3.87490       -6.78170        5.33370
H         -4.27620       -6.95120        7.06410
H         -2.20030       -5.29690        4.58220
H         -0.31950       -3.80400        5.09640
H          0.00450       -2.97220        7.40050
H         -1.54400       -3.68070        9.18710
H         -3.40830       -5.19210        8.67730
H         -7.02780       -1.16170        4.36090
H         -8.02580       -1.16310        6.57780
H         -9.08210       -1.12470        8.68620
H         -9.19300       -2.47630        9.83830
H         -9.01860       -2.82660        8.10920
H         -4.40350       -2.74000        8.21080
H         -3.40200       -2.75220        5.96830
H         -3.18500       -0.15880        4.71170
H         -0.81040        0.25280        4.34720
H          2.70150        0.41270        3.36170
H          1.50880        0.16810        4.65400
H          1.06720        1.09240        3.18000
H         -0.54820       -3.32200        2.00590
H         -2.95870       -3.73310        2.39290
H         -5.64930       -4.00590       -1.43990
H         -6.85650       -6.05700       -2.00190
H         -9.26890       -5.69180       -5.76150
H        -10.86760       -5.64330       -4.94680
H        -10.22400       -7.18130       -5.55510
H         -9.74730       -3.76440       -4.15900
H         -8.60480       -1.71420       -3.52030
H         -6.39520        0.88420       -1.03880
H         -6.44300        2.99700       -2.23920
H         -8.23580        4.22050       -3.47760
H         -7.77700        5.55460       -4.56000
H         -6.69110        5.09750       -3.23290
H         -6.58960        0.88590       -5.95410
H         -6.50170       -1.25230       -4.73890
H         -2.74040       -5.04250       -2.27640
H         -4.27390       -6.42350       -3.57270
H         -6.69440       -7.95640       -5.84780
H         -4.99920       -7.75140       -5.35480
H         -6.33210       -7.45670       -4.18450
H         -5.46870       -2.99410       -5.82090
H         -3.92920       -1.59150       -4.49960
H         -1.08800       -1.77520       -0.35470
H          1.24620       -2.32210        0.23350
H          5.09410       -2.99280       -2.32270
H          4.05060       -3.98960       -3.36450
H          3.55890       -2.32610       -2.92400
H          1.56760       -4.72360       -3.27980
H         -0.74860       -4.16270       -3.88740
H         -1.90810        3.18400       -4.49420
H         -3.70800        4.70370       -5.09670
H         -5.54640        7.81430       -5.82270
H         -3.94510        7.05680       -5.99080
H         -5.40720        6.04260       -5.78210
H         -3.03910        6.92530       -1.50430
H         -1.26220        5.34780       -0.86070
H          0.96700        5.55090       -2.31050
H          2.94770        6.02770       -0.97910
H          5.78620        6.17570        1.34050
H          5.18160        6.14870       -0.32980
H          4.12270        6.70870        1.00450
H          2.57270        2.23200        0.95280
H          0.55250        1.75900       -0.37720
H          2.16900        3.51470       -3.89020
H          5.72720        6.48430       -2.47870
H          5.24780        8.25340       -4.23020
H          3.63320        5.84030       -8.05370
H          2.07080        6.19490       -7.26570
H          1.70740        8.08660       -8.86300
H          1.92870        6.56800       -9.74200
H          3.25270        7.73570       -9.64080
H          3.65720       -0.07970        0.36140
H          4.41870       -2.24020        1.49320
H          5.74460       -4.64290       -0.28930
H          7.01250       -5.65980        0.43150
H          7.44520       -5.21670       -2.03090
H          8.73600       -4.59550       -0.98620
H          7.55120       -3.48740       -1.66470
H          7.73940        1.74950        0.12490
H         10.03180        4.79560       -0.63270
H         14.35770        0.86630       -0.20040
H         14.27210        2.51830        0.46230
H         15.92550        0.02930        1.42850
H         16.30790       -0.84870        3.69150
H         14.65120       -0.43660        5.47560
H         12.62560        0.88480        4.98360
H         12.25690        1.78700        2.73780
