242

C         -2.20360        7.44660       -3.43060
C         -2.63710        8.43320       -2.59540
S         -2.59660        8.41410       -0.84580
C         -3.30750       10.01210       -0.78170
C         -3.52920       10.61330        0.43440
C         -3.21470        9.90260        1.60660
N         -2.95870        9.32180        2.56370
C         -4.01610       11.91230        0.64780
N         -4.38370       12.97150        0.89740
N         -3.55510       10.50180       -2.02100
C         -4.23800       11.74930       -2.28600
C         -5.68580       11.73150       -1.85880
C         -6.40720       10.54760       -1.80020
C         -7.73640       10.55720       -1.41390
C         -8.35780       11.75040       -1.09270
C         -7.64600       12.93630       -1.16220
C         -6.31680       12.92710       -1.54110
C         -3.21110        9.67000       -3.08620
O         -3.37540        9.98190       -4.24740
C         -1.62770        6.22460       -3.06970
C         -1.23120        5.18570       -3.93080
N         -1.22110        5.23900       -5.30560
C         -0.80000        6.40390       -5.97380
C          0.23950        7.18270       -5.46370
C          0.63800        8.32120       -6.12600
C          0.01470        8.70420       -7.31320
S          0.61150       10.17600       -8.07670
C         -0.67280       10.57660       -9.29530
C         -1.00320        7.91600       -7.83550
C         -1.40630        6.77520       -7.16900
C         -1.31100        4.03110       -6.01900
C         -2.27530        3.08520       -5.66610
C         -2.31500        1.86440       -6.30030
C         -1.40000        1.55980       -7.30640
S         -1.51390       -0.05080       -8.01340
C         -0.03290       -0.18700       -9.05130
C         -0.47500        2.51910       -7.69790
C         -0.43280        3.74290       -7.05880
C         -0.79450        4.06880       -3.19730
S         -0.14880        2.53150       -3.64740
C          0.20840        2.16420       -1.96690
C         -0.15060        3.20370       -1.11140
N          0.09770        3.24360        0.25270
C         -0.92000        3.78860        1.05690
C         -0.66810        4.80720        1.97010
C         -1.69040        5.33800        2.73120
C         -2.98560        4.85650        2.58890
S         -4.36190        5.42450        3.53150
C         -3.69850        6.80030        4.50860
C         -3.24210        3.84140        1.66730
C         -2.22240        3.31360        0.90820
C          1.39120        3.05730        0.75100
C          1.58430        2.72810        2.09350
C          2.85460        2.53690        2.58700
C          3.96670        2.65920        1.75480
S          5.54100        2.37100        2.49540
C          6.72330        2.82610        1.19170
C          3.77940        2.99430        0.42130
C          2.50510        3.20030       -0.07090
C         -0.75160        4.26090       -1.82260
S         -1.34660        5.81500       -1.37130
C          0.61960        0.85990       -1.60340
C          1.17670       -0.12910       -2.41080
N          1.64850        0.04410       -3.70390
C          1.27520       -0.89700       -4.67730
C         -0.00630       -1.43820       -4.67710
C         -0.39290       -2.33720       -5.65080
C          0.49660       -2.69850       -6.65250
S          0.09700       -3.78660       -7.98290
C         -1.69430       -4.02470       -7.82000
C          1.78890       -2.17550       -6.64370
C          2.17800       -1.28990       -5.66460
C          2.37920        1.17720       -4.06510
C          2.23290        1.74230       -5.33260
C          2.86550        2.92370       -5.65900
C          3.65570        3.57160       -4.71970
S          4.43860        5.13080       -4.99770
C          3.62930        5.75480       -6.49820
C          3.85520        2.97980       -3.47410
C          3.23130        1.79570       -3.14960
C          1.17250       -1.37780       -1.74800
S          1.64970       -2.97290       -2.20640
C          1.12070       -3.59410       -0.65050
C          0.52030       -2.61810        0.14320
N         -0.23950       -2.85000        1.26750
C         -0.89500       -4.06980        1.47960
C         -1.47740       -4.77200        0.42620
C         -2.05460       -6.00850        0.63400
C         -2.07660       -6.56160        1.90750
S         -2.73660       -8.16130        2.26260
C         -2.90340       -8.93490        0.62880
C         -1.56850       -5.82810        2.97810
C         -0.98300       -4.59950        2.76720
C         -0.42130       -1.81100        2.19480
C          0.66010       -1.03280        2.60010
C          0.47450        0.00170        3.48900
C         -0.80120        0.31120        3.95320
S         -0.94240        1.71540        5.01420
C         -2.71290        2.11220        4.95780
C         -1.87920       -0.47700        3.56980
C         -1.68700       -1.53610        2.70540
C          0.61670       -1.34860       -0.47740
S          0.16070        0.25460       -0.01450
C          1.27540       -4.98200       -0.31740
C          0.96660       -6.01070       -1.20170
F          0.62130       -5.71780       -2.46960
C          0.84210       -7.33400       -0.78360
F          0.36220       -8.23070       -1.66460
C          1.07190       -7.73030        0.53060
C          1.63150       -6.73430        1.38570
N          2.19790       -7.09760        2.53770
C          2.64190       -6.19510        3.39390
C          3.35190       -6.70730        4.55980
C          3.36520       -8.08550        4.78820
C          3.94670       -8.63660        5.90940
C          4.58270       -7.82900        6.85110
O          5.17320       -8.25230        7.98100
C          5.15580       -9.63470        8.29290
C          5.86480       -9.81160        9.62530
C          4.62500       -6.45210        6.57690
C          4.03300       -5.89370        5.47090
F          5.27570       -5.64450        7.43750
C          2.40020       -4.81350        3.10370
N          2.01780       -4.45090        1.90140
C          1.66790       -5.37360        0.99530
C          2.45250       -3.72970        4.09210
C          1.67490       -3.80630        5.24360
C          1.57000       -2.72590        6.09960
C          2.25640       -1.53980        5.84620
O          2.19460       -0.40120        6.56410
C          1.36310       -0.32740        7.70670
C          2.00790       -0.95450        8.93810
C          3.07790       -1.50730        4.70880
F          3.76950       -0.38150        4.44530
C          3.16250       -2.56120        3.83000
C          0.74140       -9.04790        0.97710
C          0.44900       -9.41740        2.24770
S          0.34500       -8.37990        3.64460
C         -0.12990       -9.71600        4.65560
C         -0.36820       -9.48040        5.98840
C         -0.19100       -8.16130        6.45050
N         -0.02160       -7.08170        6.80330
C         -0.80610      -10.40910        6.94190
N         -1.18610      -11.12460        7.75670
N         -0.16300      -10.88750        3.97160
C         -0.19870      -12.18980        4.60840
C          1.07790      -12.44240        5.37710
C          2.30220      -12.07370        4.83220
C          3.47560      -12.29010        5.53260
C          3.43690      -12.87600        6.78670
C          2.22130      -13.25790        7.32810
C          1.04720      -13.04430        6.62720
C          0.11470      -10.79610        2.61190
O          0.08630      -11.74800        1.86530
H         -2.34180        7.64730       -4.48580
H         -3.70870       12.57360       -1.79930
H         -4.17560       11.88360       -3.37370
H         -5.93760        9.60840       -2.05910
H         -8.28460        9.62790       -1.36440
H         -9.39360       11.75620       -0.78820
H         -8.12460       13.87090       -0.91270
H         -5.75910       13.85040       -1.57980
H          0.72550        6.89190       -4.54390
H          1.43970        8.92780       -5.73420
H         -0.42530       11.56630       -9.66620
H         -0.65410        9.86370      -10.11470
H         -1.64190       10.59530       -8.80590
H         -1.49390        8.18120       -8.75760
H         -2.20120        6.16560       -7.57260
H         -2.98330        3.31360       -4.88360
H         -3.05160        1.12750       -6.02040
H         -0.10020        0.49520       -9.89380
H         -0.01660       -1.21260       -9.40760
H          0.85210        0.00230       -8.45060
H          0.22680        2.32230       -8.49260
H          0.29820        4.47920       -7.35940
H          0.33510        5.19090        2.07850
H         -1.46790        6.13610        3.41950
H         -2.92630        6.43880        5.18160
H         -3.32770        7.57880        3.84740
H         -4.53950        7.17620        5.08350
H         -4.25190        3.47430        1.55960
H         -2.42010        2.52290        0.19880
H          0.72940        2.63290        2.74350
H          3.00880        2.28540        3.62500
H          7.70520        2.73410        1.64540
H          6.64300        2.14160        0.35210
H          6.55610        3.85330        0.88150
H          4.61750        3.11140       -0.24670
H          2.37950        3.48700       -1.10440
H         -0.71180       -1.13710       -3.91650
H         -1.39440       -2.73300       -5.62520
H         -1.91400       -4.59020       -6.91920
H         -1.99470       -4.59490       -8.69360
H         -2.19010       -3.05810       -7.81690
H          2.48150       -2.47590       -7.41530
H          3.18060       -0.88880       -5.66040
H          1.57970        1.27240       -6.05160
H          2.71610        3.33840       -6.64250
H          3.92950        5.16810       -7.36160
H          2.55090        5.74510       -6.36550
H          3.97430        6.77760       -6.61420
H          4.50110        3.47120       -2.76260
H          3.38070        1.35230       -2.17650
H         -1.48040       -4.34670       -0.56650
H         -2.49140       -6.52660       -0.20450
H         -3.72620       -8.48560        0.08040
H         -3.11930       -9.98150        0.82090
H         -1.96820       -8.84760        0.08390
H         -1.62350       -6.23570        3.97580
H         -0.56910       -4.04700        3.59690
H          1.64270       -1.25310        2.21650
H          1.31440        0.58610        3.82410
H         -3.28570        1.37750        5.51630
H         -3.03800        2.16990        3.92330
H         -2.81350        3.08560        5.42690
H         -2.87330       -0.27320        3.93410
H         -2.52680       -2.14770        2.40980
H          2.90960       -8.73320        4.05940
H          3.90090       -9.70470        6.05140
H          4.11920       -9.99210        8.35860
H          5.67370      -10.19990        7.50610
H          5.34910       -9.24750       10.39700
H          5.87830      -10.86250        9.89920
H          6.88550       -9.44620        9.55400
H          4.12220       -4.83000        5.32910
H          1.13410       -4.71430        5.46800
H          0.93540       -2.81840        6.96550
H          1.22030        0.74510        7.86290
H          0.38590       -0.77810        7.49660
H          1.35580       -0.82560        9.79740
H          2.95940       -0.46980        9.14120
H          2.18950       -2.01620        8.78940
H          3.78370       -2.47940        2.95220
H          0.65530       -9.82390        0.22490
H         -0.29910      -12.91460        3.79190
H         -1.06950      -12.26650        5.26270
H          2.34570      -11.62450        3.84940
H          4.42110      -12.00890        5.09120
H          4.35200      -13.04020        7.33660
H          2.18460      -13.72130        8.30220
H          0.10210      -13.33600        7.05870
