
  xtb     02062201223D
 energy: -265.537345948381 gnorm: 0.000707445752 xtb: 6.4.1 (unknown)
159173  0     0  0            999 V2000
    5.9517   -0.6203   -3.9227 C   0  0  0  0  0  0  0  0  0  0  0  0
    6.3908    0.6417   -4.1066 C   0  0  0  0  0  0  0  0  0  0  0  0
    6.4563    1.8787   -2.8708 S   0  0  0  0  0  0  0  0  0  0  0  0
    6.7029    3.1154   -4.0901 C   0  0  0  0  0  0  0  0  0  0  0  0
    6.7242    4.4370   -3.7305 C   0  0  0  0  0  0  0  0  0  0  0  0
    6.4937    4.7828   -2.3833 C   0  0  0  0  0  0  0  0  0  0  0  0
    6.2726    5.0758   -1.2959 N   0  0  0  0  0  0  0  0  0  0  0  0
    6.8520    5.5399   -4.5918 C   0  0  0  0  0  0  0  0  0  0  0  0
    6.9142    6.4962   -5.2244 N   0  0  0  0  0  0  0  0  0  0  0  0
    6.8560    2.5787   -5.3272 N   0  0  0  0  0  0  0  0  0  0  0  0
    7.1667    3.3470   -6.5132 C   0  0  0  0  0  0  0  0  0  0  0  0
    8.5506    3.9480   -6.4787 C   0  0  0  0  0  0  0  0  0  0  0  0
    9.5696    3.3730   -5.7325 C   0  0  0  0  0  0  0  0  0  0  0  0
   10.8342    3.9359   -5.7249 C   0  0  0  0  0  0  0  0  0  0  0  0
   11.0933    5.0719   -6.4702 C   0  0  0  0  0  0  0  0  0  0  0  0
   10.0833    5.6422   -7.2270 C   0  0  0  0  0  0  0  0  0  0  0  0
    8.8185    5.0849   -7.2300 C   0  0  0  0  0  0  0  0  0  0  0  0
    6.7102    1.2045   -5.4219 C   0  0  0  0  0  0  0  0  0  0  0  0
    6.8104    0.5875   -6.4551 O   0  0  0  0  0  0  0  0  0  0  0  0
    5.4719   -1.0929   -2.6658 C   0  0  0  0  0  0  0  0  0  0  0  0
    5.8961   -0.7978   -1.3987 C   0  0  0  0  0  0  0  0  0  0  0  0
    5.0096   -1.2335   -0.3896 C   0  0  0  0  0  0  0  0  0  0  0  0
    5.5016   -1.0834    1.2867 S   0  0  0  0  0  0  0  0  0  0  0  0
    4.4115   -2.2265    2.1991 C   0  0  0  0  0  0  0  0  0  0  0  0
    4.6448   -3.6775    1.8283 C   0  0  0  0  0  0  0  0  0  0  0  0
    3.8604   -1.7963   -0.9002 C   0  0  0  0  0  0  0  0  0  0  0  0
    3.9876   -1.9979   -2.6343 S   0  0  0  0  0  0  0  0  0  0  0  0
    2.5546   -1.9569   -0.3125 C   0  0  0  0  0  0  0  0  0  0  0  0
    1.7622   -0.9194    0.1479 C   0  0  0  0  0  0  0  0  0  0  0  0
    2.2000    0.4179    0.2545 N   0  0  0  0  0  0  0  0  0  0  0  0
    2.4173    1.1639   -0.8998 C   0  0  0  0  0  0  0  0  0  0  0  0
    2.7968    2.5076   -0.8383 C   0  0  0  0  0  0  0  0  0  0  0  0
    3.1176    3.2132   -1.9789 C   0  0  0  0  0  0  0  0  0  0  0  0
    3.0249    2.6075   -3.2236 C   0  0  0  0  0  0  0  0  0  0  0  0
    3.5345    3.4001   -4.7285 S   0  0  0  0  0  0  0  0  0  0  0  0
    3.2684    5.1607   -4.3709 C   0  0  0  0  0  0  0  0  0  0  0  0
    2.5272    1.3143   -3.3084 C   0  0  0  0  0  0  0  0  0  0  0  0
    2.2112    0.6095   -2.1662 C   0  0  0  0  0  0  0  0  0  0  0  0
    2.6826    0.8193    1.5213 C   0  0  0  0  0  0  0  0  0  0  0  0
    3.9054    1.4718    1.6624 C   0  0  0  0  0  0  0  0  0  0  0  0
    4.3757    1.8422    2.9074 C   0  0  0  0  0  0  0  0  0  0  0  0
    3.6445    1.5420    4.0474 C   0  0  0  0  0  0  0  0  0  0  0  0
    4.1531    1.9451    5.6891 S   0  0  0  0  0  0  0  0  0  0  0  0
    5.6397    2.9575    5.4470 C   0  0  0  0  0  0  0  0  0  0  0  0
    2.4364    0.8626    3.9172 C   0  0  0  0  0  0  0  0  0  0  0  0
    1.9607    0.5088    2.6734 C   0  0  0  0  0  0  0  0  0  0  0  0
    0.4663   -1.3839    0.4692 C   0  0  0  0  0  0  0  0  0  0  0  0
   -0.9914   -0.6272    1.0110 S   0  0  0  0  0  0  0  0  0  0  0  0
   -1.8272   -2.1749    0.9926 C   0  0  0  0  0  0  0  0  0  0  0  0
   -1.0291   -3.2073    0.5087 C   0  0  0  0  0  0  0  0  0  0  0  0
   -1.4507   -4.4906    0.2326 N   0  0  0  0  0  0  0  0  0  0  0  0
   -0.5263   -5.5360    0.3788 C   0  0  0  0  0  0  0  0  0  0  0  0
   -0.4265   -6.5515   -0.5729 C   0  0  0  0  0  0  0  0  0  0  0  0
    0.5054   -7.5516   -0.4194 C   0  0  0  0  0  0  0  0  0  0  0  0
    1.3640   -7.5625    0.6802 C   0  0  0  0  0  0  0  0  0  0  0  0
    2.5240   -8.8883    0.7526 S   0  0  0  0  0  0  0  0  0  0  0  0
    3.5081   -8.5319    2.2358 C   0  0  0  0  0  0  0  0  0  0  0  0
    1.2610   -6.5594    1.6339 C   0  0  0  0  0  0  0  0  0  0  0  0
    0.3206   -5.5588    1.4839 C   0  0  0  0  0  0  0  0  0  0  0  0
   -2.7022   -4.7258   -0.3625 C   0  0  0  0  0  0  0  0  0  0  0  0
   -3.3943   -5.9060   -0.0909 C   0  0  0  0  0  0  0  0  0  0  0  0
   -4.6171   -6.1424   -0.6771 C   0  0  0  0  0  0  0  0  0  0  0  0
   -5.1863   -5.2034   -1.5363 C   0  0  0  0  0  0  0  0  0  0  0  0
   -6.7493   -5.6123   -2.2371 S   0  0  0  0  0  0  0  0  0  0  0  0
   -7.2823   -4.0697   -3.0290 C   0  0  0  0  0  0  0  0  0  0  0  0
   -4.5007   -4.0263   -1.8064 C   0  0  0  0  0  0  0  0  0  0  0  0
   -3.2697   -3.7953   -1.2273 C   0  0  0  0  0  0  0  0  0  0  0  0
    0.2815   -2.7400    0.2427 C   0  0  0  0  0  0  0  0  0  0  0  0
    1.7078   -3.4864   -0.3830 S   0  0  0  0  0  0  0  0  0  0  0  0
   -3.1564   -2.2478    1.4857 C   0  0  0  0  0  0  0  0  0  0  0  0
   -3.8107   -3.3309    2.0311 C   0  0  0  0  0  0  0  0  0  0  0  0
   -5.1032   -3.0327    2.4731 C   0  0  0  0  0  0  0  0  0  0  0  0
   -6.0919   -4.2562    3.2516 S   0  0  0  0  0  0  0  0  0  0  0  0
   -7.7084   -4.1290    2.3921 C   0  0  0  0  0  0  0  0  0  0  0  0
   -7.5765   -4.4500    0.9203 C   0  0  0  0  0  0  0  0  0  0  0  0
   -5.4697   -1.7040    2.2805 C   0  0  0  0  0  0  0  0  0  0  0  0
   -4.1707   -0.8364    1.4915 S   0  0  0  0  0  0  0  0  0  0  0  0
   -6.6013   -1.0509    2.8073 C   0  0  0  0  0  0  0  0  0  0  0  0
   -7.0893    0.1840    2.5041 C   0  0  0  0  0  0  0  0  0  0  0  0
   -7.9440    0.9098    3.4796 C   0  0  0  0  0  0  0  0  0  0  0  0
   -8.5107    0.4357    4.4386 O   0  0  0  0  0  0  0  0  0  0  0  0
   -7.9050    2.3221    3.0501 C   0  0  0  0  0  0  0  0  0  0  0  0
   -8.4338    3.4241    3.7174 C   0  0  0  0  0  0  0  0  0  0  0  0
   -8.2090    4.6234    3.0842 C   0  0  0  0  0  0  0  0  0  0  0  0
   -7.4981    4.7269    1.8806 C   0  0  0  0  0  0  0  0  0  0  0  0
   -6.9756    3.6487    1.2068 C   0  0  0  0  0  0  0  0  0  0  0  0
   -7.2065    2.4195    1.8275 C   0  0  0  0  0  0  0  0  0  0  0  0
   -6.8412    1.0739    1.3951 C   0  0  0  0  0  0  0  0  0  0  0  0
   -6.5819    0.6978    0.1008 C   0  0  0  0  0  0  0  0  0  0  0  0
   -6.4607    1.5968   -0.9769 C   0  0  0  0  0  0  0  0  0  0  0  0
   -6.3434    2.2781   -1.8938 N   0  0  0  0  0  0  0  0  0  0  0  0
   -6.5308   -0.6426   -0.3213 C   0  0  0  0  0  0  0  0  0  0  0  0
   -6.5422   -1.7169   -0.7304 N   0  0  0  0  0  0  0  0  0  0  0  0
   -7.6475    6.2265    1.8287 C   0  0  0  0  0  0  0  0  0  0  0  0
   -8.6946    6.8103    0.8486 C   0  0  0  0  0  0  0  0  0  0  0  0
   -9.7446    5.7435    0.6599 C   0  0  0  0  0  0  0  0  0  0  0  0
  -10.4263    5.6422    1.7931 C   0  0  0  0  0  0  0  0  0  0  0  0
   -9.8495    6.6384    2.7686 C   0  0  0  0  0  0  0  0  0  0  0  0
   -9.4403    7.7596    1.8000 C   0  0  0  0  0  0  0  0  0  0  0  0
   -8.4480    6.1101    3.1641 C   0  0  0  0  0  0  0  0  0  0  0  0
    5.8410   -1.2450   -4.7990 H   0  0  0  0  0  0  0  0  0  0  0  0
    6.4114    4.1256   -6.6535 H   0  0  0  0  0  0  0  0  0  0  0  0
    7.0928    2.6358   -7.3455 H   0  0  0  0  0  0  0  0  0  0  0  0
    9.3852    2.4777   -5.1544 H   0  0  0  0  0  0  0  0  0  0  0  0
   11.6170    3.4824   -5.1350 H   0  0  0  0  0  0  0  0  0  0  0  0
   12.0793    5.5116   -6.4615 H   0  0  0  0  0  0  0  0  0  0  0  0
   10.2789    6.5283   -7.8114 H   0  0  0  0  0  0  0  0  0  0  0  0
    8.0287    5.5381   -7.8095 H   0  0  0  0  0  0  0  0  0  0  0  0
    6.8237   -0.3035   -1.1737 H   0  0  0  0  0  0  0  0  0  0  0  0
    4.6710   -2.0400    3.2413 H   0  0  0  0  0  0  0  0  0  0  0  0
    3.3801   -1.9183    2.0376 H   0  0  0  0  0  0  0  0  0  0  0  0
    4.4293   -3.8527    0.7763 H   0  0  0  0  0  0  0  0  0  0  0  0
    3.9908   -4.3130    2.4220 H   0  0  0  0  0  0  0  0  0  0  0  0
    5.6779   -3.9567    2.0214 H   0  0  0  0  0  0  0  0  0  0  0  0
    2.8417    3.0158    0.1111 H   0  0  0  0  0  0  0  0  0  0  0  0
    3.4470    4.2350   -1.8786 H   0  0  0  0  0  0  0  0  0  0  0  0
    3.3604    5.6775   -5.3212 H   0  0  0  0  0  0  0  0  0  0  0  0
    4.0214    5.5321   -3.6807 H   0  0  0  0  0  0  0  0  0  0  0  0
    2.2701    5.2931   -3.9654 H   0  0  0  0  0  0  0  0  0  0  0  0
    2.3931    0.8583   -4.2775 H   0  0  0  0  0  0  0  0  0  0  0  0
    1.7881   -0.3775   -2.2672 H   0  0  0  0  0  0  0  0  0  0  0  0
    4.5130    1.6803    0.7956 H   0  0  0  0  0  0  0  0  0  0  0  0
    5.3268    2.3448    2.9664 H   0  0  0  0  0  0  0  0  0  0  0  0
    5.9309    3.2897    6.4387 H   0  0  0  0  0  0  0  0  0  0  0  0
    5.4033    3.8149    4.8240 H   0  0  0  0  0  0  0  0  0  0  0  0
    6.4340    2.3585    5.0111 H   0  0  0  0  0  0  0  0  0  0  0  0
    1.8696    0.6215    4.8034 H   0  0  0  0  0  0  0  0  0  0  0  0
    1.0149   -0.0032    2.6013 H   0  0  0  0  0  0  0  0  0  0  0  0
   -1.0765   -6.5424   -1.4344 H   0  0  0  0  0  0  0  0  0  0  0  0
    0.5900   -8.3347   -1.1568 H   0  0  0  0  0  0  0  0  0  0  0  0
    3.9923   -7.5648    2.1358 H   0  0  0  0  0  0  0  0  0  0  0  0
    2.8796   -8.5728    3.1207 H   0  0  0  0  0  0  0  0  0  0  0  0
    4.2574   -9.3159    2.2821 H   0  0  0  0  0  0  0  0  0  0  0  0
    1.8981   -6.5475    2.5034 H   0  0  0  0  0  0  0  0  0  0  0  0
    0.2375   -4.7865    2.2354 H   0  0  0  0  0  0  0  0  0  0  0  0
   -2.9674   -6.6343    0.5828 H   0  0  0  0  0  0  0  0  0  0  0  0
   -5.1503   -7.0578   -0.4707 H   0  0  0  0  0  0  0  0  0  0  0  0
   -6.6789   -3.8761   -3.9115 H   0  0  0  0  0  0  0  0  0  0  0  0
   -8.3153   -4.2320   -3.3205 H   0  0  0  0  0  0  0  0  0  0  0  0
   -7.2180   -3.2542   -2.3151 H   0  0  0  0  0  0  0  0  0  0  0  0
   -4.9096   -3.2821   -2.4687 H   0  0  0  0  0  0  0  0  0  0  0  0
   -2.7405   -2.8836   -1.4618 H   0  0  0  0  0  0  0  0  0  0  0  0
   -3.3694   -4.3015    2.1525 H   0  0  0  0  0  0  0  0  0  0  0  0
   -8.3215   -4.8674    2.9090 H   0  0  0  0  0  0  0  0  0  0  0  0
   -8.1270   -3.1389    2.5555 H   0  0  0  0  0  0  0  0  0  0  0  0
   -8.5614   -4.4618    0.4581 H   0  0  0  0  0  0  0  0  0  0  0  0
   -6.9687   -3.7006    0.4171 H   0  0  0  0  0  0  0  0  0  0  0  0
   -7.1158   -5.4247    0.7804 H   0  0  0  0  0  0  0  0  0  0  0  0
   -7.0693   -1.5426    3.6561 H   0  0  0  0  0  0  0  0  0  0  0  0
   -8.9678    3.3067    4.6474 H   0  0  0  0  0  0  0  0  0  0  0  0
   -6.4212    3.7355    0.2864 H   0  0  0  0  0  0  0  0  0  0  0  0
   -6.7216    6.7981    1.8380 H   0  0  0  0  0  0  0  0  0  0  0  0
   -8.2752    7.2367   -0.0587 H   0  0  0  0  0  0  0  0  0  0  0  0
   -9.8416    5.1507   -0.2307 H   0  0  0  0  0  0  0  0  0  0  0  0
  -11.2080    4.9475    2.0389 H   0  0  0  0  0  0  0  0  0  0  0  0
  -10.4830    6.9092    3.6091 H   0  0  0  0  0  0  0  0  0  0  0  0
  -10.2953    8.2419    1.3288 H   0  0  0  0  0  0  0  0  0  0  0  0
   -8.7973    8.5122    2.2543 H   0  0  0  0  0  0  0  0  0  0  0  0
   -8.0494    6.6115    4.0441 H   0  0  0  0  0  0  0  0  0  0  0  0
  1  2  2  0  0  0  0
  2  3  1  0  0  0  0
  3  4  1  0  0  0  0
  4  5  2  0  0  0  0
  5  6  1  0  0  0  0
  6  7  3  0  0  0  0
  5  8  1  0  0  0  0
  8  9  3  0  0  0  0
  4 10  1  0  0  0  0
 10 11  1  0  0  0  0
 11 12  1  0  0  0  0
 12 13  2  0  0  0  0
 13 14  1  0  0  0  0
 14 15  2  0  0  0  0
 15 16  1  0  0  0  0
 16 17  2  0  0  0  0
 10 18  1  0  0  0  0
 18 19  2  0  0  0  0
  1 20  1  0  0  0  0
 20 21  2  0  0  0  0
 21 22  1  0  0  0  0
 22 23  1  0  0  0  0
 23 24  1  0  0  0  0
 24 25  1  0  0  0  0
 22 26  2  0  0  0  0
 26 27  1  0  0  0  0
 26 28  1  0  0  0  0
 28 29  2  0  0  0  0
 29 30  1  0  0  0  0
 30 31  1  0  0  0  0
 31 32  2  0  0  0  0
 32 33  1  0  0  0  0
 33 34  2  0  0  0  0
 34 35  1  0  0  0  0
 35 36  1  0  0  0  0
 34 37  1  0  0  0  0
 37 38  2  0  0  0  0
 30 39  1  0  0  0  0
 39 40  2  0  0  0  0
 40 41  1  0  0  0  0
 41 42  2  0  0  0  0
 42 43  1  0  0  0  0
 43 44  1  0  0  0  0
 42 45  1  0  0  0  0
 45 46  2  0  0  0  0
 29 47  1  0  0  0  0
 47 48  1  0  0  0  0
 48 49  1  0  0  0  0
 49 50  2  0  0  0  0
 50 51  1  0  0  0  0
 51 52  1  0  0  0  0
 52 53  2  0  0  0  0
 53 54  1  0  0  0  0
 54 55  2  0  0  0  0
 55 56  1  0  0  0  0
 56 57  1  0  0  0  0
 55 58  1  0  0  0  0
 58 59  2  0  0  0  0
 51 60  1  0  0  0  0
 60 61  2  0  0  0  0
 61 62  1  0  0  0  0
 62 63  2  0  0  0  0
 63 64  1  0  0  0  0
 64 65  1  0  0  0  0
 63 66  1  0  0  0  0
 66 67  2  0  0  0  0
 50 68  1  0  0  0  0
 68 69  1  0  0  0  0
 49 70  1  0  0  0  0
 70 71  2  0  0  0  0
 71 72  1  0  0  0  0
 72 73  1  0  0  0  0
 73 74  1  0  0  0  0
 74 75  1  0  0  0  0
 72 76  2  0  0  0  0
 76 77  1  0  0  0  0
 76 78  1  0  0  0  0
 78 79  2  0  0  0  0
 79 80  1  0  0  0  0
 80 81  2  0  0  0  0
 80 82  1  0  0  0  0
 82 83  2  0  0  0  0
 83 84  1  0  0  0  0
 84 85  2  0  0  0  0
 85 86  1  0  0  0  0
 86 87  2  0  0  0  0
 87 88  1  0  0  0  0
 88 89  2  0  0  0  0
 89 90  1  0  0  0  0
 90 91  3  0  0  0  0
 89 92  1  0  0  0  0
 92 93  3  0  0  0  0
 85 94  1  0  0  0  0
 94 95  1  0  0  0  0
 95 96  1  0  0  0  0
 96 97  2  0  0  0  0
 97 98  1  0  0  0  0
 98 99  1  0  0  0  0
 98100  1  0  0  0  0
 18  2  1  0  0  0  0
 27 20  1  0  0  0  0
 69 28  1  0  0  0  0
 77 70  1  0  0  0  0
 88 79  1  0  0  0  0
100 94  1  0  0  0  0
 17 12  1  0  0  0  0
 38 31  1  0  0  0  0
 46 39  1  0  0  0  0
 68 47  2  0  0  0  0
 87 82  1  0  0  0  0
 99 95  1  0  0  0  0
 59 52  1  0  0  0  0
 67 60  1  0  0  0  0
100 84  1  0  0  0  0
  1101  1  0  0  0  0
 11102  1  0  0  0  0
 11103  1  0  0  0  0
 13104  1  0  0  0  0
 14105  1  0  0  0  0
 15106  1  0  0  0  0
 16107  1  0  0  0  0
 17108  1  0  0  0  0
 21109  1  0  0  0  0
 24110  1  0  0  0  0
 24111  1  0  0  0  0
 25112  1  0  0  0  0
 25113  1  0  0  0  0
 25114  1  0  0  0  0
 32115  1  0  0  0  0
 33116  1  0  0  0  0
 36117  1  0  0  0  0
 36118  1  0  0  0  0
 36119  1  0  0  0  0
 37120  1  0  0  0  0
 38121  1  0  0  0  0
 40122  1  0  0  0  0
 41123  1  0  0  0  0
 44124  1  0  0  0  0
 44125  1  0  0  0  0
 44126  1  0  0  0  0
 45127  1  0  0  0  0
 46128  1  0  0  0  0
 53129  1  0  0  0  0
 54130  1  0  0  0  0
 57131  1  0  0  0  0
 57132  1  0  0  0  0
 57133  1  0  0  0  0
 58134  1  0  0  0  0
 59135  1  0  0  0  0
 61136  1  0  0  0  0
 62137  1  0  0  0  0
 65138  1  0  0  0  0
 65139  1  0  0  0  0
 65140  1  0  0  0  0
 66141  1  0  0  0  0
 67142  1  0  0  0  0
 71143  1  0  0  0  0
 74144  1  0  0  0  0
 74145  1  0  0  0  0
 75146  1  0  0  0  0
 75147  1  0  0  0  0
 75148  1  0  0  0  0
 78149  1  0  0  0  0
 83150  1  0  0  0  0
 86151  1  0  0  0  0
 94152  1  0  0  0  0
 95153  1  0  0  0  0
 96154  1  0  0  0  0
 97155  1  0  0  0  0
 98156  1  0  0  0  0
 99157  1  0  0  0  0
 99158  1  0  0  0  0
100159  1  0  0  0  0
M  END
