159

C          5.95170       -0.62030       -3.92270
C          6.39080        0.64170       -4.10660
S          6.45630        1.87870       -2.87080
C          6.70290        3.11540       -4.09010
C          6.72420        4.43700       -3.73050
C          6.49370        4.78280       -2.38330
N          6.27260        5.07580       -1.29590
C          6.85200        5.53990       -4.59180
N          6.91420        6.49620       -5.22440
N          6.85600        2.57870       -5.32720
C          7.16670        3.34700       -6.51320
C          8.55060        3.94800       -6.47870
C          9.56960        3.37300       -5.73250
C         10.83420        3.93590       -5.72490
C         11.09330        5.07190       -6.47020
C         10.08330        5.64220       -7.22700
C          8.81850        5.08490       -7.23000
C          6.71020        1.20450       -5.42190
O          6.81040        0.58750       -6.45510
C          5.47190       -1.09290       -2.66580
C          5.89610       -0.79780       -1.39870
C          5.00960       -1.23350       -0.38960
S          5.50160       -1.08340        1.28670
C          4.41150       -2.22650        2.19910
C          4.64480       -3.67750        1.82830
C          3.86040       -1.79630       -0.90020
S          3.98760       -1.99790       -2.63430
C          2.55460       -1.95690       -0.31250
C          1.76220       -0.91940        0.14790
N          2.20000        0.41790        0.25450
C          2.41730        1.16390       -0.89980
C          2.79680        2.50760       -0.83830
C          3.11760        3.21320       -1.97890
C          3.02490        2.60750       -3.22360
S          3.53450        3.40010       -4.72850
C          3.26840        5.16070       -4.37090
C          2.52720        1.31430       -3.30840
C          2.21120        0.60950       -2.16620
C          2.68260        0.81930        1.52130
C          3.90540        1.47180        1.66240
C          4.37570        1.84220        2.90740
C          3.64450        1.54200        4.04740
S          4.15310        1.94510        5.68910
C          5.63970        2.95750        5.44700
C          2.43640        0.86260        3.91720
C          1.96070        0.50880        2.67340
C          0.46630       -1.38390        0.46920
S         -0.99140       -0.62720        1.01100
C         -1.82720       -2.17490        0.99260
C         -1.02910       -3.20730        0.50870
N         -1.45070       -4.49060        0.23260
C         -0.52630       -5.53600        0.37880
C         -0.42650       -6.55150       -0.57290
C          0.50540       -7.55160       -0.41940
C          1.36400       -7.56250        0.68020
S          2.52400       -8.88830        0.75260
C          3.50810       -8.53190        2.23580
C          1.26100       -6.55940        1.63390
C          0.32060       -5.55880        1.48390
C         -2.70220       -4.72580       -0.36250
C         -3.39430       -5.90600       -0.09090
C         -4.61710       -6.14240       -0.67710
C         -5.18630       -5.20340       -1.53630
S         -6.74930       -5.61230       -2.23710
C         -7.28230       -4.06970       -3.02900
C         -4.50070       -4.02630       -1.80640
C         -3.26970       -3.79530       -1.22730
C          0.28150       -2.74000        0.24270
S          1.70780       -3.48640       -0.38300
C         -3.15640       -2.24780        1.48570
C         -3.81070       -3.33090        2.03110
C         -5.10320       -3.03270        2.47310
S         -6.09190       -4.25620        3.25160
C         -7.70840       -4.12900        2.39210
C         -7.57650       -4.45000        0.92030
C         -5.46970       -1.70400        2.28050
S         -4.17070       -0.83640        1.49150
C         -6.60130       -1.05090        2.80730
C         -7.08930        0.18400        2.50410
C         -7.94400        0.90980        3.47960
O         -8.51070        0.43570        4.43860
C         -7.90500        2.32210        3.05010
C         -8.43380        3.42410        3.71740
C         -8.20900        4.62340        3.08420
C         -7.49810        4.72690        1.88060
C         -6.97560        3.64870        1.20680
C         -7.20650        2.41950        1.82750
C         -6.84120        1.07390        1.39510
C         -6.58190        0.69780        0.10080
C         -6.46070        1.59680       -0.97690
N         -6.34340        2.27810       -1.89380
C         -6.53080       -0.64260       -0.32130
N         -6.54220       -1.71690       -0.73040
C         -7.64750        6.22650        1.82870
C         -8.69460        6.81030        0.84860
C         -9.74460        5.74350        0.65990
C        -10.42630        5.64220        1.79310
C         -9.84950        6.63840        2.76860
C         -9.44030        7.75960        1.80000
C         -8.44800        6.11010        3.16410
H          5.84100       -1.24500       -4.79900
H          6.41140        4.12560       -6.65350
H          7.09280        2.63580       -7.34550
H          9.38520        2.47770       -5.15440
H         11.61700        3.48240       -5.13500
H         12.07930        5.51160       -6.46150
H         10.27890        6.52830       -7.81140
H          8.02870        5.53810       -7.80950
H          6.82370       -0.30350       -1.17370
H          4.67100       -2.04000        3.24130
H          3.38010       -1.91830        2.03760
H          4.42930       -3.85270        0.77630
H          3.99080       -4.31300        2.42200
H          5.67790       -3.95670        2.02140
H          2.84170        3.01580        0.11110
H          3.44700        4.23500       -1.87860
H          3.36040        5.67750       -5.32120
H          4.02140        5.53210       -3.68070
H          2.27010        5.29310       -3.96540
H          2.39310        0.85830       -4.27750
H          1.78810       -0.37750       -2.26720
H          4.51300        1.68030        0.79560
H          5.32680        2.34480        2.96640
H          5.93090        3.28970        6.43870
H          5.40330        3.81490        4.82400
H          6.43400        2.35850        5.01110
H          1.86960        0.62150        4.80340
H          1.01490       -0.00320        2.60130
H         -1.07650       -6.54240       -1.43440
H          0.59000       -8.33470       -1.15680
H          3.99230       -7.56480        2.13580
H          2.87960       -8.57280        3.12070
H          4.25740       -9.31590        2.28210
H          1.89810       -6.54750        2.50340
H          0.23750       -4.78650        2.23540
H         -2.96740       -6.63430        0.58280
H         -5.15030       -7.05780       -0.47070
H         -6.67890       -3.87610       -3.91150
H         -8.31530       -4.23200       -3.32050
H         -7.21800       -3.25420       -2.31510
H         -4.90960       -3.28210       -2.46870
H         -2.74050       -2.88360       -1.46180
H         -3.36940       -4.30150        2.15250
H         -8.32150       -4.86740        2.90900
H         -8.12700       -3.13890        2.55550
H         -8.56140       -4.46180        0.45810
H         -6.96870       -3.70060        0.41710
H         -7.11580       -5.42470        0.78040
H         -7.06930       -1.54260        3.65610
H         -8.96780        3.30670        4.64740
H         -6.42120        3.73550        0.28640
H         -6.72160        6.79810        1.83800
H         -8.27520        7.23670       -0.05870
H         -9.84160        5.15070       -0.23070
H        -11.20800        4.94750        2.03890
H        -10.48300        6.90920        3.60910
H        -10.29530        8.24190        1.32880
H         -8.79730        8.51220        2.25430
H         -8.04940        6.61150        4.04410
