144

C         -7.83820        2.23930        3.35480
C         -8.77100        1.25860        3.60350
C         -8.66920       -0.11920        3.09210
O         -7.83190       -0.58030        2.33640
C         -9.90550       -0.80100        3.52670
C        -10.27400       -2.12010        3.34770
C        -11.50570       -2.53380        3.83240
C        -12.32410       -1.61200        4.46550
F        -13.51970       -2.02730        4.92030
C        -11.97590       -0.28080        4.65480
C        -10.74130        0.12320        4.17720
C        -10.05960        1.41940        4.22570
C        -10.54750        2.55300        4.82720
C        -11.82000        2.64580        5.42470
N        -12.84820        2.78690        5.91670
C         -9.84840        3.77230        4.93910
N         -9.34640        4.79470        5.08770
C         -6.49740        1.99090        3.01100
C         -5.76420        0.84880        3.42230
C         -4.42400        0.56140        2.95690
N         -3.91160       -0.50890        3.56400
S         -4.99220       -1.09220        4.60360
N         -6.15990       -0.02210        4.34410
C         -3.75050        1.38930        2.02460
C         -4.40640        2.62790        1.79440
N         -3.89980        3.63250        1.08470
S         -4.96320        4.84390        1.04740
N         -6.13100        4.14040        1.89890
C         -5.73100        2.92990        2.28040
C         -2.51610        1.12370        1.39940
C         -1.73700       -0.05170        1.32080
N         -2.10440       -1.34050        1.60110
C         -1.06770       -2.21630        1.99500
C         -0.83120       -3.39720        1.29950
C          0.22680       -4.21280        1.64780
C          1.06100       -3.85810        2.70200
S          2.45630       -4.79970        3.21250
C          2.67370       -6.01580        1.88250
C          0.79970       -2.69260        3.42380
C         -0.25150       -1.87700        3.07310
C         -3.38600       -1.85440        1.43470
C         -4.29790       -1.28490        0.54480
C         -5.56830       -1.80140        0.40370
C         -5.95670       -2.91500        1.14030
S         -7.53790       -3.66080        1.04300
C         -8.48880       -2.54710       -0.02470
C         -5.03570       -3.51300        2.00390
C         -3.77100       -2.99760        2.14590
C         -0.45530        0.24380        0.79230
S          0.94930       -0.70830        0.44650
C          1.76680        0.68940       -0.23280
C          0.95470        1.81670       -0.24900
N          1.24540        3.03660       -0.83190
C          2.01760        3.14240       -1.99340
C          2.04460        2.12670       -2.95030
C          2.88150        2.21880       -4.03800
C          3.70180        3.33240       -4.21050
S          4.77860        3.30200       -5.60780
C          5.53270        4.95430       -5.61650
C          3.63970        4.37020       -3.29070
C          2.80630        4.27290       -2.19370
C          0.57200        4.16830       -0.33090
C          0.55090        4.41350        1.04210
C         -0.19910        5.45080        1.54870
C         -0.93940        6.26650        0.69560
S         -1.92600        7.51120        1.46110
C         -2.95240        8.14630        0.10490
C         -0.86930        6.06340       -0.67660
C         -0.11910        5.02110       -1.18430
C         -0.29240        1.55010        0.36840
S         -1.71620        2.49810        0.63830
C          3.11480        0.52200       -0.71960
C          3.50650       -0.71730       -1.25060
C          4.76560       -0.84580       -1.78020
C          5.39840       -2.03530       -2.40970
O          4.91290       -3.12750       -2.58010
C          6.75970       -1.56730       -2.78610
C          6.90000       -0.20710       -2.43600
C          5.67190        0.23420       -1.79510
C          5.31080        1.43940       -1.22110
C          4.04290        1.56960       -0.67900
C          8.07040        0.46500       -2.74260
C          9.09250       -0.23320       -3.36310
C          8.98780       -1.60150       -3.64710
C          7.78050       -2.26910       -3.37590
C         10.10630       -2.27380       -4.25760
C         10.50460       -3.55130       -4.02680
C         10.07310       -4.38810       -2.87180
O          9.25260       -4.13240       -2.02200
C         10.94560       -5.58240       -2.91070
C         10.95180       -6.65270       -2.03980
C         11.86900       -7.66540       -2.28310
Br        11.92040       -9.17070       -1.12680
C         12.75240       -7.60450       -3.35430
C         12.74110       -6.52270       -4.22030
C         11.82830       -5.49890       -4.00110
C         11.57040       -4.25820       -4.72380
C         12.18280       -3.87130       -5.88490
C         13.20000       -4.61020       -6.52720
N         14.03260       -5.16100       -7.09280
C         11.88510       -2.69920       -6.61360
N         11.69740       -1.77560       -7.26920
H         -8.13100        3.28120        3.37700
H         -9.60720       -2.81110        2.85520
H        -11.83880       -3.55410        3.72720
H        -12.66220        0.38240        5.15480
H         -1.47100       -3.66620        0.47220
H          0.39630       -5.11550        1.08440
H          2.75690       -5.50370        0.92870
H          3.60360       -6.52890        2.10720
H          1.85350       -6.72780        1.88390
H          1.43840       -2.43700        4.25480
H         -0.45400       -0.97060        3.62340
H         -4.00870       -0.43080       -0.04880
H         -6.24830       -1.32520       -0.28240
H         -8.08110       -2.55600       -1.03140
H         -9.50310       -2.93460       -0.03470
H         -8.46890       -1.55320        0.41320
H         -5.33590       -4.38220        2.56910
H         -3.08140       -3.44850        2.84230
H          1.40710        1.26350       -2.83740
H          2.91190        1.42670       -4.77010
H          6.14820        4.98790       -6.51000
H          6.15520        5.08850       -4.73670
H          4.75820        5.71340       -5.67340
H          4.24600        5.25410       -3.40480
H          2.77620        5.07610       -1.47190
H          1.10650        3.76870        1.70700
H         -0.23460        5.63230        2.61160
H         -3.47300        7.32320       -0.37580
H         -3.66860        8.81640        0.57010
H         -2.34140        8.69870       -0.60330
H         -1.40850        6.69750       -1.36130
H         -0.08630        4.84900       -2.25000
H          2.81820       -1.54960       -1.26280
H          6.00100        2.26850       -1.18440
H          3.76990        2.49450       -0.19610
H          8.18840        1.51220       -2.50910
H         10.01360        0.27720       -3.60590
H          7.63900       -3.30090       -3.65330
H         10.69040       -1.66860       -4.94070
H         10.26350       -6.69100       -1.20970
H         13.45450       -8.40890       -3.51120
H         13.43900       -6.49440       -5.04070
