207

C         -4.30130        4.54000        6.30900
C         -4.01770        5.88300        6.27800
C         -4.47890        6.74530        7.38420
O         -5.23500        6.43800        8.28460
C         -3.78010        8.03460        7.18690
C         -3.78160        9.15980        7.98780
C         -3.01660       10.25040        7.60120
C         -2.27840       10.17740        6.43040
F         -1.53300       11.23910        6.07850
C         -2.26820        9.06280        5.60180
C         -3.03420        7.98020        5.99400
C         -3.27700        6.68920        5.34780
C         -3.07570        6.41980        4.01420
C         -3.63360        5.30760        3.35670
N         -4.12750        4.45610        2.76230
C         -2.38330        7.26790        3.13010
N         -1.81120        7.90630        2.36560
C         -3.64690        3.49690        5.64380
C         -4.16750        2.24760        5.25210
N         -5.45150        1.80260        5.41230
C         -6.01590        1.06380        4.34710
C         -5.88590        1.53210        3.04300
C         -6.35590        0.78420        1.98270
C         -6.96670       -0.44080        2.21650
S         -7.54740       -1.51050        0.93920
C         -7.14810       -0.62190       -0.59470
C         -7.13870       -0.88710        3.52640
C         -6.67010       -0.14150        4.58600
C         -6.23500        2.13830        6.51820
C         -5.65680        2.24280        7.78370
C         -6.39530        2.70020        8.85510
C         -7.72950        3.04870        8.68010
S         -8.69150        3.75840        9.97600
C         -7.43790        4.73520       10.86160
C         -8.33540        2.84700        7.44210
C         -7.59750        2.39900        6.36890
C         -3.21720        1.52890        4.48960
S         -3.27150        0.03660        3.61220
C         -1.65000        0.29180        3.04680
C         -1.11000        1.50000        3.46730
N          0.05090        2.05620        2.92800
C          0.18000        2.00200        1.53370
C          1.38310        1.65680        0.91670
C          1.44580        1.51270       -0.45110
C          0.32180        1.72800       -1.23850
S          0.48930        1.42380       -2.97670
C         -0.73230        2.56200       -3.70150
C         -0.86650        2.12320       -0.64000
C         -0.93330        2.25640        0.73190
C          1.12380        2.42280        3.73990
C          2.04460        3.36750        3.29270
C          3.17340        3.65930        4.03050
C          3.39260        3.01830        5.24140
S          4.85360        3.23020        6.21650
C          5.90070        4.30940        5.19840
C          2.43370        2.13530        5.73210
C          1.30840        1.84190        4.99440
C         -2.00030        2.17470        4.32470
S         -1.95970        3.69240        5.14070
C         -1.00690       -0.59250        2.11170
C         -1.66390       -1.14640        1.01640
O         -3.03170       -1.06130        0.99270
C         -3.71300       -2.30710        0.83410
C         -3.49700       -3.23260        2.02210
C         -0.94580       -1.62670       -0.11340
O         -1.61960       -1.85830       -1.28170
C         -2.31990       -0.75520       -1.85820
C         -3.35350       -1.28510       -2.83820
C          0.43960       -1.80740       -0.08230
C          1.08090       -1.48630        1.14530
C          0.37870       -0.83670        2.20960
N          1.16670       -0.56650        3.24600
S          2.65870       -1.06150        2.90440
N          2.36690       -1.65450        1.43260
C          1.27330       -2.09500       -1.21160
C          1.00260       -2.65370       -2.46250
N         -0.07830       -3.44430       -2.79290
C         -0.48080       -3.46430       -4.13800
C         -0.77150       -4.66640       -4.78230
C         -1.08130       -4.67460       -6.12420
C         -1.10030       -3.48680       -6.84850
S         -1.43440       -3.57310       -8.58070
C         -0.38130       -2.23000       -9.20890
C         -0.86130       -2.28260       -6.20180
C         -0.55210       -2.27210       -4.85680
C         -0.70010       -4.27870       -1.85770
C         -0.01270       -4.77570       -0.75390
C         -0.64720       -5.56770        0.18480
C         -1.98710       -5.89070        0.03400
S         -2.91610       -6.86850        1.17520
C         -1.72850       -7.25540        2.49150
C         -2.67370       -5.42540       -1.08660
C         -2.04200       -4.63510       -2.01780
C          2.07480       -2.41330       -3.36350
S          2.32380       -2.71370       -5.04870
C          3.95070       -2.02400       -4.95330
C          4.28720       -1.66520       -3.61890
N          5.50900       -1.24410       -3.17490
C          6.72740       -1.69590       -3.70750
C          6.86160       -2.98820       -4.21950
C          8.04590       -3.37980       -4.79910
C          9.12720       -2.50080       -4.86070
S         10.57450       -3.06020       -5.69890
C         11.38530       -1.50630       -6.17510
C          9.02360       -1.24790       -4.27330
C          7.82900       -0.84580       -3.70860
C          5.55260       -0.49630       -1.97270
C          6.22120       -0.99210       -0.85960
C          6.17750       -0.31420        0.34350
C          5.48020        0.88280        0.43880
S          5.26700        1.78980        1.93790
C          5.92320        0.69000        3.22460
C          4.88530        1.42440       -0.69970
C          4.90620        0.73530       -1.89290
C          3.18050       -1.82050       -2.76960
S          2.93120       -1.52680       -1.08420
C          4.77060       -1.76570       -6.04410
C          4.61300       -2.06030       -7.38510
C          3.48550       -2.75540       -8.00190
O          2.42710       -3.08350       -7.48910
C          3.85840       -2.96930       -9.41450
C          3.14450       -3.60370      -10.41200
C          3.70780       -3.68490      -11.67660
C          4.95870       -3.12920      -11.89340
F          5.48970       -3.21450      -13.12500
C          5.69410       -2.48640      -10.90520
C          5.12730       -2.41070       -9.64530
C          5.60100       -1.79860       -8.40110
C          6.77200       -1.08990       -8.27320
C          7.17080       -0.34940       -7.14550
N          7.56330        0.32340       -6.29870
C          7.73920       -0.96140       -9.28980
N          8.58520       -0.82670      -10.05510
H         -5.10210        4.27580        6.99000
H         -4.36920        9.18200        8.89220
H         -2.98260       11.15210        8.19180
H         -1.67190        9.06630        4.70410
H         -5.40410        2.48150        2.86070
H         -6.23440        1.16900        0.98390
H         -7.45930       -1.27980       -1.40050
H         -6.07850       -0.44250       -0.65650
H         -7.70860        0.30720       -0.64190
H         -7.62930       -1.83260        3.69850
H         -6.79100       -0.49410        5.59930
H         -4.61660        1.98270        7.91600
H         -5.92400        2.79470        9.82000
H         -6.86170        4.10060       11.52880
H         -6.79850        5.23360       10.13840
H         -7.98890        5.46840       11.44210
H         -9.38110        3.08410        7.32430
H         -8.05850        2.28910        5.39900
H          2.26990        1.49100        1.50990
H          2.36770        1.21080       -0.91930
H         -0.63920        3.53270       -3.22490
H         -0.48260        2.63770       -4.75510
H         -1.73840        2.16680       -3.59020
H         -1.74520        2.33010       -1.23060
H         -1.86350        2.55720        1.19100
H          1.88390        3.86770        2.34990
H          3.87240        4.38120        3.64260
H          6.84840        4.37600        5.72370
H          5.45320        5.29600        5.12110
H          6.04790        3.86590        4.21760
H          2.59510        1.66390        6.68960
H          0.58890        1.12850        5.36420
H         -3.39520       -2.80630       -0.08730
H         -4.76590       -2.03170        0.75960
H         -2.44440       -3.49920        2.10410
H         -4.07830       -4.13920        1.88230
H         -3.81080       -2.74360        2.94160
H         -2.80150       -0.15280       -1.08190
H         -1.58660       -0.13070       -2.38350
H         -3.89220       -0.45160       -3.28190
H         -2.86610       -1.84920       -3.62910
H         -4.06260       -1.93310       -2.32920
H         -0.72040       -5.59390       -4.23200
H         -1.28180       -5.60480       -6.63250
H         -0.23380       -2.42590      -10.26640
H         -0.87070       -1.26850       -9.08240
H          0.56500       -2.26590       -8.67730
H         -0.90570       -1.34930       -6.74000
H         -0.34770       -1.33620       -4.35740
H          1.03470       -4.55160       -0.62040
H         -0.07630       -5.92750        1.02590
H         -0.90570       -7.84020        2.09090
H         -2.27950       -7.84530        3.21730
H         -1.37490       -6.33850        2.95430
H         -3.71400       -5.68660       -1.20850
H         -2.59290       -4.27060       -2.87030
H          6.02590       -3.67090       -4.18190
H          8.14840       -4.36910       -5.21780
H         12.10910       -1.77210       -6.93920
H         11.89550       -1.06710       -5.32270
H         10.64380       -0.82690       -6.58460
H          9.85620       -0.56450       -4.27360
H          7.74050        0.14330       -3.28730
H          6.75290       -1.92910       -0.93190
H          6.68120       -0.73520        1.19830
H          5.63670        1.13790        4.17170
H          7.00590        0.63480        3.15380
H          5.46830       -0.29170        3.13250
H          4.39630        2.38400       -0.62740
H          4.41370        1.13590       -2.76650
H          5.69120       -1.25610       -5.78990
H          2.17480       -4.02750      -10.20190
H          3.19570       -4.17030      -12.49220
H          6.66190       -2.07790      -11.14440
