193

C         -5.83390       -4.96830        0.75510
C         -6.98870       -5.07740        1.49730
C         -7.40950       -4.18740        2.58260
O         -6.91530       -3.12320        2.90920
C         -8.56540       -4.84720        3.22220
C         -9.31080       -4.42920        4.30730
C        -10.35540       -5.23210        4.73960
C        -10.61540       -6.41860        4.07130
F        -11.63020       -7.18520        4.50380
C         -9.88290       -6.85690        2.97550
C         -8.84060       -6.05160        2.55050
C         -7.89870       -6.19490        1.43920
C         -7.91530       -7.21120        0.51510
C         -7.13150       -7.26590       -0.65190
N         -6.56570       -7.37820       -1.64710
C         -8.75510       -8.34070        0.58480
N         -9.37870       -9.30510        0.58380
C         -4.82180       -4.01070        0.78250
C         -3.61880       -4.13240        0.04170
N         -3.21040       -5.22450       -0.67710
C         -2.40230       -5.01300       -1.81040
C         -2.73110       -4.01730       -2.72680
C         -1.94660       -3.80130       -3.84190
C         -0.82130       -4.58460       -4.06130
S          0.24190       -4.39780       -5.45190
C         -0.70810       -3.35770       -6.59350
C         -0.48980       -5.58170       -3.14470
C         -1.27060       -5.79640       -2.03180
C         -3.48480       -6.54290       -0.27460
C         -3.74390       -7.52400       -1.22690
C         -4.08140       -8.80570       -0.83730
C         -4.18620       -9.11820        0.51090
S         -4.71630      -10.68910        1.10950
C         -5.58230      -11.40280       -0.31740
C         -3.86150       -8.15370        1.46590
C         -3.50290       -6.88350        1.07990
C         -2.85050       -2.95970        0.14420
S         -1.28960       -2.50360       -0.44350
C         -1.41220       -0.95840        0.39520
C         -2.60190       -0.81510        1.08180
N         -3.03400        0.32950        1.72570
C         -4.36300        0.74490        1.58460
C         -5.12340        0.37010        0.48000
C         -6.44170        0.76160        0.35860
C         -7.01570        1.57990        1.32020
S         -8.66630        2.20220        1.22760
C         -9.34010        1.41850       -0.26430
C         -6.25580        1.97260        2.42060
C         -4.95280        1.55050        2.56000
C         -2.12620        1.14130        2.43380
C         -2.00360        2.49220        2.12670
C         -1.10370        3.29190        2.80310
C         -0.32160        2.75260        3.81650
S          0.86800        3.67740        4.73520
C          0.72720        5.36730        4.09140
C         -0.46680        1.40750        4.15210
C         -1.35730        0.60830        3.46670
C         -3.41040       -1.97860        0.94680
S         -4.91100       -2.47100        1.64780
C         -0.27300       -0.09060        0.23660
C          0.15580        0.40890       -0.97680
N         -0.58070        0.29810       -2.15390
C         -1.89720        0.76450       -2.18670
C         -2.85420        0.14740       -2.99300
C         -4.13300        0.65330       -3.06580
C         -4.49360        1.77940       -2.32740
S         -6.14590        2.36680       -2.53070
C         -6.24050        3.82040       -1.45010
C         -3.55790        2.37040       -1.49070
C         -2.27340        1.86800       -1.42530
C          0.08480       -0.13610       -3.30470
C          1.07910       -1.10550       -3.20120
C          1.78350       -1.52060       -4.31440
C          1.49690       -0.97680       -5.55830
S          2.31910       -1.42570       -7.05580
C          3.47520       -2.72810       -6.54870
C          0.49200       -0.01590       -5.66900
C         -0.20380        0.40490       -4.55810
C          1.40140        1.06740       -0.85450
S          2.39070        2.01500       -1.90730
C          3.50760        2.36940       -0.58410
C          3.08260        1.81280        0.62020
N          3.60670        2.04300        1.87300
C          4.01230        3.32550        2.25210
C          5.04990        3.50560        3.16260
C          5.45480        4.77370        3.52860
C          4.82320        5.88940        2.99470
S          5.24750        7.54950        3.39550
C          6.88080        7.39330        4.17360
C          3.76790        5.71390        2.10130
C          3.36970        4.45080        1.73270
C          3.62150        0.97810        2.78180
C          3.32830        1.17260        4.13180
C          3.31000        0.10160        4.99500
C          3.58360       -1.18720        4.53730
S          3.51370       -2.47520        5.74000
C          3.83260       -3.98710        4.78730
C          3.89400       -1.38210        3.19810
C          3.91510       -0.30710        2.33190
C          1.90720        1.04640        0.43330
S          0.87350        0.20730        1.52910
C          4.67940        3.13540       -0.86410
C          4.72520        4.03390       -1.92390
C          5.84730        4.80240       -2.19500
F          5.76180        5.63760       -3.25040
C          7.04750        4.72920       -1.48960
C          7.05690        3.74560       -0.46420
C          5.89000        2.97230       -0.13550
N          6.13920        2.09330        0.83080
S          7.67090        2.24110        1.29570
N          8.10130        3.42270        0.29150
C          8.24470        5.44920       -1.77790
C          8.43290        6.65770       -2.37270
C          9.77540        6.98630       -2.93260
O         10.80650        6.38350       -2.74650
C          9.55670        8.16830       -3.79210
C         10.44520        8.80250       -4.64020
C          9.99730        9.88860       -5.37560
C          8.67960       10.30100       -5.24000
F          8.26150       11.34700       -5.97100
C          7.77050        9.68750       -4.38890
C          8.22630        8.60560       -3.65580
C          7.55100        7.76400       -2.66890
C          6.41320        8.10290       -1.98540
C          5.93730        7.37810       -0.87670
N          5.54220        6.82260        0.04730
C          5.63640        9.24760       -2.25630
N          4.96340       10.15960       -2.43690
H         -5.65700       -5.77120        0.05110
H         -9.07700       -3.49810        4.79920
H        -10.96850       -4.95480        5.58230
H        -10.13970       -7.79020        2.50210
H         -3.61260       -3.41370       -2.56580
H         -2.22510       -3.02650       -4.53790
H         -1.67420       -3.81620       -6.78240
H         -0.12690       -3.32030       -7.50970
H         -0.81070       -2.35390       -6.19080
H          0.38820       -6.18400       -3.31970
H         -1.01090       -6.56990       -1.32480
H         -3.70610       -7.27610       -2.27590
H         -4.29010       -9.54080       -1.59630
H         -6.26560      -10.66670       -0.73040
H         -4.86880      -11.74310       -1.06240
H         -6.14030      -12.24910        0.07080
H         -3.90110       -8.41650        2.51180
H         -3.26170       -6.13830        1.82320
H         -4.68300       -0.22400       -0.30580
H         -6.99780        0.43570       -0.50410
H        -10.36310        1.77330       -0.34320
H         -8.77390        1.72510       -1.13930
H         -9.33150        0.33870       -0.14710
H         -6.70630        2.60380        3.17130
H         -4.38320        1.84280        3.42910
H         -2.62150        2.91510        1.34920
H         -1.02080        4.33140        2.52910
H          0.98610        5.38720        3.03730
H          1.45090        5.95190        4.65100
H         -0.27380        5.75000        4.26800
H          0.13420        0.99660        4.94820
H         -1.45930       -0.43570        3.72200
H         -2.57930       -0.72570       -3.56510
H         -4.87100        0.18350       -3.69840
H         -5.52430        4.56940       -1.77480
H         -6.07350        3.52690       -0.41720
H         -7.24940        4.20560       -1.56340
H         -3.81290        3.23470       -0.89860
H         -1.54190        2.34780       -0.79170
H          1.29660       -1.54380       -2.23800
H          2.54330       -2.27540       -4.19710
H          4.20320       -2.32580       -5.85020
H          2.92530       -3.56040       -6.11880
H          3.97470       -3.04410       -7.45930
H          0.27510        0.40530       -6.63910
H         -0.96690        1.16260       -4.65300
H          5.54970        2.64250        3.57570
H          6.26630        4.87700        4.23080
H          7.53720        6.82430        3.52200
H          6.79350        6.93000        5.15220
H          7.25370        8.40710        4.28160
H          3.27600        6.58430        1.69680
H          2.55210        4.32600        1.03750
H          3.09460        2.16050        4.49490
H          3.07270        0.24870        6.03740
H          4.83530       -3.96140        4.37050
H          3.75210       -4.80260        5.49940
H          3.08260       -4.10030        4.01020
H          4.12780       -2.36250        2.81580
H          4.17260       -0.45940        1.29440
H          3.85620        4.17050       -2.54980
H          9.15590        4.91670       -1.52100
H         11.46190        8.45140       -4.72130
H         10.64870       10.41790       -6.05280
H          6.75780       10.05160       -4.33200
