226

C          5.54860       -3.69910        6.14050
C          6.89650       -3.47040        5.92880
C          7.47730       -3.21060        4.60620
O          6.89290       -3.10110        3.54390
C          8.94440       -3.23600        4.80540
C          9.94640       -3.06700        3.87190
C         11.26540       -3.12400        4.29930
C         11.52910       -3.35790        5.63870
F         12.81400       -3.40500        6.03930
C         10.53710       -3.53930        6.59500
C          9.22490       -3.47470        6.16120
C          7.95790       -3.59550        6.88510
C          7.81670       -3.64970        8.25020
C          6.57170       -3.60920        8.90770
N          5.59070       -3.54960        9.50220
C          8.89670       -3.68410        9.15200
N          9.74680       -3.71750        9.92360
C          4.51060       -3.24240        5.33230
C          4.43390       -2.15720        4.42980
N          5.31510       -1.12840        4.31150
C          5.26680       -0.31340        3.15350
C          5.05160        1.05420        3.27860
C          4.92470        1.84710        2.15390
C          5.02770        1.27590        0.89110
S          4.79380        2.16250       -0.61470
C          4.87950        3.91030       -0.13580
C          5.30290       -0.08700        0.77060
C          5.42070       -0.88010        1.89030
C          6.22810       -0.77760        5.31360
C          7.52310       -0.40420        4.96170
C          8.46680       -0.13000        5.93310
C          8.12580       -0.21420        7.27700
S          9.25640        0.02160        8.60350
C         10.88050        0.01240        7.79420
C          6.80590       -0.50700        7.62970
C          5.86990       -0.78880        6.66350
C          3.20540       -2.19030        3.72830
S          2.51830       -1.17110        2.51820
C          1.04860       -2.12650        2.52320
C          1.05570       -3.12430        3.48570
N         -0.07340       -3.85040        3.82130
C         -0.01480       -5.10480        4.43240
C         -0.99540       -5.48400        5.34660
C         -0.95170       -6.72010        5.96040
C          0.08350       -7.60190        5.68070
S          0.25020       -9.20390        6.40420
C         -1.06650       -9.25940        7.65190
C          1.06340       -7.22940        4.76440
C          1.01450       -6.00090        4.14470
C         -1.31300       -3.19270        3.67090
C         -1.46630       -1.88860        4.13070
C         -2.61040       -1.16940        3.85190
C         -3.62720       -1.75360        3.10990
S         -5.05240       -0.87240        2.55270
C         -4.65430        0.85840        2.93410
C         -3.52690       -3.09630        2.75050
C         -2.38090       -3.81240        3.02700
C          2.31410       -3.17430        4.13750
S          2.97670       -4.13500        5.41180
C          0.02570       -1.73460        1.59040
C         -0.50000       -2.42560        0.51290
N         -0.13470       -3.71560        0.16850
C         -1.00850       -4.55080       -0.53040
C         -2.38840       -4.45740       -0.34070
C         -3.24580       -5.27810       -1.03790
C         -2.75250       -6.21980       -1.93760
S         -3.95030       -7.21740       -2.76760
C         -2.96500       -8.22900       -3.90770
C         -1.38110       -6.32290       -2.12510
C         -0.52090       -5.49300       -1.43340
C          1.21640       -4.07460        0.34500
C          1.56260       -5.30180        0.89770
C          2.88720       -5.60160        1.15870
C          3.88280       -4.67620        0.87130
S          5.58590       -4.92170        1.26400
C          5.50390       -6.04920        2.68210
C          3.54310       -3.48480        0.23510
C          2.22560       -3.18570       -0.02350
C         -1.34220       -1.58780       -0.26540
S         -2.16680       -1.77140       -1.77970
C         -2.53050       -0.06120       -1.80120
C         -2.12190        0.58730       -0.65230
N         -2.39420        1.92420       -0.38220
C         -1.37790        2.72500        0.13830
C         -1.66460        3.78160        0.99840
C         -0.64560        4.49950        1.59470
C          0.67890        4.16430        1.35180
S          2.05510        4.96260        2.12880
C          1.29790        6.07710        3.34260
C          0.97470        3.14260        0.45410
C         -0.04060        2.43880       -0.15210
C         -3.65780        2.41810       -0.73940
C         -3.81390        3.65590       -1.36180
C         -5.05540        4.06270       -1.79900
C         -6.17390        3.25210       -1.61260
S         -7.70860        3.84480       -2.25160
C         -8.87650        2.50650       -1.87860
C         -6.03210        2.03960       -0.95310
C         -4.78560        1.62880       -0.52610
C         -1.42700       -0.28980        0.20920
S         -0.48710       -0.05280        1.63210
C         -2.98150        0.70490       -2.93600
C         -2.23300        1.73050       -3.42400
C         -2.90060        2.53410       -4.37440
C         -2.40020        3.70940       -4.97100
C         -1.09470        4.25380       -4.64040
C         -0.16810        4.73240       -5.52340
C          1.01280        5.25280       -4.95630
C          1.05740        5.23890       -3.59650
S          2.41520        5.78350       -2.62700
C          1.72120        7.34180       -1.94500
C          0.89070        7.10080       -0.70320
Se        -0.49340        4.46660       -2.86660
C         -3.23860        4.32380       -5.88820
C         -4.54950        3.85120       -6.16610
C         -5.09490        2.73570       -5.47660
C         -6.49620        2.43720       -5.53830
C         -7.11460        1.23830       -5.26850
C         -8.50920        1.27530       -5.17870
C         -9.06550        2.52070       -5.33670
S        -10.78060        2.80740       -5.19160
C        -10.83630        4.59820       -4.81660
C        -10.81420        5.44970       -6.06930
Se        -7.77990        3.80520       -5.77530
C         -4.20820        2.06260       -4.63350
S         -4.55490        0.63620       -3.68460
C         -5.18820        4.62390       -7.14630
C         -4.46030        5.71470       -7.56850
S         -2.87940        5.76300       -6.79530
C         -4.77480        6.69190       -8.52740
C         -6.00990        7.03540       -9.01990
C         -7.32910        6.72650       -8.42900
O         -7.59700        6.02080       -7.47160
C         -8.30190        7.54200       -9.18470
C         -9.67020        7.63220       -9.00720
C        -10.39220        8.47550       -9.83630
C         -9.72230        9.20170      -10.80950
F        -10.43560       10.01880      -11.59970
C         -8.34990        9.12850      -11.00740
C         -7.63550        8.28140      -10.17720
C         -6.21050        7.96260      -10.11710
C         -5.26340        8.40680      -11.00200
C         -5.52730        9.30640      -12.05690
N         -5.67280       10.04410      -12.92420
C         -3.90690        8.01580      -11.02040
N         -2.79820        7.73490      -11.12300
H          5.25720       -4.33020        6.97150
H          9.69970       -2.89130        2.83640
H         12.08710       -2.99320        3.61310
H         10.81050       -3.72860        7.62020
H          4.95780        1.49280        4.26150
H          4.72330        2.89950        2.27270
H          4.05570        4.17100        0.52190
H          5.83760        4.11150        0.33390
H          4.78960        4.46690       -1.06410
H          5.41980       -0.50790       -0.21630
H          5.64760       -1.93250        1.81590
H          7.79350       -0.35310        3.91760
H          9.46680        0.13340        5.62900
H         10.97870       -0.88040        7.18360
H         11.01520        0.91420        7.20400
H         11.60590       -0.01150        8.60140
H          6.53360       -0.52760        8.67370
H          4.85830       -1.02990        6.95230
H         -1.79810       -4.80160        5.58410
H         -1.72930       -6.97710        6.66130
H         -0.94480       -8.43830        8.35210
H         -0.93980      -10.20620        8.16760
H         -2.04030       -9.23030        7.17130
H          1.86280       -7.91970        4.54250
H          1.76700       -5.73150        3.42290
H         -0.66480       -1.41960        4.68240
H         -2.68440       -0.15360        4.20340
H         -4.66820        1.01800        4.00860
H         -5.43480        1.45020        2.46540
H         -3.68820        1.11650        2.50860
H         -4.34890       -3.56150        2.22720
H         -2.29240       -4.84230        2.71540
H         -2.78400       -3.74250        0.36250
H         -4.31200       -5.20090       -0.89030
H         -3.68270       -8.82330       -4.46460
H         -2.30090       -8.88240       -3.34940
H         -2.41120       -7.58740       -4.58690
H         -0.96410       -7.03890       -2.81460
H          0.54250       -5.57240       -1.60320
H          0.78760       -6.01540        1.13680
H          3.13560       -6.55800        1.59230
H          4.74460       -5.70180        3.37630
H          6.48090       -5.99760        3.15230
H          5.30490       -7.06610        2.35520
H          4.32140       -2.79240       -0.04040
H          1.96800       -2.24940       -0.49600
H         -2.69300        4.03090        1.21540
H         -0.90400        5.30720        2.26090
H          0.67400        5.50660        4.02430
H          0.72790        6.85120        2.83660
H          2.12510        6.52480        3.88480
H          2.00140        2.89480        0.23830
H          0.20270        1.64710       -0.84500
H         -2.94670        4.28270       -1.52870
H         -5.16950        5.00630       -2.31090
H         -9.82970        2.81540       -2.29650
H         -8.54860        1.58860       -2.35780
H         -8.96990        2.38600       -0.80340
H         -6.87590        1.39350       -0.77650
H         -4.68490        0.66880       -0.04230
H         -1.21930        1.89930       -3.10360
H         -0.31380        4.68600       -6.58940
H          1.82380        5.63880       -5.54950
H          1.14310        7.80630       -2.74340
H          2.59230        7.95730       -1.72410
H          0.07380        6.40570       -0.91060
H          0.46460        8.03880       -0.35170
H          1.51180        6.67410        0.08000
H         -6.56550        0.31960       -5.15130
H         -9.10720        0.40640       -4.96170
H        -11.76480        4.73470       -4.26160
H         -9.98520        4.81940       -4.16830
H         -9.86660        5.32030       -6.59470
H        -11.63220        5.17290       -6.73180
H        -10.91790        6.49790       -5.79420
H         -6.11710        4.35100       -7.61140
H         -3.92390        7.25790       -8.88720
H        -10.15770        7.05320       -8.23990
H        -11.46130        8.57990       -9.74110
H         -7.89250        9.72350      -11.78010
