
  xtb     02082218533D
 energy: -340.961800976754 gnorm: 0.000540616109 xtb: 6.4.1 (unknown)
193210  0     0  0            999 V2000
   -5.8339   -4.9683    0.7551 C   0  0  0  0  0  0  0  0  0  0  0  0
   -6.9887   -5.0774    1.4973 C   0  0  0  0  0  0  0  0  0  0  0  0
   -7.4095   -4.1874    2.5826 C   0  0  0  0  0  0  0  0  0  0  0  0
   -6.9153   -3.1232    2.9092 O   0  0  0  0  0  0  0  0  0  0  0  0
   -8.5654   -4.8472    3.2222 C   0  0  0  0  0  0  0  0  0  0  0  0
   -9.3108   -4.4292    4.3073 C   0  0  0  0  0  0  0  0  0  0  0  0
  -10.3554   -5.2321    4.7396 C   0  0  0  0  0  0  0  0  0  0  0  0
  -10.6154   -6.4186    4.0713 C   0  0  0  0  0  0  0  0  0  0  0  0
  -11.6302   -7.1852    4.5038 F   0  0  0  0  0  0  0  0  0  0  0  0
   -9.8829   -6.8569    2.9755 C   0  0  0  0  0  0  0  0  0  0  0  0
   -8.8406   -6.0516    2.5505 C   0  0  0  0  0  0  0  0  0  0  0  0
   -7.8987   -6.1949    1.4392 C   0  0  0  0  0  0  0  0  0  0  0  0
   -7.9153   -7.2112    0.5151 C   0  0  0  0  0  0  0  0  0  0  0  0
   -7.1315   -7.2659   -0.6519 C   0  0  0  0  0  0  0  0  0  0  0  0
   -6.5657   -7.3782   -1.6471 N   0  0  0  0  0  0  0  0  0  0  0  0
   -8.7551   -8.3407    0.5848 C   0  0  0  0  0  0  0  0  0  0  0  0
   -9.3787   -9.3051    0.5838 N   0  0  0  0  0  0  0  0  0  0  0  0
   -4.8218   -4.0107    0.7825 C   0  0  0  0  0  0  0  0  0  0  0  0
   -3.6188   -4.1324    0.0417 C   0  0  0  0  0  0  0  0  0  0  0  0
   -3.2104   -5.2245   -0.6771 N   0  0  0  0  0  0  0  0  0  0  0  0
   -2.4023   -5.0130   -1.8104 C   0  0  0  0  0  0  0  0  0  0  0  0
   -2.7311   -4.0173   -2.7268 C   0  0  0  0  0  0  0  0  0  0  0  0
   -1.9466   -3.8013   -3.8419 C   0  0  0  0  0  0  0  0  0  0  0  0
   -0.8213   -4.5846   -4.0613 C   0  0  0  0  0  0  0  0  0  0  0  0
    0.2419   -4.3978   -5.4519 S   0  0  0  0  0  0  0  0  0  0  0  0
   -0.7081   -3.3577   -6.5935 C   0  0  0  0  0  0  0  0  0  0  0  0
   -0.4898   -5.5817   -3.1447 C   0  0  0  0  0  0  0  0  0  0  0  0
   -1.2706   -5.7964   -2.0318 C   0  0  0  0  0  0  0  0  0  0  0  0
   -3.4848   -6.5429   -0.2746 C   0  0  0  0  0  0  0  0  0  0  0  0
   -3.7439   -7.5240   -1.2269 C   0  0  0  0  0  0  0  0  0  0  0  0
   -4.0814   -8.8057   -0.8373 C   0  0  0  0  0  0  0  0  0  0  0  0
   -4.1862   -9.1182    0.5109 C   0  0  0  0  0  0  0  0  0  0  0  0
   -4.7163  -10.6891    1.1095 S   0  0  0  0  0  0  0  0  0  0  0  0
   -5.5823  -11.4028   -0.3174 C   0  0  0  0  0  0  0  0  0  0  0  0
   -3.8615   -8.1537    1.4659 C   0  0  0  0  0  0  0  0  0  0  0  0
   -3.5029   -6.8835    1.0799 C   0  0  0  0  0  0  0  0  0  0  0  0
   -2.8505   -2.9597    0.1442 C   0  0  0  0  0  0  0  0  0  0  0  0
   -1.2896   -2.5036   -0.4435 S   0  0  0  0  0  0  0  0  0  0  0  0
   -1.4122   -0.9584    0.3952 C   0  0  0  0  0  0  0  0  0  0  0  0
   -2.6019   -0.8151    1.0818 C   0  0  0  0  0  0  0  0  0  0  0  0
   -3.0340    0.3295    1.7257 N   0  0  0  0  0  0  0  0  0  0  0  0
   -4.3630    0.7449    1.5846 C   0  0  0  0  0  0  0  0  0  0  0  0
   -5.1234    0.3701    0.4800 C   0  0  0  0  0  0  0  0  0  0  0  0
   -6.4417    0.7616    0.3586 C   0  0  0  0  0  0  0  0  0  0  0  0
   -7.0157    1.5799    1.3202 C   0  0  0  0  0  0  0  0  0  0  0  0
   -8.6663    2.2022    1.2276 S   0  0  0  0  0  0  0  0  0  0  0  0
   -9.3401    1.4185   -0.2643 C   0  0  0  0  0  0  0  0  0  0  0  0
   -6.2558    1.9726    2.4206 C   0  0  0  0  0  0  0  0  0  0  0  0
   -4.9528    1.5505    2.5600 C   0  0  0  0  0  0  0  0  0  0  0  0
   -2.1262    1.1413    2.4338 C   0  0  0  0  0  0  0  0  0  0  0  0
   -2.0036    2.4922    2.1267 C   0  0  0  0  0  0  0  0  0  0  0  0
   -1.1037    3.2919    2.8031 C   0  0  0  0  0  0  0  0  0  0  0  0
   -0.3216    2.7526    3.8165 C   0  0  0  0  0  0  0  0  0  0  0  0
    0.8680    3.6774    4.7352 S   0  0  0  0  0  0  0  0  0  0  0  0
    0.7272    5.3673    4.0914 C   0  0  0  0  0  0  0  0  0  0  0  0
   -0.4668    1.4075    4.1521 C   0  0  0  0  0  0  0  0  0  0  0  0
   -1.3573    0.6083    3.4667 C   0  0  0  0  0  0  0  0  0  0  0  0
   -3.4104   -1.9786    0.9468 C   0  0  0  0  0  0  0  0  0  0  0  0
   -4.9110   -2.4710    1.6478 S   0  0  0  0  0  0  0  0  0  0  0  0
   -0.2730   -0.0906    0.2366 C   0  0  0  0  0  0  0  0  0  0  0  0
    0.1558    0.4089   -0.9768 C   0  0  0  0  0  0  0  0  0  0  0  0
   -0.5807    0.2981   -2.1539 N   0  0  0  0  0  0  0  0  0  0  0  0
   -1.8972    0.7645   -2.1867 C   0  0  0  0  0  0  0  0  0  0  0  0
   -2.8542    0.1474   -2.9930 C   0  0  0  0  0  0  0  0  0  0  0  0
   -4.1330    0.6533   -3.0658 C   0  0  0  0  0  0  0  0  0  0  0  0
   -4.4936    1.7794   -2.3274 C   0  0  0  0  0  0  0  0  0  0  0  0
   -6.1459    2.3668   -2.5307 S   0  0  0  0  0  0  0  0  0  0  0  0
   -6.2405    3.8204   -1.4501 C   0  0  0  0  0  0  0  0  0  0  0  0
   -3.5579    2.3704   -1.4907 C   0  0  0  0  0  0  0  0  0  0  0  0
   -2.2734    1.8680   -1.4253 C   0  0  0  0  0  0  0  0  0  0  0  0
    0.0848   -0.1361   -3.3047 C   0  0  0  0  0  0  0  0  0  0  0  0
    1.0791   -1.1055   -3.2012 C   0  0  0  0  0  0  0  0  0  0  0  0
    1.7835   -1.5206   -4.3144 C   0  0  0  0  0  0  0  0  0  0  0  0
    1.4969   -0.9768   -5.5583 C   0  0  0  0  0  0  0  0  0  0  0  0
    2.3191   -1.4257   -7.0558 S   0  0  0  0  0  0  0  0  0  0  0  0
    3.4752   -2.7281   -6.5487 C   0  0  0  0  0  0  0  0  0  0  0  0
    0.4920   -0.0159   -5.6690 C   0  0  0  0  0  0  0  0  0  0  0  0
   -0.2038    0.4049   -4.5581 C   0  0  0  0  0  0  0  0  0  0  0  0
    1.4014    1.0674   -0.8545 C   0  0  0  0  0  0  0  0  0  0  0  0
    2.3907    2.0150   -1.9073 S   0  0  0  0  0  0  0  0  0  0  0  0
    3.5076    2.3694   -0.5841 C   0  0  0  0  0  0  0  0  0  0  0  0
    3.0826    1.8128    0.6202 C   0  0  0  0  0  0  0  0  0  0  0  0
    3.6067    2.0430    1.8730 N   0  0  0  0  0  0  0  0  0  0  0  0
    4.0123    3.3255    2.2521 C   0  0  0  0  0  0  0  0  0  0  0  0
    5.0499    3.5056    3.1626 C   0  0  0  0  0  0  0  0  0  0  0  0
    5.4548    4.7737    3.5286 C   0  0  0  0  0  0  0  0  0  0  0  0
    4.8232    5.8894    2.9947 C   0  0  0  0  0  0  0  0  0  0  0  0
    5.2475    7.5495    3.3955 S   0  0  0  0  0  0  0  0  0  0  0  0
    6.8808    7.3933    4.1736 C   0  0  0  0  0  0  0  0  0  0  0  0
    3.7679    5.7139    2.1013 C   0  0  0  0  0  0  0  0  0  0  0  0
    3.3697    4.4508    1.7327 C   0  0  0  0  0  0  0  0  0  0  0  0
    3.6215    0.9781    2.7818 C   0  0  0  0  0  0  0  0  0  0  0  0
    3.3283    1.1726    4.1318 C   0  0  0  0  0  0  0  0  0  0  0  0
    3.3100    0.1016    4.9950 C   0  0  0  0  0  0  0  0  0  0  0  0
    3.5836   -1.1872    4.5373 C   0  0  0  0  0  0  0  0  0  0  0  0
    3.5137   -2.4752    5.7400 S   0  0  0  0  0  0  0  0  0  0  0  0
    3.8326   -3.9871    4.7873 C   0  0  0  0  0  0  0  0  0  0  0  0
    3.8940   -1.3821    3.1981 C   0  0  0  0  0  0  0  0  0  0  0  0
    3.9151   -0.3071    2.3319 C   0  0  0  0  0  0  0  0  0  0  0  0
    1.9072    1.0464    0.4333 C   0  0  0  0  0  0  0  0  0  0  0  0
    0.8735    0.2073    1.5291 S   0  0  0  0  0  0  0  0  0  0  0  0
    4.6794    3.1354   -0.8641 C   0  0  0  0  0  0  0  0  0  0  0  0
    4.7252    4.0339   -1.9239 C   0  0  0  0  0  0  0  0  0  0  0  0
    5.8473    4.8024   -2.1950 C   0  0  0  0  0  0  0  0  0  0  0  0
    5.7618    5.6376   -3.2504 F   0  0  0  0  0  0  0  0  0  0  0  0
    7.0475    4.7292   -1.4896 C   0  0  0  0  0  0  0  0  0  0  0  0
    7.0569    3.7456   -0.4642 C   0  0  0  0  0  0  0  0  0  0  0  0
    5.8900    2.9723   -0.1355 C   0  0  0  0  0  0  0  0  0  0  0  0
    6.1392    2.0933    0.8308 N   0  0  0  0  0  0  0  0  0  0  0  0
    7.6709    2.2411    1.2957 S   0  0  0  0  0  0  0  0  0  0  0  0
    8.1013    3.4227    0.2915 N   0  0  0  0  0  0  0  0  0  0  0  0
    8.2447    5.4492   -1.7779 C   0  0  0  0  0  0  0  0  0  0  0  0
    8.4329    6.6577   -2.3727 C   0  0  0  0  0  0  0  0  0  0  0  0
    9.7754    6.9863   -2.9326 C   0  0  0  0  0  0  0  0  0  0  0  0
   10.8065    6.3835   -2.7465 O   0  0  0  0  0  0  0  0  0  0  0  0
    9.5567    8.1683   -3.7921 C   0  0  0  0  0  0  0  0  0  0  0  0
   10.4452    8.8025   -4.6402 C   0  0  0  0  0  0  0  0  0  0  0  0
    9.9973    9.8886   -5.3756 C   0  0  0  0  0  0  0  0  0  0  0  0
    8.6796   10.3010   -5.2400 C   0  0  0  0  0  0  0  0  0  0  0  0
    8.2615   11.3470   -5.9710 F   0  0  0  0  0  0  0  0  0  0  0  0
    7.7705    9.6875   -4.3889 C   0  0  0  0  0  0  0  0  0  0  0  0
    8.2263    8.6056   -3.6558 C   0  0  0  0  0  0  0  0  0  0  0  0
    7.5510    7.7640   -2.6689 C   0  0  0  0  0  0  0  0  0  0  0  0
    6.4132    8.1029   -1.9854 C   0  0  0  0  0  0  0  0  0  0  0  0
    5.9373    7.3781   -0.8767 C   0  0  0  0  0  0  0  0  0  0  0  0
    5.5422    6.8226    0.0473 N   0  0  0  0  0  0  0  0  0  0  0  0
    5.6364    9.2476   -2.2563 C   0  0  0  0  0  0  0  0  0  0  0  0
    4.9634   10.1596   -2.4369 N   0  0  0  0  0  0  0  0  0  0  0  0
   -5.6570   -5.7712    0.0511 H   0  0  0  0  0  0  0  0  0  0  0  0
   -9.0770   -3.4981    4.7992 H   0  0  0  0  0  0  0  0  0  0  0  0
  -10.9685   -4.9548    5.5823 H   0  0  0  0  0  0  0  0  0  0  0  0
  -10.1397   -7.7902    2.5021 H   0  0  0  0  0  0  0  0  0  0  0  0
   -3.6126   -3.4137   -2.5658 H   0  0  0  0  0  0  0  0  0  0  0  0
   -2.2251   -3.0265   -4.5379 H   0  0  0  0  0  0  0  0  0  0  0  0
   -1.6742   -3.8162   -6.7824 H   0  0  0  0  0  0  0  0  0  0  0  0
   -0.1269   -3.3203   -7.5097 H   0  0  0  0  0  0  0  0  0  0  0  0
   -0.8107   -2.3539   -6.1908 H   0  0  0  0  0  0  0  0  0  0  0  0
    0.3882   -6.1840   -3.3197 H   0  0  0  0  0  0  0  0  0  0  0  0
   -1.0109   -6.5699   -1.3248 H   0  0  0  0  0  0  0  0  0  0  0  0
   -3.7061   -7.2761   -2.2759 H   0  0  0  0  0  0  0  0  0  0  0  0
   -4.2901   -9.5408   -1.5963 H   0  0  0  0  0  0  0  0  0  0  0  0
   -6.2656  -10.6667   -0.7304 H   0  0  0  0  0  0  0  0  0  0  0  0
   -4.8688  -11.7431   -1.0624 H   0  0  0  0  0  0  0  0  0  0  0  0
   -6.1403  -12.2491    0.0708 H   0  0  0  0  0  0  0  0  0  0  0  0
   -3.9011   -8.4165    2.5118 H   0  0  0  0  0  0  0  0  0  0  0  0
   -3.2617   -6.1383    1.8232 H   0  0  0  0  0  0  0  0  0  0  0  0
   -4.6830   -0.2240   -0.3058 H   0  0  0  0  0  0  0  0  0  0  0  0
   -6.9978    0.4357   -0.5041 H   0  0  0  0  0  0  0  0  0  0  0  0
  -10.3631    1.7733   -0.3432 H   0  0  0  0  0  0  0  0  0  0  0  0
   -8.7739    1.7251   -1.1393 H   0  0  0  0  0  0  0  0  0  0  0  0
   -9.3315    0.3387   -0.1471 H   0  0  0  0  0  0  0  0  0  0  0  0
   -6.7063    2.6038    3.1713 H   0  0  0  0  0  0  0  0  0  0  0  0
   -4.3832    1.8428    3.4291 H   0  0  0  0  0  0  0  0  0  0  0  0
   -2.6215    2.9151    1.3492 H   0  0  0  0  0  0  0  0  0  0  0  0
   -1.0208    4.3314    2.5291 H   0  0  0  0  0  0  0  0  0  0  0  0
    0.9861    5.3872    3.0373 H   0  0  0  0  0  0  0  0  0  0  0  0
    1.4509    5.9519    4.6510 H   0  0  0  0  0  0  0  0  0  0  0  0
   -0.2738    5.7500    4.2680 H   0  0  0  0  0  0  0  0  0  0  0  0
    0.1342    0.9966    4.9482 H   0  0  0  0  0  0  0  0  0  0  0  0
   -1.4593   -0.4357    3.7220 H   0  0  0  0  0  0  0  0  0  0  0  0
   -2.5793   -0.7257   -3.5651 H   0  0  0  0  0  0  0  0  0  0  0  0
   -4.8710    0.1835   -3.6984 H   0  0  0  0  0  0  0  0  0  0  0  0
   -5.5243    4.5694   -1.7748 H   0  0  0  0  0  0  0  0  0  0  0  0
   -6.0735    3.5269   -0.4172 H   0  0  0  0  0  0  0  0  0  0  0  0
   -7.2494    4.2056   -1.5634 H   0  0  0  0  0  0  0  0  0  0  0  0
   -3.8129    3.2347   -0.8986 H   0  0  0  0  0  0  0  0  0  0  0  0
   -1.5419    2.3478   -0.7917 H   0  0  0  0  0  0  0  0  0  0  0  0
    1.2966   -1.5438   -2.2380 H   0  0  0  0  0  0  0  0  0  0  0  0
    2.5433   -2.2754   -4.1971 H   0  0  0  0  0  0  0  0  0  0  0  0
    4.2032   -2.3258   -5.8502 H   0  0  0  0  0  0  0  0  0  0  0  0
    2.9253   -3.5604   -6.1188 H   0  0  0  0  0  0  0  0  0  0  0  0
    3.9747   -3.0441   -7.4593 H   0  0  0  0  0  0  0  0  0  0  0  0
    0.2751    0.4053   -6.6391 H   0  0  0  0  0  0  0  0  0  0  0  0
   -0.9669    1.1626   -4.6530 H   0  0  0  0  0  0  0  0  0  0  0  0
    5.5497    2.6425    3.5757 H   0  0  0  0  0  0  0  0  0  0  0  0
    6.2663    4.8770    4.2308 H   0  0  0  0  0  0  0  0  0  0  0  0
    7.5372    6.8243    3.5220 H   0  0  0  0  0  0  0  0  0  0  0  0
    6.7935    6.9300    5.1522 H   0  0  0  0  0  0  0  0  0  0  0  0
    7.2537    8.4071    4.2816 H   0  0  0  0  0  0  0  0  0  0  0  0
    3.2760    6.5843    1.6968 H   0  0  0  0  0  0  0  0  0  0  0  0
    2.5521    4.3260    1.0375 H   0  0  0  0  0  0  0  0  0  0  0  0
    3.0946    2.1605    4.4949 H   0  0  0  0  0  0  0  0  0  0  0  0
    3.0727    0.2487    6.0374 H   0  0  0  0  0  0  0  0  0  0  0  0
    4.8353   -3.9614    4.3705 H   0  0  0  0  0  0  0  0  0  0  0  0
    3.7521   -4.8026    5.4994 H   0  0  0  0  0  0  0  0  0  0  0  0
    3.0826   -4.1003    4.0102 H   0  0  0  0  0  0  0  0  0  0  0  0
    4.1278   -2.3625    2.8158 H   0  0  0  0  0  0  0  0  0  0  0  0
    4.1726   -0.4594    1.2944 H   0  0  0  0  0  0  0  0  0  0  0  0
    3.8562    4.1705   -2.5498 H   0  0  0  0  0  0  0  0  0  0  0  0
    9.1559    4.9167   -1.5210 H   0  0  0  0  0  0  0  0  0  0  0  0
   11.4619    8.4514   -4.7213 H   0  0  0  0  0  0  0  0  0  0  0  0
   10.6487   10.4179   -6.0528 H   0  0  0  0  0  0  0  0  0  0  0  0
    6.7578   10.0516   -4.3320 H   0  0  0  0  0  0  0  0  0  0  0  0
  1  2  2  0  0  0  0
  2  3  1  0  0  0  0
  3  4  2  0  0  0  0
  3  5  1  0  0  0  0
  5  6  2  0  0  0  0
  6  7  1  0  0  0  0
  7  8  2  0  0  0  0
  8  9  1  0  0  0  0
  8 10  1  0  0  0  0
 10 11  2  0  0  0  0
 11 12  1  0  0  0  0
 12 13  2  0  0  0  0
 13 14  1  0  0  0  0
 14 15  3  0  0  0  0
 13 16  1  0  0  0  0
 16 17  3  0  0  0  0
  1 18  1  0  0  0  0
 18 19  2  0  0  0  0
 19 20  1  0  0  0  0
 20 21  1  0  0  0  0
 21 22  2  0  0  0  0
 22 23  1  0  0  0  0
 23 24  2  0  0  0  0
 24 25  1  0  0  0  0
 25 26  1  0  0  0  0
 24 27  1  0  0  0  0
 27 28  2  0  0  0  0
 20 29  1  0  0  0  0
 29 30  2  0  0  0  0
 30 31  1  0  0  0  0
 31 32  2  0  0  0  0
 32 33  1  0  0  0  0
 33 34  1  0  0  0  0
 32 35  1  0  0  0  0
 35 36  2  0  0  0  0
 19 37  1  0  0  0  0
 37 38  1  0  0  0  0
 38 39  1  0  0  0  0
 39 40  2  0  0  0  0
 40 41  1  0  0  0  0
 41 42  1  0  0  0  0
 42 43  2  0  0  0  0
 43 44  1  0  0  0  0
 44 45  2  0  0  0  0
 45 46  1  0  0  0  0
 46 47  1  0  0  0  0
 45 48  1  0  0  0  0
 48 49  2  0  0  0  0
 41 50  1  0  0  0  0
 50 51  2  0  0  0  0
 51 52  1  0  0  0  0
 52 53  2  0  0  0  0
 53 54  1  0  0  0  0
 54 55  1  0  0  0  0
 53 56  1  0  0  0  0
 56 57  2  0  0  0  0
 40 58  1  0  0  0  0
 58 59  1  0  0  0  0
 39 60  1  0  0  0  0
 60 61  2  0  0  0  0
 61 62  1  0  0  0  0
 62 63  1  0  0  0  0
 63 64  2  0  0  0  0
 64 65  1  0  0  0  0
 65 66  2  0  0  0  0
 66 67  1  0  0  0  0
 67 68  1  0  0  0  0
 66 69  1  0  0  0  0
 69 70  2  0  0  0  0
 62 71  1  0  0  0  0
 71 72  2  0  0  0  0
 72 73  1  0  0  0  0
 73 74  2  0  0  0  0
 74 75  1  0  0  0  0
 75 76  1  0  0  0  0
 74 77  1  0  0  0  0
 77 78  2  0  0  0  0
 61 79  1  0  0  0  0
 79 80  1  0  0  0  0
 80 81  1  0  0  0  0
 81 82  2  0  0  0  0
 82 83  1  0  0  0  0
 83 84  1  0  0  0  0
 84 85  2  0  0  0  0
 85 86  1  0  0  0  0
 86 87  2  0  0  0  0
 87 88  1  0  0  0  0
 88 89  1  0  0  0  0
 87 90  1  0  0  0  0
 90 91  2  0  0  0  0
 83 92  1  0  0  0  0
 92 93  2  0  0  0  0
 93 94  1  0  0  0  0
 94 95  2  0  0  0  0
 95 96  1  0  0  0  0
 96 97  1  0  0  0  0
 95 98  1  0  0  0  0
 98 99  2  0  0  0  0
 82100  1  0  0  0  0
100101  1  0  0  0  0
 81102  1  0  0  0  0
102103  2  0  0  0  0
103104  1  0  0  0  0
104105  1  0  0  0  0
104106  2  0  0  0  0
106107  1  0  0  0  0
107108  1  0  0  0  0
108109  2  0  0  0  0
109110  1  0  0  0  0
110111  1  0  0  0  0
106112  1  0  0  0  0
112113  2  0  0  0  0
113114  1  0  0  0  0
114115  2  0  0  0  0
114116  1  0  0  0  0
116117  2  0  0  0  0
117118  1  0  0  0  0
118119  2  0  0  0  0
119120  1  0  0  0  0
119121  1  0  0  0  0
121122  2  0  0  0  0
122123  1  0  0  0  0
123124  2  0  0  0  0
124125  1  0  0  0  0
125126  3  0  0  0  0
124127  1  0  0  0  0
127128  3  0  0  0  0
 12  2  1  0  0  0  0
 59 18  1  0  0  0  0
101 60  1  0  0  0  0
108102  1  0  0  0  0
123113  1  0  0  0  0
 11  5  1  0  0  0  0
 28 21  1  0  0  0  0
 36 29  1  0  0  0  0
 58 37  2  0  0  0  0
 70 63  1  0  0  0  0
 78 71  1  0  0  0  0
100 79  2  0  0  0  0
111107  2  0  0  0  0
122116  1  0  0  0  0
 49 42  1  0  0  0  0
 57 50  1  0  0  0  0
 91 84  1  0  0  0  0
 99 92  1  0  0  0  0
  1129  1  0  0  0  0
  6130  1  0  0  0  0
  7131  1  0  0  0  0
 10132  1  0  0  0  0
 22133  1  0  0  0  0
 23134  1  0  0  0  0
 26135  1  0  0  0  0
 26136  1  0  0  0  0
 26137  1  0  0  0  0
 27138  1  0  0  0  0
 28139  1  0  0  0  0
 30140  1  0  0  0  0
 31141  1  0  0  0  0
 34142  1  0  0  0  0
 34143  1  0  0  0  0
 34144  1  0  0  0  0
 35145  1  0  0  0  0
 36146  1  0  0  0  0
 43147  1  0  0  0  0
 44148  1  0  0  0  0
 47149  1  0  0  0  0
 47150  1  0  0  0  0
 47151  1  0  0  0  0
 48152  1  0  0  0  0
 49153  1  0  0  0  0
 51154  1  0  0  0  0
 52155  1  0  0  0  0
 55156  1  0  0  0  0
 55157  1  0  0  0  0
 55158  1  0  0  0  0
 56159  1  0  0  0  0
 57160  1  0  0  0  0
 64161  1  0  0  0  0
 65162  1  0  0  0  0
 68163  1  0  0  0  0
 68164  1  0  0  0  0
 68165  1  0  0  0  0
 69166  1  0  0  0  0
 70167  1  0  0  0  0
 72168  1  0  0  0  0
 73169  1  0  0  0  0
 76170  1  0  0  0  0
 76171  1  0  0  0  0
 76172  1  0  0  0  0
 77173  1  0  0  0  0
 78174  1  0  0  0  0
 85175  1  0  0  0  0
 86176  1  0  0  0  0
 89177  1  0  0  0  0
 89178  1  0  0  0  0
 89179  1  0  0  0  0
 90180  1  0  0  0  0
 91181  1  0  0  0  0
 93182  1  0  0  0  0
 94183  1  0  0  0  0
 97184  1  0  0  0  0
 97185  1  0  0  0  0
 97186  1  0  0  0  0
 98187  1  0  0  0  0
 99188  1  0  0  0  0
103189  1  0  0  0  0
112190  1  0  0  0  0
117191  1  0  0  0  0
118192  1  0  0  0  0
121193  1  0  0  0  0
M  END
