178

C          3.51190       -3.85090        6.03900
C          3.83030       -3.01380        7.05870
C          3.87110       -1.54220        6.88350
O          3.56110       -0.91390        5.89520
C          4.42730       -1.01680        8.14690
C          4.67250        0.29680        8.50060
C          5.22550        0.55570        9.74430
C          5.51630       -0.50630       10.58860
F          6.05710       -0.23710       11.78790
C          5.27820       -1.83280       10.25820
C          4.72310       -2.08520        9.01380
C          4.34040       -3.34280        8.37440
C          4.39390       -4.58690        8.94080
C          3.88710       -5.75230        8.32780
N          3.43960       -6.71810        7.89730
C          4.90740       -4.85650       10.22670
N          5.31370       -5.13630       11.26270
C          2.89240       -3.35200        4.80700
C          1.57320       -2.89630        4.76590
S          0.62800       -2.74220        6.25940
C          0.57360       -4.45620        6.93280
C          0.60870       -4.41490        8.44670
C          1.05220       -2.41790        3.56040
S         -0.58490       -1.78030        3.39170
C         -1.67460       -3.08100        4.10940
C         -2.62340       -2.50460        5.13940
C          1.85950       -2.34030        2.40950
C          3.18520       -2.77430        2.45230
C          3.68180       -3.30400        3.65450
C          5.04770       -3.78850        3.84100
O          5.43330       -4.16460        4.94220
C          5.87310       -3.78210        2.64540
C          5.38380       -3.26320        1.40980
C          4.03390       -2.70850        1.24040
O          3.66380       -2.24260        0.18030
C          6.31940       -3.34360        0.41810
S          7.78590       -4.04630        0.96380
C          7.15830       -4.23900        2.54600
C          1.24910       -1.83620        1.17570
C          0.38710       -2.53950        0.36610
N         -0.01400       -3.85290        0.60920
C         -1.36160       -4.19470        0.56340
C         -2.35810       -3.22640        0.68290
C         -3.69390       -3.57200        0.60670
C         -4.06310       -4.89520        0.41690
S         -5.73630       -5.45570        0.29740
C         -6.71810       -3.93830        0.47220
C         -3.07200       -5.86950        0.31220
C         -1.74080       -5.52680        0.38050
C          0.96690       -4.73420        1.08840
C          0.81050       -5.41610        2.29530
C          1.85540       -6.14590        2.81610
C          3.06780       -6.23050        2.13340
S          4.38230       -7.08150        2.95060
C          5.54250       -7.46330        1.60710
C          3.19990       -5.61800        0.89420
C          2.15460       -4.87740        0.37800
C         -0.06160       -1.74040       -0.71260
S         -1.12030       -1.99540       -2.05210
C         -0.93660       -0.33180       -2.53010
C         -0.07240        0.36920       -1.72500
N          0.21200        1.72630       -1.88100
C          0.03780        2.59190       -0.80680
C          0.73700        3.79650       -0.74750
C          0.59030        4.64790        0.32920
C         -0.24930        4.30400        1.37960
S         -0.51140        5.30530        2.81140
C          0.68590        6.65790        2.62580
C         -0.95290        3.10280        1.32510
C         -0.81830        2.26000        0.24660
C          0.60750        2.18510       -3.14510
C          1.63340        1.53440       -3.83130
C          2.01330        1.97070       -5.08190
C          1.36880        3.05200       -5.67960
S          1.93120        3.51990       -7.28930
C          0.66120        4.67350       -7.88300
C          0.35440        3.70680       -4.99450
C         -0.01400        3.28230       -3.73340
C          0.43610       -0.45060       -0.68540
S          1.51650       -0.20080        0.63690
C         -1.74500        0.27730       -3.58870
C         -2.99800        0.79740       -3.24480
S         -3.56120        0.53900       -1.57890
C         -5.02320       -0.53870       -1.82980
C         -4.67670       -1.82940       -2.54350
C         -3.74790        1.53460       -4.16600
S         -5.31630        2.17360       -3.66510
C         -6.41830        1.80200       -5.08350
C         -6.36280        0.35200       -5.51730
C         -3.19680        1.81690       -5.41970
C         -1.98210        1.22210       -5.78840
C         -1.27380        0.39980       -4.89830
C         -0.06730       -0.34800       -5.32130
O          0.49240       -1.16060       -4.61030
C          0.36550       -0.07280       -6.69420
C         -0.28810        0.87130       -7.54100
C         -1.46030        1.60370       -7.10270
O         -1.99790        2.49400       -7.75700
C          0.32330        0.98260       -8.76120
S          1.67480       -0.05290       -8.89830
C          1.44200       -0.64640       -7.30780
C         -3.83150        2.72470       -6.37660
C         -3.96470        4.05520       -6.15800
C         -3.33610        4.76960       -5.01980
O         -2.80610        4.28350       -4.04520
C         -3.49570        6.20450       -5.32440
C         -3.03990        7.29250       -4.60310
C         -3.29890        8.56360       -5.08880
C         -4.00450        8.70210       -6.27630
F         -4.24160        9.94120       -6.73400
C         -4.47690        7.62710       -7.01540
C         -4.21480        6.35740       -6.52450
C         -4.57450        5.03860       -7.03700
C         -5.38830        4.78300       -8.10660
C         -5.95140        5.77860       -8.93280
N         -6.43410        6.54300       -9.63950
C         -5.81350        3.49290       -8.48720
N         -6.22780        2.47070       -8.80750
H          3.58990       -4.92530        6.14790
H          4.43260        1.09410        7.81460
H          5.43640        1.56200       10.07000
H          5.53000       -2.61050       10.96040
H          1.41920       -5.00660        6.52970
H         -0.35520       -4.90730        6.58140
H          0.62470       -5.42860        8.84090
H         -0.26650       -3.89920        8.83460
H          1.49580       -3.89100        8.79530
H         -2.22270       -3.48770        3.25790
H         -1.03530       -3.85220        4.52820
H         -3.22700       -1.71750        4.69490
H         -2.07130       -2.08730        5.97740
H         -3.28530       -3.28670        5.50640
H          6.21170       -3.02380       -0.59960
H          7.75170       -4.67980        3.32260
H         -2.09320       -2.19440        0.85260
H         -4.43240       -2.79390        0.71140
H         -7.75430       -4.25140        0.39080
H         -6.47750       -3.24560       -0.32880
H         -6.54470       -3.49140        1.44690
H         -3.36190       -6.89890        0.16710
H         -0.98170       -6.28870        0.28560
H         -0.12860       -5.35240        2.82460
H          1.75280       -6.65220        3.76410
H          6.04930       -6.56290        1.27160
H          5.00840       -7.94120        0.79170
H          6.26540       -8.15240        2.03230
H          4.11190       -5.70510        0.32550
H          2.26580       -4.37530       -0.57080
H          1.40800        4.06520       -1.54980
H          1.14610        5.57180        0.33770
H          0.43130        7.26870        1.76430
H          1.68940        6.25180        2.53980
H          0.60260        7.24930        3.53230
H         -1.61230        2.84200        2.13830
H         -1.38970        1.34600        0.20970
H          2.12550        0.68790       -3.37680
H          2.81960        1.48310       -5.60880
H         -0.31620        4.20150       -7.84090
H          0.92450        4.88890       -8.91400
H          0.68550        5.59020       -7.30070
H         -0.16130        4.54740       -5.43130
H         -0.81060        3.78640       -3.21000
H         -5.78250        0.03300       -2.35990
H         -5.36550       -0.72430       -0.81230
H         -3.93600       -2.39520       -1.98300
H         -5.57150       -2.43970       -2.65700
H         -4.27470       -1.62830       -3.53480
H         -7.40460        2.05660       -4.69510
H         -6.18310        2.47240       -5.90730
H         -7.04120        0.20470       -6.35470
H         -6.65950       -0.30890       -4.70600
H         -5.36000        0.07760       -5.84010
H          0.03430        1.61620       -9.57630
H          2.10440       -1.38040       -6.89330
H         -4.24950        2.27060       -7.26690
H         -2.49640        7.14190       -3.68320
H         -2.96620        9.44650       -4.56650
H         -5.01800        7.80550       -7.92990
