
  xtb     02112206093D
 energy: -278.569953410011 gnorm: 0.000212825261 xtb: 6.4.1 (unknown)
155171  0     0  0            999 V2000
   -6.5758    5.7324    8.0419 C   0  0  0  0  0  0  0  0  0  0  0  0
   -6.6020    5.0707    9.2284 C   0  0  0  0  0  0  0  0  0  0  0  0
   -5.6011    4.0671    9.7015 C   0  0  0  0  0  0  0  0  0  0  0  0
   -4.4901    3.8485    9.2721 O   0  0  0  0  0  0  0  0  0  0  0  0
   -6.2742    3.3586   10.7950 C   0  0  0  0  0  0  0  0  0  0  0  0
   -7.5544    3.9461   11.0493 C   0  0  0  0  0  0  0  0  0  0  0  0
   -8.2281    3.3441   12.0661 C   0  0  0  0  0  0  0  0  0  0  0  0
   -7.3146    2.0403   12.7336 S   0  0  0  0  0  0  0  0  0  0  0  0
   -5.9934    2.3129   11.6222 C   0  0  0  0  0  0  0  0  0  0  0  0
   -4.6003    1.3490   11.6537 Cl  0  0  0  0  0  0  0  0  0  0  0  0
   -7.7561    5.0402   10.1227 C   0  0  0  0  0  0  0  0  0  0  0  0
   -8.8184    5.9014   10.1514 C   0  0  0  0  0  0  0  0  0  0  0  0
   -8.9902    7.0213    9.3126 C   0  0  0  0  0  0  0  0  0  0  0  0
   -9.1818    7.9570    8.6759 N   0  0  0  0  0  0  0  0  0  0  0  0
   -9.8584    5.7476   11.0929 C   0  0  0  0  0  0  0  0  0  0  0  0
  -10.7111    5.6309   11.8513 N   0  0  0  0  0  0  0  0  0  0  0  0
   -5.5044    5.7942    7.0829 C   0  0  0  0  0  0  0  0  0  0  0  0
   -5.8472    5.7788    5.7167 C   0  0  0  0  0  0  0  0  0  0  0  0
   -4.8448    5.7079    4.7833 C   0  0  0  0  0  0  0  0  0  0  0  0
   -4.9413    5.5582    3.3062 C   0  0  0  0  0  0  0  0  0  0  0  0
   -5.9317    5.6058    2.6175 O   0  0  0  0  0  0  0  0  0  0  0  0
   -3.5378    5.3238    2.8742 C   0  0  0  0  0  0  0  0  0  0  0  0
   -2.6768    5.4546    3.9825 C   0  0  0  0  0  0  0  0  0  0  0  0
   -3.4863    5.6940    5.1665 C   0  0  0  0  0  0  0  0  0  0  0  0
   -3.1451    5.8228    6.5009 C   0  0  0  0  0  0  0  0  0  0  0  0
   -4.1555    5.8662    7.4482 C   0  0  0  0  0  0  0  0  0  0  0  0
   -1.3162    5.2668    3.8216 C   0  0  0  0  0  0  0  0  0  0  0  0
   -0.8495    4.8198    2.5954 C   0  0  0  0  0  0  0  0  0  0  0  0
   -1.7162    4.5630    1.5308 C   0  0  0  0  0  0  0  0  0  0  0  0
   -3.0741    4.9079    1.6511 C   0  0  0  0  0  0  0  0  0  0  0  0
   -1.2587    3.8128    0.3826 C   0  0  0  0  0  0  0  0  0  0  0  0
   -1.9364    2.7785   -0.2425 C   0  0  0  0  0  0  0  0  0  0  0  0
   -3.1962    2.2988    0.0874 N   0  0  0  0  0  0  0  0  0  0  0  0
   -3.5947    2.2049    1.4274 C   0  0  0  0  0  0  0  0  0  0  0  0
   -2.6674    1.9026    2.4219 C   0  0  0  0  0  0  0  0  0  0  0  0
   -3.0277    1.9192    3.7536 C   0  0  0  0  0  0  0  0  0  0  0  0
   -4.3321    2.2260    4.1182 C   0  0  0  0  0  0  0  0  0  0  0  0
   -4.8820    2.3525    5.7910 S   0  0  0  0  0  0  0  0  0  0  0  0
   -3.3451    2.2923    6.7504 C   0  0  0  0  0  0  0  0  0  0  0  0
   -5.2806    2.4553    3.1231 C   0  0  0  0  0  0  0  0  0  0  0  0
   -4.9194    2.4473    1.7950 C   0  0  0  0  0  0  0  0  0  0  0  0
   -4.0254    1.8410   -0.9443 C   0  0  0  0  0  0  0  0  0  0  0  0
   -4.8430    0.7243   -0.7648 C   0  0  0  0  0  0  0  0  0  0  0  0
   -5.6441    0.2814   -1.7916 C   0  0  0  0  0  0  0  0  0  0  0  0
   -5.6453    0.9326   -3.0248 C   0  0  0  0  0  0  0  0  0  0  0  0
   -6.7117    0.2641   -4.2615 S   0  0  0  0  0  0  0  0  0  0  0  0
   -6.4419    1.3363   -5.7015 C   0  0  0  0  0  0  0  0  0  0  0  0
   -4.8328    2.0422   -3.2087 C   0  0  0  0  0  0  0  0  0  0  0  0
   -4.0353    2.4927   -2.1746 C   0  0  0  0  0  0  0  0  0  0  0  0
   -1.1197    2.1567   -1.2214 C   0  0  0  0  0  0  0  0  0  0  0  0
   -1.3159    0.7532   -2.2110 S   0  0  0  0  0  0  0  0  0  0  0  0
    0.3487    0.8791   -2.7431 C   0  0  0  0  0  0  0  0  0  0  0  0
    1.0204    1.9382   -2.1614 C   0  0  0  0  0  0  0  0  0  0  0  0
    2.3844    2.1792   -2.2837 N   0  0  0  0  0  0  0  0  0  0  0  0
    3.2703    1.0918   -2.2779 C   0  0  0  0  0  0  0  0  0  0  0  0
    4.3743    1.0589   -3.1246 C   0  0  0  0  0  0  0  0  0  0  0  0
    5.1779   -0.0639   -3.1953 C   0  0  0  0  0  0  0  0  0  0  0  0
    4.8866   -1.1795   -2.4231 C   0  0  0  0  0  0  0  0  0  0  0  0
    5.7676   -2.7083   -2.4880 S   0  0  0  0  0  0  0  0  0  0  0  0
    7.0755   -2.4151   -3.7115 C   0  0  0  0  0  0  0  0  0  0  0  0
    3.8170   -1.1288   -1.5307 C   0  0  0  0  0  0  0  0  0  0  0  0
    3.0253   -0.0075   -1.4529 C   0  0  0  0  0  0  0  0  0  0  0  0
    2.8434    3.4972   -2.3439 C   0  0  0  0  0  0  0  0  0  0  0  0
    4.0738    3.8521   -1.7876 C   0  0  0  0  0  0  0  0  0  0  0  0
    4.5102    5.1555   -1.8446 C   0  0  0  0  0  0  0  0  0  0  0  0
    3.7298    6.1417   -2.4467 C   0  0  0  0  0  0  0  0  0  0  0  0
    4.3999    7.7755   -2.4534 S   0  0  0  0  0  0  0  0  0  0  0  0
    3.0935    8.7829   -3.2108 C   0  0  0  0  0  0  0  0  0  0  0  0
    2.5055    5.7952   -2.9993 C   0  0  0  0  0  0  0  0  0  0  0  0
    2.0717    4.4844   -2.9517 C   0  0  0  0  0  0  0  0  0  0  0  0
    0.1593    2.6759   -1.3089 C   0  0  0  0  0  0  0  0  0  0  0  0
    0.3912    3.9838   -0.2021 S   0  0  0  0  0  0  0  0  0  0  0  0
    0.9504   -0.1806   -3.5320 C   0  0  0  0  0  0  0  0  0  0  0  0
    0.7887   -1.5085   -3.1143 C   0  0  0  0  0  0  0  0  0  0  0  0
    1.5874   -2.4728   -3.6769 C   0  0  0  0  0  0  0  0  0  0  0  0
    1.7736   -3.8857   -3.2521 C   0  0  0  0  0  0  0  0  0  0  0  0
    1.1784   -4.4823   -2.3889 O   0  0  0  0  0  0  0  0  0  0  0  0
    2.8949   -4.3740   -4.0986 C   0  0  0  0  0  0  0  0  0  0  0  0
    3.2983   -3.3496   -4.9798 C   0  0  0  0  0  0  0  0  0  0  0  0
    2.4993   -2.1647   -4.7059 C   0  0  0  0  0  0  0  0  0  0  0  0
    2.5682   -0.8764   -5.2022 C   0  0  0  0  0  0  0  0  0  0  0  0
    1.8048    0.1101   -4.5966 C   0  0  0  0  0  0  0  0  0  0  0  0
    4.3619   -3.5620   -5.8388 C   0  0  0  0  0  0  0  0  0  0  0  0
    5.0207   -4.7793   -5.7895 C   0  0  0  0  0  0  0  0  0  0  0  0
    4.6194   -5.8056   -4.9241 C   0  0  0  0  0  0  0  0  0  0  0  0
    3.5353   -5.5857   -4.0566 C   0  0  0  0  0  0  0  0  0  0  0  0
    5.3933   -7.0192   -4.8750 C   0  0  0  0  0  0  0  0  0  0  0  0
    4.9497   -8.2655   -4.5698 C   0  0  0  0  0  0  0  0  0  0  0  0
    3.5231   -8.7045   -4.5807 C   0  0  0  0  0  0  0  0  0  0  0  0
    2.5455   -8.0475   -4.8579 O   0  0  0  0  0  0  0  0  0  0  0  0
    3.5531  -10.1492   -4.2923 C   0  0  0  0  0  0  0  0  0  0  0  0
    2.4975  -11.0045   -4.1572 C   0  0  0  0  0  0  0  0  0  0  0  0
    2.7456  -12.3616   -3.8572 C   0  0  0  0  0  0  0  0  0  0  0  0
    1.6932  -13.2846   -3.6880 C   0  0  0  0  0  0  0  0  0  0  0  0
    1.9472  -14.5955   -3.3955 C   0  0  0  0  0  0  0  0  0  0  0  0
    3.2783  -15.0158   -3.2652 C   0  0  0  0  0  0  0  0  0  0  0  0
    3.5079  -16.3094   -2.9769 F   0  0  0  0  0  0  0  0  0  0  0  0
    4.3354  -14.1629   -3.4192 C   0  0  0  0  0  0  0  0  0  0  0  0
    4.0927  -12.8078   -3.7186 C   0  0  0  0  0  0  0  0  0  0  0  0
    5.1654  -11.9000   -3.8742 C   0  0  0  0  0  0  0  0  0  0  0  0
    4.9005  -10.5839   -4.1516 C   0  0  0  0  0  0  0  0  0  0  0  0
    5.7824   -9.4362   -4.3330 C   0  0  0  0  0  0  0  0  0  0  0  0
    7.1478   -9.4598   -4.2243 C   0  0  0  0  0  0  0  0  0  0  0  0
    7.9015  -10.6262   -3.9719 C   0  0  0  0  0  0  0  0  0  0  0  0
    8.5741  -11.5354   -3.7759 N   0  0  0  0  0  0  0  0  0  0  0  0
    8.0016   -8.3422   -4.3387 C   0  0  0  0  0  0  0  0  0  0  0  0
    8.7646   -7.4864   -4.4084 N   0  0  0  0  0  0  0  0  0  0  0  0
   -7.4958    6.2078    7.7202 H   0  0  0  0  0  0  0  0  0  0  0  0
   -9.1965    3.5668   12.4680 H   0  0  0  0  0  0  0  0  0  0  0  0
   -6.8821    5.7622    5.4097 H   0  0  0  0  0  0  0  0  0  0  0  0
   -2.1116    5.8643    6.8102 H   0  0  0  0  0  0  0  0  0  0  0  0
   -3.8961    5.9701    8.4889 H   0  0  0  0  0  0  0  0  0  0  0  0
   -0.6304    5.4109    4.6429 H   0  0  0  0  0  0  0  0  0  0  0  0
    0.2018    4.6023    2.4716 H   0  0  0  0  0  0  0  0  0  0  0  0
   -3.7455    4.8210    0.8115 H   0  0  0  0  0  0  0  0  0  0  0  0
   -1.6493    1.6651    2.1507 H   0  0  0  0  0  0  0  0  0  0  0  0
   -2.2819    1.6862    4.4960 H   0  0  0  0  0  0  0  0  0  0  0  0
   -2.6318    2.9960    6.3329 H   0  0  0  0  0  0  0  0  0  0  0  0
   -3.6156    2.6019    7.7553 H   0  0  0  0  0  0  0  0  0  0  0  0
   -2.9491    1.2808    6.7611 H   0  0  0  0  0  0  0  0  0  0  0  0
   -6.2998    2.6664    3.4063 H   0  0  0  0  0  0  0  0  0  0  0  0
   -5.6569    2.6632    1.0374 H   0  0  0  0  0  0  0  0  0  0  0  0
   -4.8384    0.2062    0.1820 H   0  0  0  0  0  0  0  0  0  0  0  0
   -6.2747   -0.5836   -1.6559 H   0  0  0  0  0  0  0  0  0  0  0  0
   -5.4030    1.2844   -6.0140 H   0  0  0  0  0  0  0  0  0  0  0  0
   -6.7361    2.3553   -5.4677 H   0  0  0  0  0  0  0  0  0  0  0  0
   -7.0817    0.9396   -6.4837 H   0  0  0  0  0  0  0  0  0  0  0  0
   -4.8145    2.5729   -4.1468 H   0  0  0  0  0  0  0  0  0  0  0  0
   -3.4164    3.3661   -2.3223 H   0  0  0  0  0  0  0  0  0  0  0  0
    4.5938    1.9126   -3.7486 H   0  0  0  0  0  0  0  0  0  0  0  0
    6.0160   -0.0605   -3.8733 H   0  0  0  0  0  0  0  0  0  0  0  0
    7.7285   -1.6161   -3.3735 H   0  0  0  0  0  0  0  0  0  0  0  0
    6.6336   -2.1876   -4.6769 H   0  0  0  0  0  0  0  0  0  0  0  0
    7.6315   -3.3457   -3.7702 H   0  0  0  0  0  0  0  0  0  0  0  0
    3.6124   -1.9858   -0.9075 H   0  0  0  0  0  0  0  0  0  0  0  0
    2.1977    0.0185   -0.7602 H   0  0  0  0  0  0  0  0  0  0  0  0
    4.6774    3.0992   -1.3040 H   0  0  0  0  0  0  0  0  0  0  0  0
    5.4600    5.4311   -1.4124 H   0  0  0  0  0  0  0  0  0  0  0  0
    3.4623    9.8036   -3.1869 H   0  0  0  0  0  0  0  0  0  0  0  0
    2.1813    8.7063   -2.6264 H   0  0  0  0  0  0  0  0  0  0  0  0
    2.9328    8.4747   -4.2399 H   0  0  0  0  0  0  0  0  0  0  0  0
    1.8801    6.5310   -3.4783 H   0  0  0  0  0  0  0  0  0  0  0  0
    1.1234    4.2232   -3.3987 H   0  0  0  0  0  0  0  0  0  0  0  0
    0.1110   -1.7538   -2.3104 H   0  0  0  0  0  0  0  0  0  0  0  0
    3.2335   -0.6244   -6.0141 H   0  0  0  0  0  0  0  0  0  0  0  0
    1.8872    1.1321   -4.9362 H   0  0  0  0  0  0  0  0  0  0  0  0
    4.6866   -2.7924   -6.5239 H   0  0  0  0  0  0  0  0  0  0  0  0
    5.8641   -4.9532   -6.4431 H   0  0  0  0  0  0  0  0  0  0  0  0
    3.2357   -6.3269   -3.3347 H   0  0  0  0  0  0  0  0  0  0  0  0
    6.4447   -6.8934   -5.1040 H   0  0  0  0  0  0  0  0  0  0  0  0
    1.4855  -10.6449   -4.2687 H   0  0  0  0  0  0  0  0  0  0  0  0
    0.6767  -12.9363   -3.7930 H   0  0  0  0  0  0  0  0  0  0  0  0
    1.1544  -15.3143   -3.2620 H   0  0  0  0  0  0  0  0  0  0  0  0
    5.3470  -14.5215   -3.3098 H   0  0  0  0  0  0  0  0  0  0  0  0
    6.1716  -12.2715   -3.7669 H   0  0  0  0  0  0  0  0  0  0  0  0
  1  2  2  0  0  0  0
  2  3  1  0  0  0  0
  3  4  2  0  0  0  0
  3  5  1  0  0  0  0
  5  6  1  0  0  0  0
  6  7  2  0  0  0  0
  7  8  1  0  0  0  0
  8  9  1  0  0  0  0
  9 10  1  0  0  0  0
  6 11  1  0  0  0  0
 11 12  2  0  0  0  0
 12 13  1  0  0  0  0
 13 14  3  0  0  0  0
 12 15  1  0  0  0  0
 15 16  3  0  0  0  0
  1 17  1  0  0  0  0
 17 18  2  0  0  0  0
 18 19  1  0  0  0  0
 19 20  1  0  0  0  0
 20 21  2  0  0  0  0
 20 22  1  0  0  0  0
 22 23  2  0  0  0  0
 23 24  1  0  0  0  0
 24 25  1  0  0  0  0
 25 26  2  0  0  0  0
 23 27  1  0  0  0  0
 27 28  2  0  0  0  0
 28 29  1  0  0  0  0
 29 30  2  0  0  0  0
 29 31  1  0  0  0  0
 31 32  2  0  0  0  0
 32 33  1  0  0  0  0
 33 34  1  0  0  0  0
 34 35  2  0  0  0  0
 35 36  1  0  0  0  0
 36 37  2  0  0  0  0
 37 38  1  0  0  0  0
 38 39  1  0  0  0  0
 37 40  1  0  0  0  0
 40 41  2  0  0  0  0
 33 42  1  0  0  0  0
 42 43  2  0  0  0  0
 43 44  1  0  0  0  0
 44 45  2  0  0  0  0
 45 46  1  0  0  0  0
 46 47  1  0  0  0  0
 45 48  1  0  0  0  0
 48 49  2  0  0  0  0
 32 50  1  0  0  0  0
 50 51  1  0  0  0  0
 51 52  1  0  0  0  0
 52 53  2  0  0  0  0
 53 54  1  0  0  0  0
 54 55  1  0  0  0  0
 55 56  2  0  0  0  0
 56 57  1  0  0  0  0
 57 58  2  0  0  0  0
 58 59  1  0  0  0  0
 59 60  1  0  0  0  0
 58 61  1  0  0  0  0
 61 62  2  0  0  0  0
 54 63  1  0  0  0  0
 63 64  2  0  0  0  0
 64 65  1  0  0  0  0
 65 66  2  0  0  0  0
 66 67  1  0  0  0  0
 67 68  1  0  0  0  0
 66 69  1  0  0  0  0
 69 70  2  0  0  0  0
 53 71  1  0  0  0  0
 71 72  1  0  0  0  0
 52 73  1  0  0  0  0
 73 74  2  0  0  0  0
 74 75  1  0  0  0  0
 75 76  1  0  0  0  0
 76 77  2  0  0  0  0
 76 78  1  0  0  0  0
 78 79  2  0  0  0  0
 79 80  1  0  0  0  0
 80 81  1  0  0  0  0
 81 82  2  0  0  0  0
 79 83  1  0  0  0  0
 83 84  2  0  0  0  0
 84 85  1  0  0  0  0
 85 86  2  0  0  0  0
 85 87  1  0  0  0  0
 87 88  2  0  0  0  0
 88 89  1  0  0  0  0
 89 90  2  0  0  0  0
 89 91  1  0  0  0  0
 91 92  2  0  0  0  0
 92 93  1  0  0  0  0
 93 94  2  0  0  0  0
 94 95  1  0  0  0  0
 95 96  2  0  0  0  0
 96 97  1  0  0  0  0
 96 98  1  0  0  0  0
 98 99  2  0  0  0  0
 99100  1  0  0  0  0
100101  2  0  0  0  0
101102  1  0  0  0  0
102103  2  0  0  0  0
103104  1  0  0  0  0
104105  3  0  0  0  0
103106  1  0  0  0  0
106107  3  0  0  0  0
 11  2  1  0  0  0  0
 26 17  1  0  0  0  0
 72 31  1  0  0  0  0
 82 73  1  0  0  0  0
102 88  1  0  0  0  0
  9  5  2  0  0  0  0
 24 19  2  0  0  0  0
 41 34  1  0  0  0  0
 49 42  1  0  0  0  0
 71 50  2  0  0  0  0
 80 75  2  0  0  0  0
101 91  1  0  0  0  0
 30 22  1  0  0  0  0
 62 55  1  0  0  0  0
 70 63  1  0  0  0  0
 86 78  1  0  0  0  0
 99 93  1  0  0  0  0
  1108  1  0  0  0  0
  7109  1  0  0  0  0
 18110  1  0  0  0  0
 25111  1  0  0  0  0
 26112  1  0  0  0  0
 27113  1  0  0  0  0
 28114  1  0  0  0  0
 30115  1  0  0  0  0
 35116  1  0  0  0  0
 36117  1  0  0  0  0
 39118  1  0  0  0  0
 39119  1  0  0  0  0
 39120  1  0  0  0  0
 40121  1  0  0  0  0
 41122  1  0  0  0  0
 43123  1  0  0  0  0
 44124  1  0  0  0  0
 47125  1  0  0  0  0
 47126  1  0  0  0  0
 47127  1  0  0  0  0
 48128  1  0  0  0  0
 49129  1  0  0  0  0
 56130  1  0  0  0  0
 57131  1  0  0  0  0
 60132  1  0  0  0  0
 60133  1  0  0  0  0
 60134  1  0  0  0  0
 61135  1  0  0  0  0
 62136  1  0  0  0  0
 64137  1  0  0  0  0
 65138  1  0  0  0  0
 68139  1  0  0  0  0
 68140  1  0  0  0  0
 68141  1  0  0  0  0
 69142  1  0  0  0  0
 70143  1  0  0  0  0
 74144  1  0  0  0  0
 81145  1  0  0  0  0
 82146  1  0  0  0  0
 83147  1  0  0  0  0
 84148  1  0  0  0  0
 86149  1  0  0  0  0
 87150  1  0  0  0  0
 92151  1  0  0  0  0
 94152  1  0  0  0  0
 95153  1  0  0  0  0
 98154  1  0  0  0  0
100155  1  0  0  0  0
M  END
