158

C          1.98880       -5.38490       -4.79270
C          1.74210       -5.32530       -6.14280
C          1.81350       -6.57090       -6.94280
O          2.19520       -7.65770       -6.55990
C          1.27710       -6.19210       -8.25920
C          1.00240       -4.78380       -8.27310
C          0.49080       -4.34580       -9.45120
S          0.32370       -5.64450      -10.58050
C          0.97000       -6.80080       -9.43620
Cl         1.14910       -8.43520       -9.85050
C          1.39840       -4.22000       -6.99510
C          1.64720       -2.88310       -6.77750
C          1.39200       -1.91950       -7.76430
N          1.20330       -1.10850       -8.55730
C          2.29530       -2.36790       -5.64240
N          2.87800       -1.90500       -4.76550
C          1.56290       -4.49400       -3.80080
C          2.15530       -4.20560       -2.55620
N          3.30190       -4.75440       -2.05760
C          4.17870       -3.95330       -1.29940
C          4.77920       -4.47140       -0.15350
C          5.64070       -3.69060        0.58260
C          5.91850       -2.38070        0.19070
S          7.03370       -1.48260        1.21700
C          7.16850        0.13840        0.41110
C          5.32640       -1.86880       -0.95730
C          4.46450       -2.65170       -1.69980
C          3.66850       -6.07450       -2.35060
C          4.99160       -6.39120       -2.65860
C          5.31780       -7.66560       -3.06700
C          4.33220       -8.64340       -3.18320
S          4.78560      -10.21110       -3.84810
C          3.27630      -10.66820       -4.75470
C          3.03050       -8.35490       -2.78880
C          2.70380       -7.08180       -2.37020
C          1.44930       -3.16940       -1.89870
S          1.64920       -2.36830       -0.38210
C          0.20040       -1.42920       -0.66540
C         -0.44140       -1.76700       -1.84810
N         -1.67480       -1.31260       -2.26910
C         -1.91090       -1.17110       -3.64600
C         -0.91600       -0.69340       -4.49610
C         -1.15920       -0.54410       -5.84900
C         -2.40130       -0.87630       -6.37290
S         -2.81530       -0.73710       -8.08230
C         -1.59070        0.43810       -8.72760
C         -3.39410       -1.36680       -5.52540
C         -3.15440       -1.51160       -4.17790
C         -2.63560       -0.88220       -1.34670
C         -2.78750       -1.53090       -0.12300
C         -3.63320       -1.02840        0.84590
C         -4.35860        0.12950        0.60190
S         -5.40760        0.89970        1.79540
C         -4.85040        0.18690        3.36840
C         -4.28160        0.72860       -0.65310
C         -3.43420        0.23030       -1.61650
C          0.30540       -2.74260       -2.55290
S          0.08490       -3.55530       -4.05850
C         -0.20720       -0.42980        0.29800
C         -0.21410       -0.67370        1.65660
F          0.17390       -1.87280        2.12800
C         -0.68530        0.26670        2.58190
F         -0.71110       -0.10600        3.87840
C         -1.17490        1.49820        2.20290
C         -1.14710        1.79320        0.81260
N         -1.57320        2.99500        0.38860
C         -1.53270        3.28490       -0.88590
C         -2.09050        4.62170       -1.26890
C         -3.56990        4.48740       -1.63900
C         -1.00400        2.35330       -1.82470
N         -0.57080        1.18270       -1.42730
C         -0.64830        0.85600       -0.12570
C         -0.85220        2.65640       -3.28420
C          0.55190        3.19730       -3.56510
C         -1.67730        2.47880        3.17080
C         -0.96200        2.71360        4.33920
C         -1.43320        3.67880        5.21470
N         -0.89110        4.12080        6.39440
C          0.27560        3.57320        7.03650
C         -0.07320        2.35930        7.89560
C         -1.70700        5.10150        6.90510
C         -2.80020        5.31340        6.01950
C         -2.62370        4.39970        4.93790
C         -3.33930        4.13430        3.77330
C         -2.86060        3.18610        2.90030
C         -3.75240        6.28370        6.32100
C         -3.61460        7.03350        7.46440
C         -2.53000        6.83820        8.34730
C         -1.57590        5.84360        8.05880
C         -2.28560        7.58600        9.54190
C         -2.86850        8.65060       10.16930
C         -4.07620        9.44610        9.80550
O         -4.83050        9.30670        8.86850
C         -4.18460       10.47330       10.85000
C         -3.12750       10.32200       11.80020
C         -3.16980       11.24530       12.79910
S         -4.50430       12.32110       12.59890
C         -5.01890       11.51020       11.13700
Cl        -6.38200       12.02990       10.27510
C         -2.30110        9.20120       11.40070
C         -1.19310        8.79640       12.10030
C         -0.31960        7.73390       11.79470
N          0.45030        6.89560       11.63180
C         -0.79230        9.46170       13.27890
N         -0.44230        9.98340       14.23920
H          2.51900       -6.27670       -4.48140
H          0.18520       -3.35940       -9.73780
H          4.56190       -5.48330        0.15370
H          6.10610       -4.08130        1.47410
H          7.85150        0.71400        1.02820
H          7.58170        0.02450       -0.58670
H          6.19700        0.62320        0.38560
H          5.53290       -0.86590       -1.29290
H          4.02140       -2.25810       -2.60280
H          5.74790       -5.62220       -2.61630
H          6.33270       -7.90800       -3.34050
H          2.52850      -11.06650       -4.07500
H          2.90530       -9.79790       -5.28870
H          3.57580      -11.43870       -5.45820
H          2.26620       -9.11450       -2.81820
H          1.68910       -6.85170       -2.07960
H          0.05190       -0.43390       -4.09290
H         -0.37400       -0.16690       -6.48430
H         -0.60710       -0.02300       -8.77660
H         -1.58210        1.32580       -8.10220
H         -1.92950        0.69070       -9.72750
H         -4.35370       -1.63240       -5.94120
H         -3.92780       -1.88680       -3.52440
H         -2.22970       -2.43380        0.07720
H         -3.71760       -1.54910        1.78620
H         -5.17960       -0.84470        3.45420
H         -3.77030        0.26630        3.44260
H         -5.31690        0.78650        4.14380
H         -4.88120        1.60280       -0.85490
H         -3.36000        0.71960       -2.57590
H         -2.00060        5.28110       -0.40490
H         -1.53280        5.05030       -2.10150
H         -3.70480        3.79730       -2.46950
H         -3.97330        5.45600       -1.92330
H         -4.13130        4.11450       -0.78620
H         -0.99170        1.72940       -3.84240
H         -1.60100        3.37810       -3.60860
H          1.29690        2.46480       -3.26470
H          0.73090        4.11810       -3.01320
H          0.66990        3.39930       -4.62660
H         -0.04850        2.17610        4.53930
H          0.99570        3.29130        6.26360
H          0.72920        4.35280        7.65310
H         -0.50970        1.57490        7.28150
H         -0.78910        2.63580        8.66610
H          0.82180        1.97160        8.37400
H         -4.25190        4.66860        3.55920
H         -3.40020        2.96590        1.99480
H         -4.58780        6.44810        5.65800
H         -4.34540        7.78820        7.69410
H         -0.75040        5.68200        8.73650
H         -1.40490        7.21980       10.05780
H         -2.51630       11.37490       13.63850
