
  xtb     02032219383D
 energy: -197.523202411012 gnorm: 0.000546392233 xtb: 6.4.1 (unknown)
106114  0     0  0            999 V2000
    6.5215    1.0109   -2.9066 C   0  0  0  0  0  0  0  0  0  0  0  0
    7.8681    0.8424   -2.7306 C   0  0  0  0  0  0  0  0  0  0  0  0
    8.7867    1.4541   -3.7354 C   0  0  0  0  0  0  0  0  0  0  0  0
    8.4861    2.2303   -4.6121 O   0  0  0  0  0  0  0  0  0  0  0  0
   10.1012    0.8662   -3.4391 C   0  0  0  0  0  0  0  0  0  0  0  0
   10.0008    0.0369   -2.2742 C   0  0  0  0  0  0  0  0  0  0  0  0
   11.1758   -0.5521   -1.9328 C   0  0  0  0  0  0  0  0  0  0  0  0
   12.4378   -0.1131   -3.0305 S   0  0  0  0  0  0  0  0  0  0  0  0
   11.3562    0.8958   -3.9643 C   0  0  0  0  0  0  0  0  0  0  0  0
   11.9048    1.7525   -5.3203 Cl  0  0  0  0  0  0  0  0  0  0  0  0
    8.6414    0.1067   -1.7635 C   0  0  0  0  0  0  0  0  0  0  0  0
    8.2761   -0.3005   -0.5026 C   0  0  0  0  0  0  0  0  0  0  0  0
    7.0578   -0.0022    0.1280 C   0  0  0  0  0  0  0  0  0  0  0  0
    6.0858    0.2304    0.6952 N   0  0  0  0  0  0  0  0  0  0  0  0
    9.1601   -1.0291    0.3162 C   0  0  0  0  0  0  0  0  0  0  0  0
    9.8529   -1.6529    0.9865 N   0  0  0  0  0  0  0  0  0  0  0  0
    5.4380    0.3019   -2.3641 C   0  0  0  0  0  0  0  0  0  0  0  0
    5.3752   -0.9958   -1.8479 C   0  0  0  0  0  0  0  0  0  0  0  0
    6.4938   -1.7381   -1.8479 O   0  0  0  0  0  0  0  0  0  0  0  0
    6.4403   -3.1510   -1.6898 C   0  0  0  0  0  0  0  0  0  0  0  0
    5.8682   -3.8369   -2.9233 C   0  0  0  0  0  0  0  0  0  0  0  0
    4.0713   -1.3342   -1.3781 C   0  0  0  0  0  0  0  0  0  0  0  0
    3.8354   -2.5556   -0.8321 O   0  0  0  0  0  0  0  0  0  0  0  0
    2.5048   -3.0471   -0.7720 C   0  0  0  0  0  0  0  0  0  0  0  0
    2.5802   -4.5593   -0.6296 C   0  0  0  0  0  0  0  0  0  0  0  0
    3.1649   -0.3132   -1.5509 C   0  0  0  0  0  0  0  0  0  0  0  0
    3.8648    1.0480   -2.3556 S   0  0  0  0  0  0  0  0  0  0  0  0
    1.8094   -0.1807   -1.0245 C   0  0  0  0  0  0  0  0  0  0  0  0
    1.6091   -0.0771    0.3588 C   0  0  0  0  0  0  0  0  0  0  0  0
    2.5896   -0.0951    1.3932 C   0  0  0  0  0  0  0  0  0  0  0  0
    2.0691    0.0608    2.6303 C   0  0  0  0  0  0  0  0  0  0  0  0
    2.7905    0.0649    3.9317 C   0  0  0  0  0  0  0  0  0  0  0  0
    2.5024   -1.2097    4.7275 C   0  0  0  0  0  0  0  0  0  0  0  0
    0.3268    0.2376    2.6042 S   0  0  0  0  0  0  0  0  0  0  0  0
    0.3024    0.1032    0.8691 C   0  0  0  0  0  0  0  0  0  0  0  0
   -0.8120    0.2062    0.0520 C   0  0  0  0  0  0  0  0  0  0  0  0
   -0.6114    0.1063   -1.3290 C   0  0  0  0  0  0  0  0  0  0  0  0
    0.6924   -0.0759   -1.8393 C   0  0  0  0  0  0  0  0  0  0  0  0
    0.6792   -0.1972   -3.5758 S   0  0  0  0  0  0  0  0  0  0  0  0
   -1.0615   -0.0043   -3.6082 C   0  0  0  0  0  0  0  0  0  0  0  0
   -1.7769   -0.0420   -4.9134 C   0  0  0  0  0  0  0  0  0  0  0  0
   -1.7198   -1.4370   -5.5385 C   0  0  0  0  0  0  0  0  0  0  0  0
   -1.5846    0.1360   -2.3710 C   0  0  0  0  0  0  0  0  0  0  0  0
   -2.1619    0.4423    0.5912 C   0  0  0  0  0  0  0  0  0  0  0  0
   -2.8162    1.6448    0.2669 C   0  0  0  0  0  0  0  0  0  0  0  0
   -2.1028    2.5152   -0.4827 O   0  0  0  0  0  0  0  0  0  0  0  0
   -2.7633    3.5876   -1.1250 C   0  0  0  0  0  0  0  0  0  0  0  0
   -4.1017    1.8178    0.7606 C   0  0  0  0  0  0  0  0  0  0  0  0
   -4.7486    2.9930    0.5930 F   0  0  0  0  0  0  0  0  0  0  0  0
   -4.7503    0.8397    1.5186 C   0  0  0  0  0  0  0  0  0  0  0  0
   -4.0692   -0.3355    1.8932 C   0  0  0  0  0  0  0  0  0  0  0  0
   -4.7825   -1.1997    2.6477 O   0  0  0  0  0  0  0  0  0  0  0  0
   -4.1539   -2.3270    3.2263 C   0  0  0  0  0  0  0  0  0  0  0  0
   -2.7760   -0.5018    1.4009 C   0  0  0  0  0  0  0  0  0  0  0  0
   -2.0793   -1.6373    1.6524 F   0  0  0  0  0  0  0  0  0  0  0  0
   -6.1143    1.0213    1.9671 C   0  0  0  0  0  0  0  0  0  0  0  0
   -7.1228    1.4767    1.1906 C   0  0  0  0  0  0  0  0  0  0  0  0
   -7.0528    1.6220   -0.3017 C   0  0  0  0  0  0  0  0  0  0  0  0
   -6.1153    1.3660   -1.0266 O   0  0  0  0  0  0  0  0  0  0  0  0
   -8.3948    2.0451   -0.6990 C   0  0  0  0  0  0  0  0  0  0  0  0
   -9.2423    2.1287    0.4541 C   0  0  0  0  0  0  0  0  0  0  0  0
  -10.5110    2.5124    0.1462 C   0  0  0  0  0  0  0  0  0  0  0  0
  -10.6799    2.7747   -1.5505 S   0  0  0  0  0  0  0  0  0  0  0  0
   -9.0148    2.3588   -1.8697 C   0  0  0  0  0  0  0  0  0  0  0  0
   -8.4476    2.3840   -3.2362 C   0  0  0  0  0  0  0  0  0  0  0  0
   -8.4816    1.7774    1.6324 C   0  0  0  0  0  0  0  0  0  0  0  0
   -8.9704    1.7802    2.9100 C   0  0  0  0  0  0  0  0  0  0  0  0
   -8.2412    1.4710    4.0754 C   0  0  0  0  0  0  0  0  0  0  0  0
   -7.7093    1.2350    5.0650 N   0  0  0  0  0  0  0  0  0  0  0  0
  -10.3158    2.1134    3.1753 C   0  0  0  0  0  0  0  0  0  0  0  0
  -11.4079    2.3802    3.4045 N   0  0  0  0  0  0  0  0  0  0  0  0
    6.2572    1.7931   -3.6128 H   0  0  0  0  0  0  0  0  0  0  0  0
   11.3953   -1.2180   -1.1223 H   0  0  0  0  0  0  0  0  0  0  0  0
    5.8704   -3.4151   -0.7964 H   0  0  0  0  0  0  0  0  0  0  0  0
    7.4870   -3.4343   -1.5473 H   0  0  0  0  0  0  0  0  0  0  0  0
    6.4286   -3.5440   -3.8084 H   0  0  0  0  0  0  0  0  0  0  0  0
    4.8259   -3.5625   -3.0639 H   0  0  0  0  0  0  0  0  0  0  0  0
    5.9351   -4.9143   -2.8025 H   0  0  0  0  0  0  0  0  0  0  0  0
    1.9831   -2.6138    0.0887 H   0  0  0  0  0  0  0  0  0  0  0  0
    1.9637   -2.7706   -1.6852 H   0  0  0  0  0  0  0  0  0  0  0  0
    3.1463   -4.8184    0.2609 H   0  0  0  0  0  0  0  0  0  0  0  0
    3.0703   -5.0000   -1.4939 H   0  0  0  0  0  0  0  0  0  0  0  0
    1.5770   -4.9659   -0.5431 H   0  0  0  0  0  0  0  0  0  0  0  0
    3.6439   -0.1981    1.2054 H   0  0  0  0  0  0  0  0  0  0  0  0
    2.4797    0.9320    4.5199 H   0  0  0  0  0  0  0  0  0  0  0  0
    3.8610    0.1457    3.7348 H   0  0  0  0  0  0  0  0  0  0  0  0
    2.8209   -2.0852    4.1663 H   0  0  0  0  0  0  0  0  0  0  0  0
    1.4370   -1.2962    4.9299 H   0  0  0  0  0  0  0  0  0  0  0  0
    3.0365   -1.1906    5.6739 H   0  0  0  0  0  0  0  0  0  0  0  0
   -2.8166    0.2491   -4.7511 H   0  0  0  0  0  0  0  0  0  0  0  0
   -1.3211    0.6759   -5.6002 H   0  0  0  0  0  0  0  0  0  0  0  0
   -0.6867   -1.7285   -5.7144 H   0  0  0  0  0  0  0  0  0  0  0  0
   -2.2503   -1.4467   -6.4871 H   0  0  0  0  0  0  0  0  0  0  0  0
   -2.1781   -2.1675   -4.8756 H   0  0  0  0  0  0  0  0  0  0  0  0
   -2.6374    0.2546   -2.1857 H   0  0  0  0  0  0  0  0  0  0  0  0
   -3.6613    3.2475   -1.6463 H   0  0  0  0  0  0  0  0  0  0  0  0
   -3.0294    4.3790   -0.4202 H   0  0  0  0  0  0  0  0  0  0  0  0
   -2.0448    3.9732   -1.8469 H   0  0  0  0  0  0  0  0  0  0  0  0
   -4.9011   -2.7572    3.8912 H   0  0  0  0  0  0  0  0  0  0  0  0
   -3.2720   -2.0427    3.8044 H   0  0  0  0  0  0  0  0  0  0  0  0
   -3.8728   -3.0638    2.4704 H   0  0  0  0  0  0  0  0  0  0  0  0
   -6.3083    0.7238    2.9892 H   0  0  0  0  0  0  0  0  0  0  0  0
  -11.3576    2.6578    0.7867 H   0  0  0  0  0  0  0  0  0  0  0  0
   -8.4677    3.3957   -3.6413 H   0  0  0  0  0  0  0  0  0  0  0  0
   -9.0243    1.7462   -3.9052 H   0  0  0  0  0  0  0  0  0  0  0  0
   -7.4185    2.0339   -3.2012 H   0  0  0  0  0  0  0  0  0  0  0  0
  1  2  2  0  0  0  0
  2  3  1  0  0  0  0
  3  4  2  0  0  0  0
  3  5  1  0  0  0  0
  5  6  1  0  0  0  0
  6  7  2  0  0  0  0
  7  8  1  0  0  0  0
  8  9  1  0  0  0  0
  9 10  1  0  0  0  0
  6 11  1  0  0  0  0
 11 12  2  0  0  0  0
 12 13  1  0  0  0  0
 13 14  3  0  0  0  0
 12 15  1  0  0  0  0
 15 16  3  0  0  0  0
  1 17  1  0  0  0  0
 17 18  2  0  0  0  0
 18 19  1  0  0  0  0
 19 20  1  0  0  0  0
 20 21  1  0  0  0  0
 18 22  1  0  0  0  0
 22 23  1  0  0  0  0
 23 24  1  0  0  0  0
 24 25  1  0  0  0  0
 22 26  2  0  0  0  0
 26 27  1  0  0  0  0
 26 28  1  0  0  0  0
 28 29  2  0  0  0  0
 29 30  1  0  0  0  0
 30 31  2  0  0  0  0
 31 32  1  0  0  0  0
 32 33  1  0  0  0  0
 31 34  1  0  0  0  0
 34 35  1  0  0  0  0
 35 36  2  0  0  0  0
 36 37  1  0  0  0  0
 37 38  2  0  0  0  0
 38 39  1  0  0  0  0
 39 40  1  0  0  0  0
 40 41  1  0  0  0  0
 41 42  1  0  0  0  0
 40 43  2  0  0  0  0
 36 44  1  0  0  0  0
 44 45  2  0  0  0  0
 45 46  1  0  0  0  0
 46 47  1  0  0  0  0
 45 48  1  0  0  0  0
 48 49  1  0  0  0  0
 48 50  2  0  0  0  0
 50 51  1  0  0  0  0
 51 52  1  0  0  0  0
 52 53  1  0  0  0  0
 51 54  2  0  0  0  0
 54 55  1  0  0  0  0
 50 56  1  0  0  0  0
 56 57  2  0  0  0  0
 57 58  1  0  0  0  0
 58 59  2  0  0  0  0
 58 60  1  0  0  0  0
 60 61  1  0  0  0  0
 61 62  2  0  0  0  0
 62 63  1  0  0  0  0
 63 64  1  0  0  0  0
 64 65  1  0  0  0  0
 61 66  1  0  0  0  0
 66 67  2  0  0  0  0
 67 68  1  0  0  0  0
 68 69  3  0  0  0  0
 67 70  1  0  0  0  0
 70 71  3  0  0  0  0
 11  2  1  0  0  0  0
 27 17  1  0  0  0  0
 38 28  1  0  0  0  0
 54 44  1  0  0  0  0
 66 57  1  0  0  0  0
  9  5  2  0  0  0  0
 35 29  1  0  0  0  0
 43 37  1  0  0  0  0
 64 60  2  0  0  0  0
  1 72  1  0  0  0  0
  7 73  1  0  0  0  0
 20 74  1  0  0  0  0
 20 75  1  0  0  0  0
 21 76  1  0  0  0  0
 21 77  1  0  0  0  0
 21 78  1  0  0  0  0
 24 79  1  0  0  0  0
 24 80  1  0  0  0  0
 25 81  1  0  0  0  0
 25 82  1  0  0  0  0
 25 83  1  0  0  0  0
 30 84  1  0  0  0  0
 32 85  1  0  0  0  0
 32 86  1  0  0  0  0
 33 87  1  0  0  0  0
 33 88  1  0  0  0  0
 33 89  1  0  0  0  0
 41 90  1  0  0  0  0
 41 91  1  0  0  0  0
 42 92  1  0  0  0  0
 42 93  1  0  0  0  0
 42 94  1  0  0  0  0
 43 95  1  0  0  0  0
 47 96  1  0  0  0  0
 47 97  1  0  0  0  0
 47 98  1  0  0  0  0
 53 99  1  0  0  0  0
 53100  1  0  0  0  0
 53101  1  0  0  0  0
 56102  1  0  0  0  0
 62103  1  0  0  0  0
 65104  1  0  0  0  0
 65105  1  0  0  0  0
 65106  1  0  0  0  0
M  END
