
  xtb     02102218523D
 energy: -197.520742747725 gnorm: 0.000981897151 xtb: 6.4.1 (unknown)
106114  0     0  0            999 V2000
    1.7397    7.0371   -2.0534 C   0  0  0  0  0  0  0  0  0  0  0  0
    0.7858    7.8973   -2.4821 C   0  0  0  0  0  0  0  0  0  0  0  0
   -0.6890    7.6777   -2.3250 C   0  0  0  0  0  0  0  0  0  0  0  0
   -1.2454    6.7358   -1.8107 O   0  0  0  0  0  0  0  0  0  0  0  0
   -1.3021    8.9087   -2.8366 C   0  0  0  0  0  0  0  0  0  0  0  0
   -0.2851    9.8308   -3.2454 C   0  0  0  0  0  0  0  0  0  0  0  0
   -0.7855   11.0016   -3.7256 C   0  0  0  0  0  0  0  0  0  0  0  0
   -2.5105   11.0045   -3.6905 S   0  0  0  0  0  0  0  0  0  0  0  0
   -2.5627    9.3949   -3.0100 C   0  0  0  0  0  0  0  0  0  0  0  0
   -4.0351    8.6322   -2.6630 Cl  0  0  0  0  0  0  0  0  0  0  0  0
    1.0145    9.2282   -3.0314 C   0  0  0  0  0  0  0  0  0  0  0  0
    2.2088    9.8164   -3.3457 C   0  0  0  0  0  0  0  0  0  0  0  0
    2.2637   11.1179   -3.8889 C   0  0  0  0  0  0  0  0  0  0  0  0
    2.3260   12.1763   -4.3269 N   0  0  0  0  0  0  0  0  0  0  0  0
    3.4836    9.2368   -3.1853 C   0  0  0  0  0  0  0  0  0  0  0  0
    4.5529    8.8307   -3.0885 N   0  0  0  0  0  0  0  0  0  0  0  0
    1.5013    5.6778   -1.6275 C   0  0  0  0  0  0  0  0  0  0  0  0
    2.1945    5.1960   -0.4967 C   0  0  0  0  0  0  0  0  0  0  0  0
    3.0108    6.0919    0.1004 O   0  0  0  0  0  0  0  0  0  0  0  0
    3.8478    5.7015    1.1714 C   0  0  0  0  0  0  0  0  0  0  0  0
    1.9263    3.8883   -0.0989 C   0  0  0  0  0  0  0  0  0  0  0  0
    2.5613    3.3489    0.9706 F   0  0  0  0  0  0  0  0  0  0  0  0
    1.0227    3.0726   -0.7681 C   0  0  0  0  0  0  0  0  0  0  0  0
    0.3616    3.5362   -1.9219 C   0  0  0  0  0  0  0  0  0  0  0  0
   -0.5017    2.6686   -2.4911 O   0  0  0  0  0  0  0  0  0  0  0  0
   -1.4132    3.1258   -3.4706 C   0  0  0  0  0  0  0  0  0  0  0  0
    0.6460    4.8303   -2.3377 C   0  0  0  0  0  0  0  0  0  0  0  0
    0.1670    5.2917   -3.5142 F   0  0  0  0  0  0  0  0  0  0  0  0
    0.7518    1.7103   -0.2840 C   0  0  0  0  0  0  0  0  0  0  0  0
    0.2144    1.4834    0.9878 C   0  0  0  0  0  0  0  0  0  0  0  0
   -0.1886    2.4550    1.9499 C   0  0  0  0  0  0  0  0  0  0  0  0
   -0.7432    1.9197    3.0588 C   0  0  0  0  0  0  0  0  0  0  0  0
   -1.2415    2.6219    4.2742 C   0  0  0  0  0  0  0  0  0  0  0  0
   -0.3692    2.3055    5.4902 C   0  0  0  0  0  0  0  0  0  0  0  0
   -0.7898    0.1745    2.9919 S   0  0  0  0  0  0  0  0  0  0  0  0
   -0.0506    0.1639    1.4208 C   0  0  0  0  0  0  0  0  0  0  0  0
    0.1762   -0.9595    0.6210 C   0  0  0  0  0  0  0  0  0  0  0  0
    0.7170   -0.7237   -0.6587 C   0  0  0  0  0  0  0  0  0  0  0  0
    0.9928    0.5978   -1.0761 C   0  0  0  0  0  0  0  0  0  0  0  0
    1.6989    0.6310   -2.6636 S   0  0  0  0  0  0  0  0  0  0  0  0
    1.6375   -1.1109   -2.7618 C   0  0  0  0  0  0  0  0  0  0  0  0
    2.1759   -1.8011   -3.9662 C   0  0  0  0  0  0  0  0  0  0  0  0
    3.7016   -1.7010   -4.0229 C   0  0  0  0  0  0  0  0  0  0  0  0
    1.1056   -1.6691   -1.6507 C   0  0  0  0  0  0  0  0  0  0  0  0
   -0.1746   -2.2883    1.0636 C   0  0  0  0  0  0  0  0  0  0  0  0
    0.0012   -2.7996    2.3516 C   0  0  0  0  0  0  0  0  0  0  0  0
    0.7003   -2.0715    3.2456 O   0  0  0  0  0  0  0  0  0  0  0  0
    1.0278   -2.6156    4.5152 C   0  0  0  0  0  0  0  0  0  0  0  0
    2.0356   -1.6726    5.1517 C   0  0  0  0  0  0  0  0  0  0  0  0
   -0.5487   -4.0832    2.4860 C   0  0  0  0  0  0  0  0  0  0  0  0
   -0.5642   -4.8170    3.6402 O   0  0  0  0  0  0  0  0  0  0  0  0
   -1.7728   -4.7133    4.3970 C   0  0  0  0  0  0  0  0  0  0  0  0
   -1.6478   -5.6194    5.6070 C   0  0  0  0  0  0  0  0  0  0  0  0
   -1.1010   -4.5822    1.2896 C   0  0  0  0  0  0  0  0  0  0  0  0
   -0.9646   -3.4085    0.0152 S   0  0  0  0  0  0  0  0  0  0  0  0
   -1.6409   -5.8715    1.2076 C   0  0  0  0  0  0  0  0  0  0  0  0
   -2.1945   -6.5352    0.1411 C   0  0  0  0  0  0  0  0  0  0  0  0
   -2.2911   -6.0162   -1.2338 C   0  0  0  0  0  0  0  0  0  0  0  0
   -1.9341   -4.9222   -1.6398 O   0  0  0  0  0  0  0  0  0  0  0  0
   -2.8901   -7.0957   -2.0189 C   0  0  0  0  0  0  0  0  0  0  0  0
   -3.1538   -8.2132   -1.1616 C   0  0  0  0  0  0  0  0  0  0  0  0
   -3.7134   -9.2607   -1.8222 C   0  0  0  0  0  0  0  0  0  0  0  0
   -3.9222   -8.8918   -3.4973 S   0  0  0  0  0  0  0  0  0  0  0  0
   -3.2446   -7.2906   -3.3172 C   0  0  0  0  0  0  0  0  0  0  0  0
   -3.1152   -6.3600   -4.4605 C   0  0  0  0  0  0  0  0  0  0  0  0
   -2.7393   -7.8793    0.1872 C   0  0  0  0  0  0  0  0  0  0  0  0
   -2.8879   -8.7145    1.2664 C   0  0  0  0  0  0  0  0  0  0  0  0
   -2.5491   -8.4273    2.6002 C   0  0  0  0  0  0  0  0  0  0  0  0
   -2.3183   -8.2674    3.7147 N   0  0  0  0  0  0  0  0  0  0  0  0
   -3.4440  -10.0014    1.1189 C   0  0  0  0  0  0  0  0  0  0  0  0
   -3.8996  -11.0503    1.0198 N   0  0  0  0  0  0  0  0  0  0  0  0
    2.7663    7.3701   -1.9728 H   0  0  0  0  0  0  0  0  0  0  0  0
   -0.2667   11.8636   -4.0952 H   0  0  0  0  0  0  0  0  0  0  0  0
    4.5099    4.8809    0.8873 H   0  0  0  0  0  0  0  0  0  0  0  0
    4.4424    6.5844    1.4002 H   0  0  0  0  0  0  0  0  0  0  0  0
    3.2694    5.4145    2.0525 H   0  0  0  0  0  0  0  0  0  0  0  0
   -1.9348    4.0264   -3.1385 H   0  0  0  0  0  0  0  0  0  0  0  0
   -2.1273    2.3132   -3.5951 H   0  0  0  0  0  0  0  0  0  0  0  0
   -0.9157    3.3205   -4.4236 H   0  0  0  0  0  0  0  0  0  0  0  0
   -0.0785    3.5135    1.7947 H   0  0  0  0  0  0  0  0  0  0  0  0
   -1.2402    3.6972    4.0855 H   0  0  0  0  0  0  0  0  0  0  0  0
   -2.2687    2.3108    4.4808 H   0  0  0  0  0  0  0  0  0  0  0  0
   -0.3892    1.2380    5.6975 H   0  0  0  0  0  0  0  0  0  0  0  0
   -0.7336    2.8367    6.3658 H   0  0  0  0  0  0  0  0  0  0  0  0
    0.6603    2.6037    5.3045 H   0  0  0  0  0  0  0  0  0  0  0  0
    1.8732   -2.8494   -3.9348 H   0  0  0  0  0  0  0  0  0  0  0  0
    1.7546   -1.3472   -4.8665 H   0  0  0  0  0  0  0  0  0  0  0  0
    4.1433   -2.1600   -3.1414 H   0  0  0  0  0  0  0  0  0  0  0  0
    4.0804   -2.2082   -4.9065 H   0  0  0  0  0  0  0  0  0  0  0  0
    4.0088   -0.6584   -4.0606 H   0  0  0  0  0  0  0  0  0  0  0  0
    0.9940   -2.7312   -1.5351 H   0  0  0  0  0  0  0  0  0  0  0  0
    1.4490   -3.6197    4.3987 H   0  0  0  0  0  0  0  0  0  0  0  0
    0.1274   -2.6804    5.1381 H   0  0  0  0  0  0  0  0  0  0  0  0
    2.2994   -2.0279    6.1434 H   0  0  0  0  0  0  0  0  0  0  0  0
    1.6100   -0.6758    5.2285 H   0  0  0  0  0  0  0  0  0  0  0  0
    2.9325   -1.6172    4.5410 H   0  0  0  0  0  0  0  0  0  0  0  0
   -1.9231   -3.6661    4.7007 H   0  0  0  0  0  0  0  0  0  0  0  0
   -2.6293   -5.0125    3.7786 H   0  0  0  0  0  0  0  0  0  0  0  0
   -0.7668   -5.3517    6.1844 H   0  0  0  0  0  0  0  0  0  0  0  0
   -2.5313   -5.5164    6.2303 H   0  0  0  0  0  0  0  0  0  0  0  0
   -1.5596   -6.6525    5.2842 H   0  0  0  0  0  0  0  0  0  0  0  0
   -1.5798   -6.4152    2.1440 H   0  0  0  0  0  0  0  0  0  0  0  0
   -4.0181  -10.2207   -1.4568 H   0  0  0  0  0  0  0  0  0  0  0  0
   -2.7000   -5.4182   -4.1086 H   0  0  0  0  0  0  0  0  0  0  0  0
   -4.0859   -6.1777   -4.9204 H   0  0  0  0  0  0  0  0  0  0  0  0
   -2.4593   -6.7788   -5.2236 H   0  0  0  0  0  0  0  0  0  0  0  0
  1  2  2  0  0  0  0
  2  3  1  0  0  0  0
  3  4  2  0  0  0  0
  3  5  1  0  0  0  0
  5  6  1  0  0  0  0
  6  7  2  0  0  0  0
  7  8  1  0  0  0  0
  8  9  1  0  0  0  0
  9 10  1  0  0  0  0
  6 11  1  0  0  0  0
 11 12  2  0  0  0  0
 12 13  1  0  0  0  0
 13 14  3  0  0  0  0
 12 15  1  0  0  0  0
 15 16  3  0  0  0  0
  1 17  1  0  0  0  0
 17 18  2  0  0  0  0
 18 19  1  0  0  0  0
 19 20  1  0  0  0  0
 18 21  1  0  0  0  0
 21 22  1  0  0  0  0
 21 23  2  0  0  0  0
 23 24  1  0  0  0  0
 24 25  1  0  0  0  0
 25 26  1  0  0  0  0
 24 27  2  0  0  0  0
 27 28  1  0  0  0  0
 23 29  1  0  0  0  0
 29 30  2  0  0  0  0
 30 31  1  0  0  0  0
 31 32  2  0  0  0  0
 32 33  1  0  0  0  0
 33 34  1  0  0  0  0
 32 35  1  0  0  0  0
 35 36  1  0  0  0  0
 36 37  2  0  0  0  0
 37 38  1  0  0  0  0
 38 39  2  0  0  0  0
 39 40  1  0  0  0  0
 40 41  1  0  0  0  0
 41 42  1  0  0  0  0
 42 43  1  0  0  0  0
 41 44  2  0  0  0  0
 37 45  1  0  0  0  0
 45 46  2  0  0  0  0
 46 47  1  0  0  0  0
 47 48  1  0  0  0  0
 48 49  1  0  0  0  0
 46 50  1  0  0  0  0
 50 51  1  0  0  0  0
 51 52  1  0  0  0  0
 52 53  1  0  0  0  0
 50 54  2  0  0  0  0
 54 55  1  0  0  0  0
 54 56  1  0  0  0  0
 56 57  2  0  0  0  0
 57 58  1  0  0  0  0
 58 59  2  0  0  0  0
 58 60  1  0  0  0  0
 60 61  1  0  0  0  0
 61 62  2  0  0  0  0
 62 63  1  0  0  0  0
 63 64  1  0  0  0  0
 64 65  1  0  0  0  0
 61 66  1  0  0  0  0
 66 67  2  0  0  0  0
 67 68  1  0  0  0  0
 68 69  3  0  0  0  0
 67 70  1  0  0  0  0
 70 71  3  0  0  0  0
 11  2  1  0  0  0  0
 27 17  1  0  0  0  0
 39 29  1  0  0  0  0
 55 45  1  0  0  0  0
 66 57  1  0  0  0  0
  9  5  2  0  0  0  0
 36 30  1  0  0  0  0
 44 38  1  0  0  0  0
 64 60  2  0  0  0  0
  1 72  1  0  0  0  0
  7 73  1  0  0  0  0
 20 74  1  0  0  0  0
 20 75  1  0  0  0  0
 20 76  1  0  0  0  0
 26 77  1  0  0  0  0
 26 78  1  0  0  0  0
 26 79  1  0  0  0  0
 31 80  1  0  0  0  0
 33 81  1  0  0  0  0
 33 82  1  0  0  0  0
 34 83  1  0  0  0  0
 34 84  1  0  0  0  0
 34 85  1  0  0  0  0
 42 86  1  0  0  0  0
 42 87  1  0  0  0  0
 43 88  1  0  0  0  0
 43 89  1  0  0  0  0
 43 90  1  0  0  0  0
 44 91  1  0  0  0  0
 48 92  1  0  0  0  0
 48 93  1  0  0  0  0
 49 94  1  0  0  0  0
 49 95  1  0  0  0  0
 49 96  1  0  0  0  0
 52 97  1  0  0  0  0
 52 98  1  0  0  0  0
 53 99  1  0  0  0  0
 53100  1  0  0  0  0
 53101  1  0  0  0  0
 56102  1  0  0  0  0
 62103  1  0  0  0  0
 65104  1  0  0  0  0
 65105  1  0  0  0  0
 65106  1  0  0  0  0
M  END
