106

C          1.73970        7.03710       -2.05340
C          0.78580        7.89730       -2.48210
C         -0.68900        7.67770       -2.32500
O         -1.24540        6.73580       -1.81070
C         -1.30210        8.90870       -2.83660
C         -0.28510        9.83080       -3.24540
C         -0.78550       11.00160       -3.72560
S         -2.51050       11.00450       -3.69050
C         -2.56270        9.39490       -3.01000
Cl        -4.03510        8.63220       -2.66300
C          1.01450        9.22820       -3.03140
C          2.20880        9.81640       -3.34570
C          2.26370       11.11790       -3.88890
N          2.32600       12.17630       -4.32690
C          3.48360        9.23680       -3.18530
N          4.55290        8.83070       -3.08850
C          1.50130        5.67780       -1.62750
C          2.19450        5.19600       -0.49670
O          3.01080        6.09190        0.10040
C          3.84780        5.70150        1.17140
C          1.92630        3.88830       -0.09890
F          2.56130        3.34890        0.97060
C          1.02270        3.07260       -0.76810
C          0.36160        3.53620       -1.92190
O         -0.50170        2.66860       -2.49110
C         -1.41320        3.12580       -3.47060
C          0.64600        4.83030       -2.33770
F          0.16700        5.29170       -3.51420
C          0.75180        1.71030       -0.28400
C          0.21440        1.48340        0.98780
C         -0.18860        2.45500        1.94990
C         -0.74320        1.91970        3.05880
C         -1.24150        2.62190        4.27420
C         -0.36920        2.30550        5.49020
S         -0.78980        0.17450        2.99190
C         -0.05060        0.16390        1.42080
C          0.17620       -0.95950        0.62100
C          0.71700       -0.72370       -0.65870
C          0.99280        0.59780       -1.07610
S          1.69890        0.63100       -2.66360
C          1.63750       -1.11090       -2.76180
C          2.17590       -1.80110       -3.96620
C          3.70160       -1.70100       -4.02290
C          1.10560       -1.66910       -1.65070
C         -0.17460       -2.28830        1.06360
C          0.00120       -2.79960        2.35160
O          0.70030       -2.07150        3.24560
C          1.02780       -2.61560        4.51520
C          2.03560       -1.67260        5.15170
C         -0.54870       -4.08320        2.48600
O         -0.56420       -4.81700        3.64020
C         -1.77280       -4.71330        4.39700
C         -1.64780       -5.61940        5.60700
C         -1.10100       -4.58220        1.28960
S         -0.96460       -3.40850        0.01520
C         -1.64090       -5.87150        1.20760
C         -2.19450       -6.53520        0.14110
C         -2.29110       -6.01620       -1.23380
O         -1.93410       -4.92220       -1.63980
C         -2.89010       -7.09570       -2.01890
C         -3.15380       -8.21320       -1.16160
C         -3.71340       -9.26070       -1.82220
S         -3.92220       -8.89180       -3.49730
C         -3.24460       -7.29060       -3.31720
C         -3.11520       -6.36000       -4.46050
C         -2.73930       -7.87930        0.18720
C         -2.88790       -8.71450        1.26640
C         -2.54910       -8.42730        2.60020
N         -2.31830       -8.26740        3.71470
C         -3.44400      -10.00140        1.11890
N         -3.89960      -11.05030        1.01980
H          2.76630        7.37010       -1.97280
H         -0.26670       11.86360       -4.09520
H          4.50990        4.88090        0.88730
H          4.44240        6.58440        1.40020
H          3.26940        5.41450        2.05250
H         -1.93480        4.02640       -3.13850
H         -2.12730        2.31320       -3.59510
H         -0.91570        3.32050       -4.42360
H         -0.07850        3.51350        1.79470
H         -1.24020        3.69720        4.08550
H         -2.26870        2.31080        4.48080
H         -0.38920        1.23800        5.69750
H         -0.73360        2.83670        6.36580
H          0.66030        2.60370        5.30450
H          1.87320       -2.84940       -3.93480
H          1.75460       -1.34720       -4.86650
H          4.14330       -2.16000       -3.14140
H          4.08040       -2.20820       -4.90650
H          4.00880       -0.65840       -4.06060
H          0.99400       -2.73120       -1.53510
H          1.44900       -3.61970        4.39870
H          0.12740       -2.68040        5.13810
H          2.29940       -2.02790        6.14340
H          1.61000       -0.67580        5.22850
H          2.93250       -1.61720        4.54100
H         -1.92310       -3.66610        4.70070
H         -2.62930       -5.01250        3.77860
H         -0.76680       -5.35170        6.18440
H         -2.53130       -5.51640        6.23030
H         -1.55960       -6.65250        5.28420
H         -1.57980       -6.41520        2.14400
H         -4.01810      -10.22070       -1.45680
H         -2.70000       -5.41820       -4.10860
H         -4.08590       -6.17770       -4.92040
H         -2.45930       -6.77880       -5.22360
