
  xtb     02122203013D
 energy: -451.650002822741 gnorm: 0.000657299801 xtb: 6.4.1 (unknown)
268292  0     0  0            999 V2000
   -7.2843    6.5754    0.4704 C   0  0  0  0  0  0  0  0  0  0  0  0
   -7.2686    7.6074    1.3855 C   0  0  0  0  0  0  0  0  0  0  0  0
   -8.4025    8.5420    1.4902 C   0  0  0  0  0  0  0  0  0  0  0  0
   -9.3530    8.6380    0.7437 O   0  0  0  0  0  0  0  0  0  0  0  0
   -8.1499    9.3153    2.7352 C   0  0  0  0  0  0  0  0  0  0  0  0
   -8.9625   10.2287    3.3729 C   0  0  0  0  0  0  0  0  0  0  0  0
   -8.4953   10.7860    4.5601 C   0  0  0  0  0  0  0  0  0  0  0  0
   -9.3285   11.7723    5.3279 C   0  0  0  0  0  0  0  0  0  0  0  0
  -10.4982   12.0554    4.7440 F   0  0  0  0  0  0  0  0  0  0  0  0
   -8.6957   12.9465    5.5058 F   0  0  0  0  0  0  0  0  0  0  0  0
   -9.6210   11.3226    6.5659 F   0  0  0  0  0  0  0  0  0  0  0  0
   -7.2531   10.4395    5.0820 C   0  0  0  0  0  0  0  0  0  0  0  0
   -6.4347    9.5292    4.4289 C   0  0  0  0  0  0  0  0  0  0  0  0
   -6.8905    8.9632    3.2504 C   0  0  0  0  0  0  0  0  0  0  0  0
   -6.2736    7.9894    2.3471 C   0  0  0  0  0  0  0  0  0  0  0  0
   -4.9221    7.7371    2.2779 C   0  0  0  0  0  0  0  0  0  0  0  0
   -4.3177    7.0008    1.2430 C   0  0  0  0  0  0  0  0  0  0  0  0
   -3.7736    6.4545    0.3896 N   0  0  0  0  0  0  0  0  0  0  0  0
   -3.9686    8.3023    3.1440 C   0  0  0  0  0  0  0  0  0  0  0  0
   -3.1365    8.7410    3.8036 N   0  0  0  0  0  0  0  0  0  0  0  0
   -6.5739    5.3792    0.5872 C   0  0  0  0  0  0  0  0  0  0  0  0
   -6.0839    4.5216   -0.4193 C   0  0  0  0  0  0  0  0  0  0  0  0
   -6.3077    4.6470   -1.7597 N   0  0  0  0  0  0  0  0  0  0  0  0
   -5.3607    4.1285   -2.6682 C   0  0  0  0  0  0  0  0  0  0  0  0
   -5.7741    3.2823   -3.6950 C   0  0  0  0  0  0  0  0  0  0  0  0
   -4.8463    2.7441   -4.5581 C   0  0  0  0  0  0  0  0  0  0  0  0
   -3.4910    3.0388   -4.4131 C   0  0  0  0  0  0  0  0  0  0  0  0
   -2.3866    2.2376   -5.5332 S   0  0  0  0  0  0  0  0  0  0  0  0
   -0.8778    3.2379   -5.4357 C   0  0  0  0  0  0  0  0  0  0  0  0
   -3.0821    3.9017   -3.4043 C   0  0  0  0  0  0  0  0  0  0  0  0
   -4.0119    4.4474   -2.5396 C   0  0  0  0  0  0  0  0  0  0  0  0
   -7.5227    5.1279   -2.2718 C   0  0  0  0  0  0  0  0  0  0  0  0
   -8.7393    4.7835   -1.6797 C   0  0  0  0  0  0  0  0  0  0  0  0
   -9.9213    5.2544   -2.2040 C   0  0  0  0  0  0  0  0  0  0  0  0
   -9.9193    6.0746   -3.3326 C   0  0  0  0  0  0  0  0  0  0  0  0
  -11.4927    6.6047   -3.9170 S   0  0  0  0  0  0  0  0  0  0  0  0
  -11.0942    7.8485   -5.1776 C   0  0  0  0  0  0  0  0  0  0  0  0
   -8.7101    6.4048   -3.9333 C   0  0  0  0  0  0  0  0  0  0  0  0
   -7.5237    5.9341   -3.4060 C   0  0  0  0  0  0  0  0  0  0  0  0
   -5.2485    3.5328    0.1378 C   0  0  0  0  0  0  0  0  0  0  0  0
   -4.2841    2.2694   -0.5388 S   0  0  0  0  0  0  0  0  0  0  0  0
   -3.8123    1.7298    1.0671 C   0  0  0  0  0  0  0  0  0  0  0  0
   -4.4567    2.4542    2.0726 C   0  0  0  0  0  0  0  0  0  0  0  0
   -4.4019    2.1707    3.4275 N   0  0  0  0  0  0  0  0  0  0  0  0
   -4.5435    3.2870    4.2811 C   0  0  0  0  0  0  0  0  0  0  0  0
   -3.6398    4.3428    4.1741 C   0  0  0  0  0  0  0  0  0  0  0  0
   -3.8122    5.4815    4.9296 C   0  0  0  0  0  0  0  0  0  0  0  0
   -4.9012    5.5937    5.7915 C   0  0  0  0  0  0  0  0  0  0  0  0
   -5.0685    7.1156    6.6687 S   0  0  0  0  0  0  0  0  0  0  0  0
   -6.7964    7.0914    7.2325 C   0  0  0  0  0  0  0  0  0  0  0  0
   -5.7838    4.5298    5.9257 C   0  0  0  0  0  0  0  0  0  0  0  0
   -5.6043    3.3848    5.1752 C   0  0  0  0  0  0  0  0  0  0  0  0
   -4.6199    0.8795    3.9169 C   0  0  0  0  0  0  0  0  0  0  0  0
   -4.3056    0.5916    5.2448 C   0  0  0  0  0  0  0  0  0  0  0  0
   -4.5488   -0.6589    5.7723 C   0  0  0  0  0  0  0  0  0  0  0  0
   -5.0841   -1.6591    4.9729 C   0  0  0  0  0  0  0  0  0  0  0  0
   -5.4110   -3.2913    5.5771 S   0  0  0  0  0  0  0  0  0  0  0  0
   -5.7979   -3.0021    7.3273 C   0  0  0  0  0  0  0  0  0  0  0  0
   -5.3661   -1.3927    3.6382 C   0  0  0  0  0  0  0  0  0  0  0  0
   -5.1513   -0.1346    3.1186 C   0  0  0  0  0  0  0  0  0  0  0  0
   -5.2107    3.5099    1.5255 C   0  0  0  0  0  0  0  0  0  0  0  0
   -6.1208    4.8096    2.2035 S   0  0  0  0  0  0  0  0  0  0  0  0
   -2.7389    0.8226    1.1864 C   0  0  0  0  0  0  0  0  0  0  0  0
   -2.0942    0.1908    0.1230 C   0  0  0  0  0  0  0  0  0  0  0  0
   -2.5973    0.0466   -1.1602 N   0  0  0  0  0  0  0  0  0  0  0  0
   -1.6671    0.0504   -2.2108 C   0  0  0  0  0  0  0  0  0  0  0  0
   -0.6482    1.0045   -2.2154 C   0  0  0  0  0  0  0  0  0  0  0  0
    0.3229    0.9787   -3.1904 C   0  0  0  0  0  0  0  0  0  0  0  0
    0.2861    0.0202   -4.2021 C   0  0  0  0  0  0  0  0  0  0  0  0
    1.5774    0.0923   -5.3983 S   0  0  0  0  0  0  0  0  0  0  0  0
    1.0740   -1.1016   -6.6656 C   0  0  0  0  0  0  0  0  0  0  0  0
   -0.7377   -0.9176   -4.2120 C   0  0  0  0  0  0  0  0  0  0  0  0
   -1.7002   -0.9046   -3.2225 C   0  0  0  0  0  0  0  0  0  0  0  0
   -3.8945   -0.4472   -1.3572 C   0  0  0  0  0  0  0  0  0  0  0  0
   -4.5825   -0.1368   -2.5285 C   0  0  0  0  0  0  0  0  0  0  0  0
   -5.8748   -0.5793   -2.7260 C   0  0  0  0  0  0  0  0  0  0  0  0
   -6.5057   -1.3427   -1.7522 C   0  0  0  0  0  0  0  0  0  0  0  0
   -8.1585   -1.9475   -1.8787 S   0  0  0  0  0  0  0  0  0  0  0  0
   -8.7393   -1.3109   -3.4768 C   0  0  0  0  0  0  0  0  0  0  0  0
   -5.8142   -1.6705   -0.5871 C   0  0  0  0  0  0  0  0  0  0  0  0
   -4.5251   -1.2301   -0.3901 C   0  0  0  0  0  0  0  0  0  0  0  0
   -0.8560   -0.3368    0.5299 C   0  0  0  0  0  0  0  0  0  0  0  0
    0.4226   -1.0892   -0.3274 S   0  0  0  0  0  0  0  0  0  0  0  0
    1.2694   -1.4289    1.1839 C   0  0  0  0  0  0  0  0  0  0  0  0
    0.6432   -0.8244    2.2698 C   0  0  0  0  0  0  0  0  0  0  0  0
    1.1330   -0.7868    3.5683 N   0  0  0  0  0  0  0  0  0  0  0  0
    0.2556   -0.9819    4.6411 C   0  0  0  0  0  0  0  0  0  0  0  0
    0.3975   -0.2474    5.8167 C   0  0  0  0  0  0  0  0  0  0  0  0
   -0.3923   -0.5142    6.9148 C   0  0  0  0  0  0  0  0  0  0  0  0
   -1.3471   -1.5188    6.8538 C   0  0  0  0  0  0  0  0  0  0  0  0
   -2.3280   -1.9854    8.2508 S   0  0  0  0  0  0  0  0  0  0  0  0
   -1.3641   -1.3817    9.6647 C   0  0  0  0  0  0  0  0  0  0  0  0
   -1.5545   -2.1976    5.6569 C   0  0  0  0  0  0  0  0  0  0  0  0
   -0.7633   -1.9322    4.5600 C   0  0  0  0  0  0  0  0  0  0  0  0
    2.4404   -0.3428    3.7990 C   0  0  0  0  0  0  0  0  0  0  0  0
    3.1594   -0.8010    4.9047 C   0  0  0  0  0  0  0  0  0  0  0  0
    4.4363   -0.3480    5.1407 C   0  0  0  0  0  0  0  0  0  0  0  0
    5.0369    0.5511    4.2647 C   0  0  0  0  0  0  0  0  0  0  0  0
    6.6825    1.0845    4.6287 S   0  0  0  0  0  0  0  0  0  0  0  0
    7.3544    1.4283    2.9773 C   0  0  0  0  0  0  0  0  0  0  0  0
    4.3301    1.0150    3.1663 C   0  0  0  0  0  0  0  0  0  0  0  0
    3.0414    0.5740    2.9381 C   0  0  0  0  0  0  0  0  0  0  0  0
   -0.5820   -0.2239    1.8830 C   0  0  0  0  0  0  0  0  0  0  0  0
   -1.8638    0.6083    2.7065 S   0  0  0  0  0  0  0  0  0  0  0  0
    2.4151   -2.2647    1.0279 C   0  0  0  0  0  0  0  0  0  0  0  0
    2.5016   -3.2304    0.0249 C   0  0  0  0  0  0  0  0  0  0  0  0
    1.4552   -3.7037   -0.7575 N   0  0  0  0  0  0  0  0  0  0  0  0
    1.7106   -3.9012   -2.1237 C   0  0  0  0  0  0  0  0  0  0  0  0
    2.4289   -2.9480   -2.8454 C   0  0  0  0  0  0  0  0  0  0  0  0
    2.7336   -3.1676   -4.1703 C   0  0  0  0  0  0  0  0  0  0  0  0
    2.3267   -4.3424   -4.7995 C   0  0  0  0  0  0  0  0  0  0  0  0
    2.7735   -4.5404   -6.4989 S   0  0  0  0  0  0  0  0  0  0  0  0
    2.6233   -6.3328   -6.7645 C   0  0  0  0  0  0  0  0  0  0  0  0
    1.5822   -5.2780   -4.0927 C   0  0  0  0  0  0  0  0  0  0  0  0
    1.2800   -5.0590   -2.7637 C   0  0  0  0  0  0  0  0  0  0  0  0
    0.1897   -3.9466   -0.2193 C   0  0  0  0  0  0  0  0  0  0  0  0
   -0.9535   -3.7649   -1.0035 C   0  0  0  0  0  0  0  0  0  0  0  0
   -2.2059   -3.9021   -0.4519 C   0  0  0  0  0  0  0  0  0  0  0  0
   -2.3554   -4.2290    0.8951 C   0  0  0  0  0  0  0  0  0  0  0  0
   -4.0055   -4.3077    1.5191 S   0  0  0  0  0  0  0  0  0  0  0  0
   -3.8197   -5.1641    3.1059 C   0  0  0  0  0  0  0  0  0  0  0  0
   -1.2240   -4.4454    1.6697 C   0  0  0  0  0  0  0  0  0  0  0  0
    0.0348   -4.3049    1.1168 C   0  0  0  0  0  0  0  0  0  0  0  0
    3.8138   -3.7220   -0.1024 C   0  0  0  0  0  0  0  0  0  0  0  0
    4.5694   -4.7345   -1.2718 S   0  0  0  0  0  0  0  0  0  0  0  0
    6.1304   -4.4874   -0.4914 C   0  0  0  0  0  0  0  0  0  0  0  0
    6.0362   -3.6823    0.6514 C   0  0  0  0  0  0  0  0  0  0  0  0
    7.1182   -3.3031    1.4073 N   0  0  0  0  0  0  0  0  0  0  0  0
    8.3969   -3.2777    0.7968 C   0  0  0  0  0  0  0  0  0  0  0  0
    9.4387   -4.0464    1.3060 C   0  0  0  0  0  0  0  0  0  0  0  0
   10.6244   -4.1504    0.6075 C   0  0  0  0  0  0  0  0  0  0  0  0
   10.7808   -3.4808   -0.6003 C   0  0  0  0  0  0  0  0  0  0  0  0
   12.2257   -3.6749   -1.5989 S   0  0  0  0  0  0  0  0  0  0  0  0
   12.5781   -5.4449   -1.3690 C   0  0  0  0  0  0  0  0  0  0  0  0
    9.7773   -2.6315   -1.0542 C   0  0  0  0  0  0  0  0  0  0  0  0
    8.5915   -2.5265   -0.3588 C   0  0  0  0  0  0  0  0  0  0  0  0
    7.0194   -3.0430    2.7759 C   0  0  0  0  0  0  0  0  0  0  0  0
    7.9371   -2.1845    3.3781 C   0  0  0  0  0  0  0  0  0  0  0  0
    7.9055   -1.9546    4.7379 C   0  0  0  0  0  0  0  0  0  0  0  0
    6.9367   -2.5660    5.5220 C   0  0  0  0  0  0  0  0  0  0  0  0
    6.7981   -2.3435    7.2679 S   0  0  0  0  0  0  0  0  0  0  0  0
    7.9589   -0.9959    7.6282 C   0  0  0  0  0  0  0  0  0  0  0  0
    6.0149   -3.4229    4.9256 C   0  0  0  0  0  0  0  0  0  0  0  0
    6.0601   -3.6701    3.5721 C   0  0  0  0  0  0  0  0  0  0  0  0
    4.7096   -3.2277    0.8340 C   0  0  0  0  0  0  0  0  0  0  0  0
    3.9326   -2.1039    1.9047 S   0  0  0  0  0  0  0  0  0  0  0  0
    7.2798   -5.0948   -1.0416 C   0  0  0  0  0  0  0  0  0  0  0  0
    7.5093   -5.3895   -2.3518 C   0  0  0  0  0  0  0  0  0  0  0  0
    8.6005   -6.3185   -2.7266 C   0  0  0  0  0  0  0  0  0  0  0  0
    9.4911   -6.7157   -2.0015 O   0  0  0  0  0  0  0  0  0  0  0  0
    8.3648   -6.6577   -4.1429 C   0  0  0  0  0  0  0  0  0  0  0  0
    9.0286   -7.6076   -4.9171 C   0  0  0  0  0  0  0  0  0  0  0  0
    8.5379   -7.7308   -6.1952 C   0  0  0  0  0  0  0  0  0  0  0  0
    7.4556   -6.9784   -6.6708 C   0  0  0  0  0  0  0  0  0  0  0  0
    6.7983   -6.0288   -5.9249 C   0  0  0  0  0  0  0  0  0  0  0  0
    7.2974   -5.8749   -4.6299 C   0  0  0  0  0  0  0  0  0  0  0  0
    6.8783   -4.9516   -3.5768 C   0  0  0  0  0  0  0  0  0  0  0  0
    6.2661   -3.7477   -3.8140 C   0  0  0  0  0  0  0  0  0  0  0  0
    6.0593   -2.7419   -2.8513 C   0  0  0  0  0  0  0  0  0  0  0  0
    5.9203   -1.8574   -2.1304 N   0  0  0  0  0  0  0  0  0  0  0  0
    5.9284   -3.2907   -5.1050 C   0  0  0  0  0  0  0  0  0  0  0  0
    5.6655   -2.8475   -6.1309 N   0  0  0  0  0  0  0  0  0  0  0  0
    7.4924   -7.6339   -8.0287 C   0  0  0  0  0  0  0  0  0  0  0  0
    8.1146   -6.8062   -9.1730 C   0  0  0  0  0  0  0  0  0  0  0  0
    8.4545   -7.8389  -10.2231 C   0  0  0  0  0  0  0  0  0  0  0  0
    9.4850   -8.5450   -9.7759 C   0  0  0  0  0  0  0  0  0  0  0  0
    9.8588   -8.0015   -8.4156 C   0  0  0  0  0  0  0  0  0  0  0  0
    9.5169   -6.5201   -8.6207 C   0  0  0  0  0  0  0  0  0  0  0  0
    8.7049   -8.4668   -7.5021 C   0  0  0  0  0  0  0  0  0  0  0  0
   -7.9634    6.6995   -0.3653 H   0  0  0  0  0  0  0  0  0  0  0  0
   -9.9244   10.4942    2.9627 H   0  0  0  0  0  0  0  0  0  0  0  0
   -6.9245   10.8888    6.0071 H   0  0  0  0  0  0  0  0  0  0  0  0
   -5.4794    9.2647    4.8519 H   0  0  0  0  0  0  0  0  0  0  0  0
   -6.8225    3.0465   -3.8031 H   0  0  0  0  0  0  0  0  0  0  0  0
   -5.1562    2.0813   -5.3517 H   0  0  0  0  0  0  0  0  0  0  0  0
   -0.4080    3.1087   -4.4662 H   0  0  0  0  0  0  0  0  0  0  0  0
   -0.2197    2.8562   -6.2100 H   0  0  0  0  0  0  0  0  0  0  0  0
   -1.1214    4.2782   -5.6288 H   0  0  0  0  0  0  0  0  0  0  0  0
   -2.0413    4.1515   -3.2785 H   0  0  0  0  0  0  0  0  0  0  0  0
   -3.6962    5.1183   -1.7543 H   0  0  0  0  0  0  0  0  0  0  0  0
   -8.7479    4.1451   -0.8087 H   0  0  0  0  0  0  0  0  0  0  0  0
  -10.8632    4.9935   -1.7473 H   0  0  0  0  0  0  0  0  0  0  0  0
  -12.0465    8.2759   -5.4759 H   0  0  0  0  0  0  0  0  0  0  0  0
  -10.6186    7.3799   -6.0344 H   0  0  0  0  0  0  0  0  0  0  0  0
  -10.4635    8.6188   -4.7443 H   0  0  0  0  0  0  0  0  0  0  0  0
   -8.6772    7.0309   -4.8099 H   0  0  0  0  0  0  0  0  0  0  0  0
   -6.5852    6.1961   -3.8713 H   0  0  0  0  0  0  0  0  0  0  0  0
   -2.8126    4.2655    3.4842 H   0  0  0  0  0  0  0  0  0  0  0  0
   -3.1152    6.3013    4.8524 H   0  0  0  0  0  0  0  0  0  0  0  0
   -7.4493    6.8657    6.3946 H   0  0  0  0  0  0  0  0  0  0  0  0
   -6.9230    6.3733    8.0374 H   0  0  0  0  0  0  0  0  0  0  0  0
   -7.0009    8.0916    7.6012 H   0  0  0  0  0  0  0  0  0  0  0  0
   -6.6216    4.5850    6.6017 H   0  0  0  0  0  0  0  0  0  0  0  0
   -6.3023    2.5656    5.2665 H   0  0  0  0  0  0  0  0  0  0  0  0
   -3.8703    1.3588    5.8671 H   0  0  0  0  0  0  0  0  0  0  0  0
   -4.3089   -0.8514    6.8050 H   0  0  0  0  0  0  0  0  0  0  0  0
   -6.4691   -2.1527    7.4062 H   0  0  0  0  0  0  0  0  0  0  0  0
   -6.2920   -3.9040    7.6749 H   0  0  0  0  0  0  0  0  0  0  0  0
   -4.8860   -2.8383    7.8931 H   0  0  0  0  0  0  0  0  0  0  0  0
   -5.7717   -2.1741    3.0143 H   0  0  0  0  0  0  0  0  0  0  0  0
   -5.4193    0.0623    2.0917 H   0  0  0  0  0  0  0  0  0  0  0  0
   -0.6264    1.7594   -1.4428 H   0  0  0  0  0  0  0  0  0  0  0  0
    1.1295    1.6968   -3.1807 H   0  0  0  0  0  0  0  0  0  0  0  0
    1.0832   -2.1079   -6.2581 H   0  0  0  0  0  0  0  0  0  0  0  0
    1.8199   -1.0249   -7.4506 H   0  0  0  0  0  0  0  0  0  0  0  0
    0.0944   -0.8336   -7.0506 H   0  0  0  0  0  0  0  0  0  0  0  0
   -0.7861   -1.6762   -4.9762 H   0  0  0  0  0  0  0  0  0  0  0  0
   -2.4796   -1.6517   -3.2250 H   0  0  0  0  0  0  0  0  0  0  0  0
   -4.1029    0.4693   -3.2813 H   0  0  0  0  0  0  0  0  0  0  0  0
   -6.3775   -0.3118   -3.6410 H   0  0  0  0  0  0  0  0  0  0  0  0
   -8.1324   -1.7147   -4.2818 H   0  0  0  0  0  0  0  0  0  0  0  0
   -9.7619   -1.6616   -3.5755 H   0  0  0  0  0  0  0  0  0  0  0  0
   -8.7211   -0.2249   -3.4733 H   0  0  0  0  0  0  0  0  0  0  0  0
   -6.2942   -2.2850    0.1584 H   0  0  0  0  0  0  0  0  0  0  0  0
   -4.0010   -1.5052    0.5122 H   0  0  0  0  0  0  0  0  0  0  0  0
    1.1389    0.5351    5.8737 H   0  0  0  0  0  0  0  0  0  0  0  0
   -0.2532    0.0688    7.8110 H   0  0  0  0  0  0  0  0  0  0  0  0
   -0.3268   -1.6804    9.5471 H   0  0  0  0  0  0  0  0  0  0  0  0
   -1.7930   -1.8589   10.5406 H   0  0  0  0  0  0  0  0  0  0  0  0
   -1.4563   -0.3029    9.7536 H   0  0  0  0  0  0  0  0  0  0  0  0
   -2.3265   -2.9502    5.6063 H   0  0  0  0  0  0  0  0  0  0  0  0
   -0.9097   -2.4771    3.6389 H   0  0  0  0  0  0  0  0  0  0  0  0
    2.7127   -1.5204    5.5735 H   0  0  0  0  0  0  0  0  0  0  0  0
    4.9794   -0.6940    6.0046 H   0  0  0  0  0  0  0  0  0  0  0  0
    7.0596    0.6284    2.3049 H   0  0  0  0  0  0  0  0  0  0  0  0
    7.0067    2.3930    2.6193 H   0  0  0  0  0  0  0  0  0  0  0  0
    8.4341    1.4483    3.0873 H   0  0  0  0  0  0  0  0  0  0  0  0
    4.7664    1.7296    2.4867 H   0  0  0  0  0  0  0  0  0  0  0  0
    2.4922    0.9530    2.0891 H   0  0  0  0  0  0  0  0  0  0  0  0
    2.7518   -2.0390   -2.3603 H   0  0  0  0  0  0  0  0  0  0  0  0
    3.2917   -2.4322   -4.7289 H   0  0  0  0  0  0  0  0  0  0  0  0
    3.0995   -6.5269   -7.7206 H   0  0  0  0  0  0  0  0  0  0  0  0
    3.1458   -6.8629   -5.9735 H   0  0  0  0  0  0  0  0  0  0  0  0
    1.5786   -6.6261   -6.8114 H   0  0  0  0  0  0  0  0  0  0  0  0
    1.2389   -6.1844   -4.5652 H   0  0  0  0  0  0  0  0  0  0  0  0
    0.7125   -5.7933   -2.2113 H   0  0  0  0  0  0  0  0  0  0  0  0
   -0.8445   -3.4825   -2.0397 H   0  0  0  0  0  0  0  0  0  0  0  0
   -3.0886   -3.7394   -1.0516 H   0  0  0  0  0  0  0  0  0  0  0  0
   -3.3173   -4.5222    3.8228 H   0  0  0  0  0  0  0  0  0  0  0  0
   -3.2824   -6.0959    2.9564 H   0  0  0  0  0  0  0  0  0  0  0  0
   -4.8281   -5.3635    3.4540 H   0  0  0  0  0  0  0  0  0  0  0  0
   -1.3073   -4.7234    2.7085 H   0  0  0  0  0  0  0  0  0  0  0  0
    0.9066   -4.4656    1.7342 H   0  0  0  0  0  0  0  0  0  0  0  0
    9.2994   -4.5919    2.2282 H   0  0  0  0  0  0  0  0  0  0  0  0
   11.4148   -4.7735    0.9940 H   0  0  0  0  0  0  0  0  0  0  0  0
   13.2466   -5.7221   -2.1779 H   0  0  0  0  0  0  0  0  0  0  0  0
   11.6471   -6.0002   -1.4428 H   0  0  0  0  0  0  0  0  0  0  0  0
   13.0681   -5.6166   -0.4152 H   0  0  0  0  0  0  0  0  0  0  0  0
    9.9260   -2.0761   -1.9673 H   0  0  0  0  0  0  0  0  0  0  0  0
    7.7923   -1.9036   -0.7313 H   0  0  0  0  0  0  0  0  0  0  0  0
    8.6892   -1.7007    2.7725 H   0  0  0  0  0  0  0  0  0  0  0  0
    8.6368   -1.2929    5.1710 H   0  0  0  0  0  0  0  0  0  0  0  0
    7.8044   -0.7502    8.6743 H   0  0  0  0  0  0  0  0  0  0  0  0
    8.9804   -1.3333    7.4779 H   0  0  0  0  0  0  0  0  0  0  0  0
    7.7260   -0.1374    7.0045 H   0  0  0  0  0  0  0  0  0  0  0  0
    5.2725   -3.9069    5.5412 H   0  0  0  0  0  0  0  0  0  0  0  0
    5.3664   -4.3701    3.1327 H   0  0  0  0  0  0  0  0  0  0  0  0
    8.0456   -5.4344   -0.3544 H   0  0  0  0  0  0  0  0  0  0  0  0
    9.8481   -8.1810   -4.5127 H   0  0  0  0  0  0  0  0  0  0  0  0
    5.9612   -5.4580   -6.2933 H   0  0  0  0  0  0  0  0  0  0  0  0
    6.5891   -8.1631   -8.3274 H   0  0  0  0  0  0  0  0  0  0  0  0
    7.5198   -5.9556   -9.4942 H   0  0  0  0  0  0  0  0  0  0  0  0
    7.8945   -7.9813  -11.1289 H   0  0  0  0  0  0  0  0  0  0  0  0
    9.9573   -9.3948  -10.2330 H   0  0  0  0  0  0  0  0  0  0  0  0
   10.8540   -8.2406   -8.0502 H   0  0  0  0  0  0  0  0  0  0  0  0
   10.1616   -6.0477   -9.3599 H   0  0  0  0  0  0  0  0  0  0  0  0
    9.5210   -5.9315   -7.7053 H   0  0  0  0  0  0  0  0  0  0  0  0
    8.6114   -9.5505   -7.4536 H   0  0  0  0  0  0  0  0  0  0  0  0
  1  2  2  0  0  0  0
  2  3  1  0  0  0  0
  3  4  2  0  0  0  0
  3  5  1  0  0  0  0
  5  6  2  0  0  0  0
  6  7  1  0  0  0  0
  7  8  1  0  0  0  0
  8  9  1  0  0  0  0
  8 10  1  0  0  0  0
  8 11  1  0  0  0  0
  7 12  2  0  0  0  0
 12 13  1  0  0  0  0
 13 14  2  0  0  0  0
 14 15  1  0  0  0  0
 15 16  2  0  0  0  0
 16 17  1  0  0  0  0
 17 18  3  0  0  0  0
 16 19  1  0  0  0  0
 19 20  3  0  0  0  0
  1 21  1  0  0  0  0
 21 22  2  0  0  0  0
 22 23  1  0  0  0  0
 23 24  1  0  0  0  0
 24 25  2  0  0  0  0
 25 26  1  0  0  0  0
 26 27  2  0  0  0  0
 27 28  1  0  0  0  0
 28 29  1  0  0  0  0
 27 30  1  0  0  0  0
 30 31  2  0  0  0  0
 23 32  1  0  0  0  0
 32 33  2  0  0  0  0
 33 34  1  0  0  0  0
 34 35  2  0  0  0  0
 35 36  1  0  0  0  0
 36 37  1  0  0  0  0
 35 38  1  0  0  0  0
 38 39  2  0  0  0  0
 22 40  1  0  0  0  0
 40 41  1  0  0  0  0
 41 42  1  0  0  0  0
 42 43  2  0  0  0  0
 43 44  1  0  0  0  0
 44 45  1  0  0  0  0
 45 46  2  0  0  0  0
 46 47  1  0  0  0  0
 47 48  2  0  0  0  0
 48 49  1  0  0  0  0
 49 50  1  0  0  0  0
 48 51  1  0  0  0  0
 51 52  2  0  0  0  0
 44 53  1  0  0  0  0
 53 54  2  0  0  0  0
 54 55  1  0  0  0  0
 55 56  2  0  0  0  0
 56 57  1  0  0  0  0
 57 58  1  0  0  0  0
 56 59  1  0  0  0  0
 59 60  2  0  0  0  0
 43 61  1  0  0  0  0
 61 62  1  0  0  0  0
 42 63  1  0  0  0  0
 63 64  2  0  0  0  0
 64 65  1  0  0  0  0
 65 66  1  0  0  0  0
 66 67  2  0  0  0  0
 67 68  1  0  0  0  0
 68 69  2  0  0  0  0
 69 70  1  0  0  0  0
 70 71  1  0  0  0  0
 69 72  1  0  0  0  0
 72 73  2  0  0  0  0
 65 74  1  0  0  0  0
 74 75  2  0  0  0  0
 75 76  1  0  0  0  0
 76 77  2  0  0  0  0
 77 78  1  0  0  0  0
 78 79  1  0  0  0  0
 77 80  1  0  0  0  0
 80 81  2  0  0  0  0
 64 82  1  0  0  0  0
 82 83  1  0  0  0  0
 83 84  1  0  0  0  0
 84 85  2  0  0  0  0
 85 86  1  0  0  0  0
 86 87  1  0  0  0  0
 87 88  2  0  0  0  0
 88 89  1  0  0  0  0
 89 90  2  0  0  0  0
 90 91  1  0  0  0  0
 91 92  1  0  0  0  0
 90 93  1  0  0  0  0
 93 94  2  0  0  0  0
 86 95  1  0  0  0  0
 95 96  2  0  0  0  0
 96 97  1  0  0  0  0
 97 98  2  0  0  0  0
 98 99  1  0  0  0  0
 99100  1  0  0  0  0
 98101  1  0  0  0  0
101102  2  0  0  0  0
 85103  1  0  0  0  0
103104  1  0  0  0  0
 84105  1  0  0  0  0
105106  2  0  0  0  0
106107  1  0  0  0  0
107108  1  0  0  0  0
108109  2  0  0  0  0
109110  1  0  0  0  0
110111  2  0  0  0  0
111112  1  0  0  0  0
112113  1  0  0  0  0
111114  1  0  0  0  0
114115  2  0  0  0  0
107116  1  0  0  0  0
116117  2  0  0  0  0
117118  1  0  0  0  0
118119  2  0  0  0  0
119120  1  0  0  0  0
120121  1  0  0  0  0
119122  1  0  0  0  0
122123  2  0  0  0  0
106124  1  0  0  0  0
124125  1  0  0  0  0
125126  1  0  0  0  0
126127  2  0  0  0  0
127128  1  0  0  0  0
128129  1  0  0  0  0
129130  2  0  0  0  0
130131  1  0  0  0  0
131132  2  0  0  0  0
132133  1  0  0  0  0
133134  1  0  0  0  0
132135  1  0  0  0  0
135136  2  0  0  0  0
128137  1  0  0  0  0
137138  2  0  0  0  0
138139  1  0  0  0  0
139140  2  0  0  0  0
140141  1  0  0  0  0
141142  1  0  0  0  0
140143  1  0  0  0  0
143144  2  0  0  0  0
127145  1  0  0  0  0
145146  1  0  0  0  0
126147  1  0  0  0  0
147148  2  0  0  0  0
148149  1  0  0  0  0
149150  2  0  0  0  0
149151  1  0  0  0  0
151152  2  0  0  0  0
152153  1  0  0  0  0
153154  2  0  0  0  0
154155  1  0  0  0  0
155156  2  0  0  0  0
156157  1  0  0  0  0
157158  2  0  0  0  0
158159  1  0  0  0  0
159160  3  0  0  0  0
158161  1  0  0  0  0
161162  3  0  0  0  0
154163  1  0  0  0  0
163164  1  0  0  0  0
164165  1  0  0  0  0
165166  2  0  0  0  0
166167  1  0  0  0  0
167168  1  0  0  0  0
167169  1  0  0  0  0
 15  2  1  0  0  0  0
 62 21  1  0  0  0  0
104 63  1  0  0  0  0
146105  1  0  0  0  0
157148  1  0  0  0  0
169163  1  0  0  0  0
 14  5  1  0  0  0  0
 31 24  1  0  0  0  0
 39 32  1  0  0  0  0
 61 40  2  0  0  0  0
 73 66  1  0  0  0  0
 81 74  1  0  0  0  0
103 82  2  0  0  0  0
115108  1  0  0  0  0
123116  1  0  0  0  0
145124  2  0  0  0  0
156151  1  0  0  0  0
168164  1  0  0  0  0
 52 45  1  0  0  0  0
 60 53  1  0  0  0  0
 94 87  1  0  0  0  0
102 95  1  0  0  0  0
136129  1  0  0  0  0
144137  1  0  0  0  0
169153  1  0  0  0  0
  1170  1  0  0  0  0
  6171  1  0  0  0  0
 12172  1  0  0  0  0
 13173  1  0  0  0  0
 25174  1  0  0  0  0
 26175  1  0  0  0  0
 29176  1  0  0  0  0
 29177  1  0  0  0  0
 29178  1  0  0  0  0
 30179  1  0  0  0  0
 31180  1  0  0  0  0
 33181  1  0  0  0  0
 34182  1  0  0  0  0
 37183  1  0  0  0  0
 37184  1  0  0  0  0
 37185  1  0  0  0  0
 38186  1  0  0  0  0
 39187  1  0  0  0  0
 46188  1  0  0  0  0
 47189  1  0  0  0  0
 50190  1  0  0  0  0
 50191  1  0  0  0  0
 50192  1  0  0  0  0
 51193  1  0  0  0  0
 52194  1  0  0  0  0
 54195  1  0  0  0  0
 55196  1  0  0  0  0
 58197  1  0  0  0  0
 58198  1  0  0  0  0
 58199  1  0  0  0  0
 59200  1  0  0  0  0
 60201  1  0  0  0  0
 67202  1  0  0  0  0
 68203  1  0  0  0  0
 71204  1  0  0  0  0
 71205  1  0  0  0  0
 71206  1  0  0  0  0
 72207  1  0  0  0  0
 73208  1  0  0  0  0
 75209  1  0  0  0  0
 76210  1  0  0  0  0
 79211  1  0  0  0  0
 79212  1  0  0  0  0
 79213  1  0  0  0  0
 80214  1  0  0  0  0
 81215  1  0  0  0  0
 88216  1  0  0  0  0
 89217  1  0  0  0  0
 92218  1  0  0  0  0
 92219  1  0  0  0  0
 92220  1  0  0  0  0
 93221  1  0  0  0  0
 94222  1  0  0  0  0
 96223  1  0  0  0  0
 97224  1  0  0  0  0
100225  1  0  0  0  0
100226  1  0  0  0  0
100227  1  0  0  0  0
101228  1  0  0  0  0
102229  1  0  0  0  0
109230  1  0  0  0  0
110231  1  0  0  0  0
113232  1  0  0  0  0
113233  1  0  0  0  0
113234  1  0  0  0  0
114235  1  0  0  0  0
115236  1  0  0  0  0
117237  1  0  0  0  0
118238  1  0  0  0  0
121239  1  0  0  0  0
121240  1  0  0  0  0
121241  1  0  0  0  0
122242  1  0  0  0  0
123243  1  0  0  0  0
130244  1  0  0  0  0
131245  1  0  0  0  0
134246  1  0  0  0  0
134247  1  0  0  0  0
134248  1  0  0  0  0
135249  1  0  0  0  0
136250  1  0  0  0  0
138251  1  0  0  0  0
139252  1  0  0  0  0
142253  1  0  0  0  0
142254  1  0  0  0  0
142255  1  0  0  0  0
143256  1  0  0  0  0
144257  1  0  0  0  0
147258  1  0  0  0  0
152259  1  0  0  0  0
155260  1  0  0  0  0
163261  1  0  0  0  0
164262  1  0  0  0  0
165263  1  0  0  0  0
166264  1  0  0  0  0
167265  1  0  0  0  0
168266  1  0  0  0  0
168267  1  0  0  0  0
169268  1  0  0  0  0
M  END
