
  xtb     02092218053D
 energy: -383.134575535531 gnorm: 0.000755922131 xtb: 6.4.1 (unknown)
214231  0     0  0            999 V2000
    2.3685   -7.1123   -2.3678 C   0  0  0  0  0  0  0  0  0  0  0  0
    2.7705   -8.2242   -1.6556 C   0  0  0  0  0  0  0  0  0  0  0  0
    3.0192   -8.2875   -0.2158 C   0  0  0  0  0  0  0  0  0  0  0  0
    3.0842   -7.3673    0.5785 O   0  0  0  0  0  0  0  0  0  0  0  0
    3.1736   -9.7251    0.1041 C   0  0  0  0  0  0  0  0  0  0  0  0
    3.4011  -10.3159    1.3288 C   0  0  0  0  0  0  0  0  0  0  0  0
    3.5097  -11.7029    1.3625 C   0  0  0  0  0  0  0  0  0  0  0  0
    3.7324  -12.4098    2.6709 C   0  0  0  0  0  0  0  0  0  0  0  0
    4.5789  -13.4463    2.5568 F   0  0  0  0  0  0  0  0  0  0  0  0
    2.5878  -12.9171    3.1687 F   0  0  0  0  0  0  0  0  0  0  0  0
    4.2342  -11.6098    3.6205 F   0  0  0  0  0  0  0  0  0  0  0  0
    3.3853  -12.4628    0.2044 C   0  0  0  0  0  0  0  0  0  0  0  0
    3.1583  -11.8589   -1.0246 C   0  0  0  0  0  0  0  0  0  0  0  0
    3.0511  -10.4783   -1.0755 C   0  0  0  0  0  0  0  0  0  0  0  0
    2.8409   -9.5582   -2.1959 C   0  0  0  0  0  0  0  0  0  0  0  0
    2.7508   -9.9317   -3.5154 C   0  0  0  0  0  0  0  0  0  0  0  0
    2.7224   -9.0503   -4.6117 C   0  0  0  0  0  0  0  0  0  0  0  0
    2.7328   -8.4104   -5.5676 N   0  0  0  0  0  0  0  0  0  0  0  0
    2.7049  -11.2655   -3.9671 C   0  0  0  0  0  0  0  0  0  0  0  0
    2.6320  -12.3200   -4.4161 N   0  0  0  0  0  0  0  0  0  0  0  0
    2.1682   -5.7975   -1.9603 C   0  0  0  0  0  0  0  0  0  0  0  0
    1.5965   -4.7969   -2.7945 C   0  0  0  0  0  0  0  0  0  0  0  0
    1.0157   -5.0105   -4.0133 N   0  0  0  0  0  0  0  0  0  0  0  0
    0.3151   -6.1948   -4.3131 C   0  0  0  0  0  0  0  0  0  0  0  0
    0.3973   -6.7546   -5.5839 C   0  0  0  0  0  0  0  0  0  0  0  0
   -0.2349   -7.9511   -5.8634 C   0  0  0  0  0  0  0  0  0  0  0  0
   -0.9416   -8.6132   -4.8696 C   0  0  0  0  0  0  0  0  0  0  0  0
   -1.6920  -10.1919   -5.0876 S   0  0  0  0  0  0  0  0  0  0  0  0
   -0.8881  -10.8362   -6.5823 C   0  0  0  0  0  0  0  0  0  0  0  0
   -1.0780   -8.0198   -3.6132 C   0  0  0  0  0  0  0  0  0  0  0  0
   -0.4648   -6.8209   -3.3393 C   0  0  0  0  0  0  0  0  0  0  0  0
    1.0485   -3.9870   -4.9753 C   0  0  0  0  0  0  0  0  0  0  0  0
    2.2047   -3.2351   -5.1638 C   0  0  0  0  0  0  0  0  0  0  0  0
    2.2441   -2.2265   -6.1063 C   0  0  0  0  0  0  0  0  0  0  0  0
    1.1259   -1.9595   -6.8850 C   0  0  0  0  0  0  0  0  0  0  0  0
    1.0474   -0.6983   -8.1123 S   0  0  0  0  0  0  0  0  0  0  0  0
    2.7093    0.0301   -8.1057 C   0  0  0  0  0  0  0  0  0  0  0  0
   -0.0265   -2.7274   -6.7127 C   0  0  0  0  0  0  0  0  0  0  0  0
   -0.0671   -3.7298   -5.7720 C   0  0  0  0  0  0  0  0  0  0  0  0
    1.6680   -3.5352   -2.1757 C   0  0  0  0  0  0  0  0  0  0  0  0
    1.1401   -1.9426   -2.6177 S   0  0  0  0  0  0  0  0  0  0  0  0
    1.6239   -1.3381   -1.0441 C   0  0  0  0  0  0  0  0  0  0  0  0
    2.2490   -2.2983   -0.2756 C   0  0  0  0  0  0  0  0  0  0  0  0
    2.8963   -1.9863    0.9159 N   0  0  0  0  0  0  0  0  0  0  0  0
    2.7521   -2.8012    2.0381 C   0  0  0  0  0  0  0  0  0  0  0  0
    1.5855   -3.5480    2.2041 C   0  0  0  0  0  0  0  0  0  0  0  0
    1.4144   -4.3457    3.3115 C   0  0  0  0  0  0  0  0  0  0  0  0
    2.4056   -4.4160    4.2855 C   0  0  0  0  0  0  0  0  0  0  0  0
    2.0748   -5.4294    5.6972 S   0  0  0  0  0  0  0  0  0  0  0  0
    3.7320   -5.7800    6.3536 C   0  0  0  0  0  0  0  0  0  0  0  0
    3.5724   -3.6812    4.1243 C   0  0  0  0  0  0  0  0  0  0  0  0
    3.7484   -2.8895    3.0066 C   0  0  0  0  0  0  0  0  0  0  0  0
    3.7983   -0.9126    0.8514 C   0  0  0  0  0  0  0  0  0  0  0  0
    4.5464   -0.7308   -0.3124 C   0  0  0  0  0  0  0  0  0  0  0  0
    5.3872    0.3505   -0.4507 C   0  0  0  0  0  0  0  0  0  0  0  0
    5.5009    1.2742    0.5788 C   0  0  0  0  0  0  0  0  0  0  0  0
    6.5550    2.6839    0.4299 S   0  0  0  0  0  0  0  0  0  0  0  0
    6.3018    3.1292   -1.3173 C   0  0  0  0  0  0  0  0  0  0  0  0
    4.7951    1.0789    1.7596 C   0  0  0  0  0  0  0  0  0  0  0  0
    3.9464   -0.0016    1.8953 C   0  0  0  0  0  0  0  0  0  0  0  0
    2.2400   -3.5637   -0.9101 C   0  0  0  0  0  0  0  0  0  0  0  0
    2.6867   -5.1470   -0.4000 S   0  0  0  0  0  0  0  0  0  0  0  0
    1.2057   -0.0442   -0.5473 C   0  0  0  0  0  0  0  0  0  0  0  0
    0.0770    0.1057    0.2263 C   0  0  0  0  0  0  0  0  0  0  0  0
   -0.7706   -0.9434    0.5944 N   0  0  0  0  0  0  0  0  0  0  0  0
   -1.3277   -1.7282   -0.4184 C   0  0  0  0  0  0  0  0  0  0  0  0
   -1.7527   -1.1180   -1.5977 C   0  0  0  0  0  0  0  0  0  0  0  0
   -2.2599   -1.8635   -2.6435 C   0  0  0  0  0  0  0  0  0  0  0  0
   -2.3646   -3.2419   -2.5254 C   0  0  0  0  0  0  0  0  0  0  0  0
   -2.9764   -4.3063   -3.7958 S   0  0  0  0  0  0  0  0  0  0  0  0
   -3.6924   -3.1580   -5.0073 C   0  0  0  0  0  0  0  0  0  0  0  0
   -1.9623   -3.8560   -1.3417 C   0  0  0  0  0  0  0  0  0  0  0  0
   -1.4478   -3.1142   -0.3029 C   0  0  0  0  0  0  0  0  0  0  0  0
   -0.8913   -1.2524    1.9513 C   0  0  0  0  0  0  0  0  0  0  0  0
    0.1147   -0.8936    2.8457 C   0  0  0  0  0  0  0  0  0  0  0  0
    0.0363   -1.2417    4.1791 C   0  0  0  0  0  0  0  0  0  0  0  0
   -1.0522   -1.9643    4.6460 C   0  0  0  0  0  0  0  0  0  0  0  0
   -1.2347   -2.5067    6.3135 S   0  0  0  0  0  0  0  0  0  0  0  0
    0.4209   -2.2794    7.0187 C   0  0  0  0  0  0  0  0  0  0  0  0
   -2.0860   -2.2805    3.7657 C   0  0  0  0  0  0  0  0  0  0  0  0
   -2.0143   -1.9231    2.4388 C   0  0  0  0  0  0  0  0  0  0  0  0
   -0.1192    1.4518    0.6099 C   0  0  0  0  0  0  0  0  0  0  0  0
   -1.4154    2.2793    1.3854 S   0  0  0  0  0  0  0  0  0  0  0  0
   -0.6040    3.7965    1.1258 C   0  0  0  0  0  0  0  0  0  0  0  0
    0.5967    3.6714    0.4514 C   0  0  0  0  0  0  0  0  0  0  0  0
    1.3963    4.7517    0.0637 N   0  0  0  0  0  0  0  0  0  0  0  0
    0.7319    5.8665   -0.4634 C   0  0  0  0  0  0  0  0  0  0  0  0
    1.0430    7.1722   -0.0860 C   0  0  0  0  0  0  0  0  0  0  0  0
    0.2652    8.2319   -0.5106 C   0  0  0  0  0  0  0  0  0  0  0  0
   -0.8312    8.0095   -1.3329 C   0  0  0  0  0  0  0  0  0  0  0  0
   -1.9533    9.2887   -1.8161 S   0  0  0  0  0  0  0  0  0  0  0  0
   -0.8930   10.7655   -1.8322 C   0  0  0  0  0  0  0  0  0  0  0  0
   -1.1086    6.7163   -1.7658 C   0  0  0  0  0  0  0  0  0  0  0  0
   -0.3342    5.6598   -1.3432 C   0  0  0  0  0  0  0  0  0  0  0  0
    2.6726    4.8695    0.6398 C   0  0  0  0  0  0  0  0  0  0  0  0
    3.6691    5.5957   -0.0058 C   0  0  0  0  0  0  0  0  0  0  0  0
    4.8959    5.7991    0.5961 C   0  0  0  0  0  0  0  0  0  0  0  0
    5.1533    5.2655    1.8521 C   0  0  0  0  0  0  0  0  0  0  0  0
    6.6459    5.5222    2.7556 S   0  0  0  0  0  0  0  0  0  0  0  0
    7.8125    6.1148    1.4994 C   0  0  0  0  0  0  0  0  0  0  0  0
    4.1743    4.4975    2.4770 C   0  0  0  0  0  0  0  0  0  0  0  0
    2.9528    4.2922    1.8777 C   0  0  0  0  0  0  0  0  0  0  0  0
    0.8642    2.3141    0.1490 C   0  0  0  0  0  0  0  0  0  0  0  0
    2.0458    1.4776   -0.8047 S   0  0  0  0  0  0  0  0  0  0  0  0
   -1.2828    5.0471    1.4172 C   0  0  0  0  0  0  0  0  0  0  0  0
   -0.7063    6.0677    2.1435 C   0  0  0  0  0  0  0  0  0  0  0  0
    0.4822    5.8793    2.7385 F   0  0  0  0  0  0  0  0  0  0  0  0
   -1.3181    7.3203    2.2606 C   0  0  0  0  0  0  0  0  0  0  0  0
   -0.6876    8.2734    2.9617 F   0  0  0  0  0  0  0  0  0  0  0  0
   -2.5412    7.6043    1.6798 C   0  0  0  0  0  0  0  0  0  0  0  0
   -3.1659    6.5653    0.9293 C   0  0  0  0  0  0  0  0  0  0  0  0
   -4.2936    6.8113    0.2461 N   0  0  0  0  0  0  0  0  0  0  0  0
   -4.8501    5.8585   -0.4566 C   0  0  0  0  0  0  0  0  0  0  0  0
   -6.1369    6.2122   -1.1343 C   0  0  0  0  0  0  0  0  0  0  0  0
   -7.3246    5.7123   -0.3064 C   0  0  0  0  0  0  0  0  0  0  0  0
   -4.2452    4.5673   -0.5335 C   0  0  0  0  0  0  0  0  0  0  0  0
   -3.1136    4.3339    0.0768 N   0  0  0  0  0  0  0  0  0  0  0  0
   -2.5487    5.2982    0.8208 C   0  0  0  0  0  0  0  0  0  0  0  0
   -4.8236    3.4548   -1.3538 C   0  0  0  0  0  0  0  0  0  0  0  0
   -3.9050    2.2417   -1.4216 C   0  0  0  0  0  0  0  0  0  0  0  0
   -3.0798    8.9360    1.6769 C   0  0  0  0  0  0  0  0  0  0  0  0
   -4.4062    9.2144    1.6786 C   0  0  0  0  0  0  0  0  0  0  0  0
   -5.4657    8.2546    2.0993 C   0  0  0  0  0  0  0  0  0  0  0  0
   -5.3345    7.2087    2.6916 O   0  0  0  0  0  0  0  0  0  0  0  0
   -6.7446    8.9458    1.8106 C   0  0  0  0  0  0  0  0  0  0  0  0
   -8.0308    8.4718    1.9606 C   0  0  0  0  0  0  0  0  0  0  0  0
   -9.0803    9.3195    1.6183 C   0  0  0  0  0  0  0  0  0  0  0  0
  -10.4833    8.7874    1.7143 C   0  0  0  0  0  0  0  0  0  0  0  0
  -11.4216    9.7360    1.6140 F   0  0  0  0  0  0  0  0  0  0  0  0
  -10.7081    8.1418    2.8690 F   0  0  0  0  0  0  0  0  0  0  0  0
  -10.7385    7.8960    0.7338 F   0  0  0  0  0  0  0  0  0  0  0  0
   -8.8412   10.6115    1.1639 C   0  0  0  0  0  0  0  0  0  0  0  0
   -7.5460   11.0934    1.0447 C   0  0  0  0  0  0  0  0  0  0  0  0
   -6.4872   10.2547    1.3653 C   0  0  0  0  0  0  0  0  0  0  0  0
   -5.0424   10.4708    1.3298 C   0  0  0  0  0  0  0  0  0  0  0  0
   -4.4174   11.6391    0.9811 C   0  0  0  0  0  0  0  0  0  0  0  0
   -5.0916   12.8232    0.6132 C   0  0  0  0  0  0  0  0  0  0  0  0
   -5.5802   13.8153    0.3060 N   0  0  0  0  0  0  0  0  0  0  0  0
   -3.0226   11.8385    0.9513 C   0  0  0  0  0  0  0  0  0  0  0  0
   -1.9030   12.0917    0.8988 N   0  0  0  0  0  0  0  0  0  0  0  0
    2.1399   -7.2904   -3.4103 H   0  0  0  0  0  0  0  0  0  0  0  0
    3.4944   -9.7170    2.2215 H   0  0  0  0  0  0  0  0  0  0  0  0
    3.4728  -13.5370    0.2641 H   0  0  0  0  0  0  0  0  0  0  0  0
    3.0679  -12.4682   -1.9087 H   0  0  0  0  0  0  0  0  0  0  0  0
    0.9790   -6.2669   -6.3503 H   0  0  0  0  0  0  0  0  0  0  0  0
   -0.1410   -8.3676   -6.8522 H   0  0  0  0  0  0  0  0  0  0  0  0
   -1.2559  -10.3182   -7.4632 H   0  0  0  0  0  0  0  0  0  0  0  0
   -1.1616  -11.8855   -6.6322 H   0  0  0  0  0  0  0  0  0  0  0  0
    0.1893  -10.7394   -6.4861 H   0  0  0  0  0  0  0  0  0  0  0  0
   -1.6675   -8.5177   -2.8591 H   0  0  0  0  0  0  0  0  0  0  0  0
   -0.5610   -6.3711   -2.3636 H   0  0  0  0  0  0  0  0  0  0  0  0
    3.0851   -3.4512   -4.5769 H   0  0  0  0  0  0  0  0  0  0  0  0
    3.1557   -1.6646   -6.2271 H   0  0  0  0  0  0  0  0  0  0  0  0
    2.6934    0.7983   -8.8726 H   0  0  0  0  0  0  0  0  0  0  0  0
    2.9152    0.4791   -7.1385 H   0  0  0  0  0  0  0  0  0  0  0  0
    3.4461   -0.7266   -8.3585 H   0  0  0  0  0  0  0  0  0  0  0  0
   -0.8861   -2.5226   -7.3330 H   0  0  0  0  0  0  0  0  0  0  0  0
   -0.9585   -4.3227   -5.6396 H   0  0  0  0  0  0  0  0  0  0  0  0
    0.8120   -3.4939    1.4560 H   0  0  0  0  0  0  0  0  0  0  0  0
    0.5081   -4.9170    3.4381 H   0  0  0  0  0  0  0  0  0  0  0  0
    4.3774   -6.1051    5.5436 H   0  0  0  0  0  0  0  0  0  0  0  0
    4.1379   -4.9060    6.8551 H   0  0  0  0  0  0  0  0  0  0  0  0
    3.6005   -6.5841    7.0707 H   0  0  0  0  0  0  0  0  0  0  0  0
    4.3583   -3.7207    4.8620 H   0  0  0  0  0  0  0  0  0  0  0  0
    4.6702   -2.3410    2.8840 H   0  0  0  0  0  0  0  0  0  0  0  0
    4.4696   -1.4501   -1.1141 H   0  0  0  0  0  0  0  0  0  0  0  0
    5.9602    0.4631   -1.3574 H   0  0  0  0  0  0  0  0  0  0  0  0
    6.9100    2.5043   -1.9648 H   0  0  0  0  0  0  0  0  0  0  0  0
    5.2467    3.0313   -1.5534 H   0  0  0  0  0  0  0  0  0  0  0  0
    6.6093    4.1650   -1.4185 H   0  0  0  0  0  0  0  0  0  0  0  0
    4.9050    1.7913    2.5614 H   0  0  0  0  0  0  0  0  0  0  0  0
    3.3847   -0.1349    2.8078 H   0  0  0  0  0  0  0  0  0  0  0  0
   -1.6763   -0.0455   -1.6966 H   0  0  0  0  0  0  0  0  0  0  0  0
   -2.5657   -1.3554   -3.5434 H   0  0  0  0  0  0  0  0  0  0  0  0
   -4.1546   -3.7838   -5.7647 H   0  0  0  0  0  0  0  0  0  0  0  0
   -2.9124   -2.5493   -5.4558 H   0  0  0  0  0  0  0  0  0  0  0  0
   -4.4466   -2.5431   -4.5254 H   0  0  0  0  0  0  0  0  0  0  0  0
   -2.0610   -4.9265   -1.2462 H   0  0  0  0  0  0  0  0  0  0  0  0
   -1.1399   -3.6115    0.6040 H   0  0  0  0  0  0  0  0  0  0  0  0
    0.9765   -0.3492    2.4904 H   0  0  0  0  0  0  0  0  0  0  0  0
    0.8392   -0.9559    4.8391 H   0  0  0  0  0  0  0  0  0  0  0  0
    0.6422   -1.2219    7.1317 H   0  0  0  0  0  0  0  0  0  0  0  0
    0.3905   -2.7553    7.9936 H   0  0  0  0  0  0  0  0  0  0  0  0
    1.1508   -2.7764    6.3873 H   0  0  0  0  0  0  0  0  0  0  0  0
   -2.9470   -2.8128    4.1395 H   0  0  0  0  0  0  0  0  0  0  0  0
   -2.8257   -2.1667    1.7700 H   0  0  0  0  0  0  0  0  0  0  0  0
    1.8656    7.3555    0.5885 H   0  0  0  0  0  0  0  0  0  0  0  0
    0.5010    9.2263   -0.1655 H   0  0  0  0  0  0  0  0  0  0  0  0
   -0.7910   11.1723   -0.8288 H   0  0  0  0  0  0  0  0  0  0  0  0
    0.0702   10.5059   -2.2590 H   0  0  0  0  0  0  0  0  0  0  0  0
   -1.3991   11.4888   -2.4643 H   0  0  0  0  0  0  0  0  0  0  0  0
   -1.9453    6.5504   -2.4275 H   0  0  0  0  0  0  0  0  0  0  0  0
   -0.5675    4.6571   -1.6690 H   0  0  0  0  0  0  0  0  0  0  0  0
    3.4704    6.0232   -0.9780 H   0  0  0  0  0  0  0  0  0  0  0  0
    5.6388    6.3864    0.0802 H   0  0  0  0  0  0  0  0  0  0  0  0
    8.7772    6.1621    1.9944 H   0  0  0  0  0  0  0  0  0  0  0  0
    7.8504    5.3993    0.6838 H   0  0  0  0  0  0  0  0  0  0  0  0
    7.5298    7.1048    1.1533 H   0  0  0  0  0  0  0  0  0  0  0  0
    4.3781    4.0864    3.4537 H   0  0  0  0  0  0  0  0  0  0  0  0
    2.1969    3.7133    2.3856 H   0  0  0  0  0  0  0  0  0  0  0  0
   -6.1779    5.7878   -2.1383 H   0  0  0  0  0  0  0  0  0  0  0  0
   -6.1830    7.2999   -1.2077 H   0  0  0  0  0  0  0  0  0  0  0  0
   -7.2016    6.0148    0.7297 H   0  0  0  0  0  0  0  0  0  0  0  0
   -7.3996    4.6287   -0.3387 H   0  0  0  0  0  0  0  0  0  0  0  0
   -8.2513    6.1330   -0.6877 H   0  0  0  0  0  0  0  0  0  0  0  0
   -5.0252    3.8289   -2.3616 H   0  0  0  0  0  0  0  0  0  0  0  0
   -5.7832    3.1633   -0.9198 H   0  0  0  0  0  0  0  0  0  0  0  0
   -4.3551    1.4648   -2.0350 H   0  0  0  0  0  0  0  0  0  0  0  0
   -3.7279    1.8471   -0.4254 H   0  0  0  0  0  0  0  0  0  0  0  0
   -2.9465    2.5210   -1.8513 H   0  0  0  0  0  0  0  0  0  0  0  0
   -2.3525    9.7334    1.6060 H   0  0  0  0  0  0  0  0  0  0  0  0
   -8.2162    7.4763    2.3340 H   0  0  0  0  0  0  0  0  0  0  0  0
   -9.6739   11.2489    0.9089 H   0  0  0  0  0  0  0  0  0  0  0  0
   -7.3855   12.1028    0.7041 H   0  0  0  0  0  0  0  0  0  0  0  0
  1  2  2  0  0  0  0
  2  3  1  0  0  0  0
  3  4  2  0  0  0  0
  3  5  1  0  0  0  0
  5  6  2  0  0  0  0
  6  7  1  0  0  0  0
  7  8  1  0  0  0  0
  8  9  1  0  0  0  0
  8 10  1  0  0  0  0
  8 11  1  0  0  0  0
  7 12  2  0  0  0  0
 12 13  1  0  0  0  0
 13 14  2  0  0  0  0
 14 15  1  0  0  0  0
 15 16  2  0  0  0  0
 16 17  1  0  0  0  0
 17 18  3  0  0  0  0
 16 19  1  0  0  0  0
 19 20  3  0  0  0  0
  1 21  1  0  0  0  0
 21 22  2  0  0  0  0
 22 23  1  0  0  0  0
 23 24  1  0  0  0  0
 24 25  2  0  0  0  0
 25 26  1  0  0  0  0
 26 27  2  0  0  0  0
 27 28  1  0  0  0  0
 28 29  1  0  0  0  0
 27 30  1  0  0  0  0
 30 31  2  0  0  0  0
 23 32  1  0  0  0  0
 32 33  2  0  0  0  0
 33 34  1  0  0  0  0
 34 35  2  0  0  0  0
 35 36  1  0  0  0  0
 36 37  1  0  0  0  0
 35 38  1  0  0  0  0
 38 39  2  0  0  0  0
 22 40  1  0  0  0  0
 40 41  1  0  0  0  0
 41 42  1  0  0  0  0
 42 43  2  0  0  0  0
 43 44  1  0  0  0  0
 44 45  1  0  0  0  0
 45 46  2  0  0  0  0
 46 47  1  0  0  0  0
 47 48  2  0  0  0  0
 48 49  1  0  0  0  0
 49 50  1  0  0  0  0
 48 51  1  0  0  0  0
 51 52  2  0  0  0  0
 44 53  1  0  0  0  0
 53 54  2  0  0  0  0
 54 55  1  0  0  0  0
 55 56  2  0  0  0  0
 56 57  1  0  0  0  0
 57 58  1  0  0  0  0
 56 59  1  0  0  0  0
 59 60  2  0  0  0  0
 43 61  1  0  0  0  0
 61 62  1  0  0  0  0
 42 63  1  0  0  0  0
 63 64  2  0  0  0  0
 64 65  1  0  0  0  0
 65 66  1  0  0  0  0
 66 67  2  0  0  0  0
 67 68  1  0  0  0  0
 68 69  2  0  0  0  0
 69 70  1  0  0  0  0
 70 71  1  0  0  0  0
 69 72  1  0  0  0  0
 72 73  2  0  0  0  0
 65 74  1  0  0  0  0
 74 75  2  0  0  0  0
 75 76  1  0  0  0  0
 76 77  2  0  0  0  0
 77 78  1  0  0  0  0
 78 79  1  0  0  0  0
 77 80  1  0  0  0  0
 80 81  2  0  0  0  0
 64 82  1  0  0  0  0
 82 83  1  0  0  0  0
 83 84  1  0  0  0  0
 84 85  2  0  0  0  0
 85 86  1  0  0  0  0
 86 87  1  0  0  0  0
 87 88  2  0  0  0  0
 88 89  1  0  0  0  0
 89 90  2  0  0  0  0
 90 91  1  0  0  0  0
 91 92  1  0  0  0  0
 90 93  1  0  0  0  0
 93 94  2  0  0  0  0
 86 95  1  0  0  0  0
 95 96  2  0  0  0  0
 96 97  1  0  0  0  0
 97 98  2  0  0  0  0
 98 99  1  0  0  0  0
 99100  1  0  0  0  0
 98101  1  0  0  0  0
101102  2  0  0  0  0
 85103  1  0  0  0  0
103104  1  0  0  0  0
 84105  1  0  0  0  0
105106  2  0  0  0  0
106107  1  0  0  0  0
106108  1  0  0  0  0
108109  1  0  0  0  0
108110  2  0  0  0  0
110111  1  0  0  0  0
111112  2  0  0  0  0
112113  1  0  0  0  0
113114  1  0  0  0  0
114115  1  0  0  0  0
113116  2  0  0  0  0
116117  1  0  0  0  0
117118  2  0  0  0  0
116119  1  0  0  0  0
119120  1  0  0  0  0
110121  1  0  0  0  0
121122  2  0  0  0  0
122123  1  0  0  0  0
123124  2  0  0  0  0
123125  1  0  0  0  0
125126  2  0  0  0  0
126127  1  0  0  0  0
127128  1  0  0  0  0
128129  1  0  0  0  0
128130  1  0  0  0  0
128131  1  0  0  0  0
127132  2  0  0  0  0
132133  1  0  0  0  0
133134  2  0  0  0  0
134135  1  0  0  0  0
135136  2  0  0  0  0
136137  1  0  0  0  0
137138  3  0  0  0  0
136139  1  0  0  0  0
139140  3  0  0  0  0
 15  2  1  0  0  0  0
 62 21  1  0  0  0  0
104 63  1  0  0  0  0
118105  1  0  0  0  0
135122  1  0  0  0  0
 14  5  1  0  0  0  0
 31 24  1  0  0  0  0
 39 32  1  0  0  0  0
 61 40  2  0  0  0  0
 73 66  1  0  0  0  0
 81 74  1  0  0  0  0
103 82  2  0  0  0  0
118111  1  0  0  0  0
134125  1  0  0  0  0
 52 45  1  0  0  0  0
 60 53  1  0  0  0  0
 94 87  1  0  0  0  0
102 95  1  0  0  0  0
  1141  1  0  0  0  0
  6142  1  0  0  0  0
 12143  1  0  0  0  0
 13144  1  0  0  0  0
 25145  1  0  0  0  0
 26146  1  0  0  0  0
 29147  1  0  0  0  0
 29148  1  0  0  0  0
 29149  1  0  0  0  0
 30150  1  0  0  0  0
 31151  1  0  0  0  0
 33152  1  0  0  0  0
 34153  1  0  0  0  0
 37154  1  0  0  0  0
 37155  1  0  0  0  0
 37156  1  0  0  0  0
 38157  1  0  0  0  0
 39158  1  0  0  0  0
 46159  1  0  0  0  0
 47160  1  0  0  0  0
 50161  1  0  0  0  0
 50162  1  0  0  0  0
 50163  1  0  0  0  0
 51164  1  0  0  0  0
 52165  1  0  0  0  0
 54166  1  0  0  0  0
 55167  1  0  0  0  0
 58168  1  0  0  0  0
 58169  1  0  0  0  0
 58170  1  0  0  0  0
 59171  1  0  0  0  0
 60172  1  0  0  0  0
 67173  1  0  0  0  0
 68174  1  0  0  0  0
 71175  1  0  0  0  0
 71176  1  0  0  0  0
 71177  1  0  0  0  0
 72178  1  0  0  0  0
 73179  1  0  0  0  0
 75180  1  0  0  0  0
 76181  1  0  0  0  0
 79182  1  0  0  0  0
 79183  1  0  0  0  0
 79184  1  0  0  0  0
 80185  1  0  0  0  0
 81186  1  0  0  0  0
 88187  1  0  0  0  0
 89188  1  0  0  0  0
 92189  1  0  0  0  0
 92190  1  0  0  0  0
 92191  1  0  0  0  0
 93192  1  0  0  0  0
 94193  1  0  0  0  0
 96194  1  0  0  0  0
 97195  1  0  0  0  0
100196  1  0  0  0  0
100197  1  0  0  0  0
100198  1  0  0  0  0
101199  1  0  0  0  0
102200  1  0  0  0  0
114201  1  0  0  0  0
114202  1  0  0  0  0
115203  1  0  0  0  0
115204  1  0  0  0  0
115205  1  0  0  0  0
119206  1  0  0  0  0
119207  1  0  0  0  0
120208  1  0  0  0  0
120209  1  0  0  0  0
120210  1  0  0  0  0
121211  1  0  0  0  0
126212  1  0  0  0  0
132213  1  0  0  0  0
133214  1  0  0  0  0
M  END
