
  xtb     02152222423D
 energy: -309.250222934653 gnorm: 0.000739275728 xtb: 6.4.1 (unknown)
170184  0     0  0            999 V2000
   -2.5236    0.3735    7.4262 C   0  0  0  0  0  0  0  0  0  0  0  0
   -1.7102   -0.2092    8.3690 C   0  0  0  0  0  0  0  0  0  0  0  0
   -2.3249   -0.7872    9.5810 C   0  0  0  0  0  0  0  0  0  0  0  0
   -3.4392   -0.5843   10.0113 O   0  0  0  0  0  0  0  0  0  0  0  0
   -1.3001   -1.7197   10.1181 C   0  0  0  0  0  0  0  0  0  0  0  0
   -1.4024   -2.6173   11.1593 C   0  0  0  0  0  0  0  0  0  0  0  0
   -0.2994   -3.4250   11.4261 C   0  0  0  0  0  0  0  0  0  0  0  0
   -0.3523   -4.3977   12.5709 C   0  0  0  0  0  0  0  0  0  0  0  0
   -1.5980   -4.7959   12.8619 F   0  0  0  0  0  0  0  0  0  0  0  0
    0.3611   -5.5111   12.3397 F   0  0  0  0  0  0  0  0  0  0  0  0
    0.1466   -3.8656   13.7049 F   0  0  0  0  0  0  0  0  0  0  0  0
    0.8652   -3.3294   10.6725 C   0  0  0  0  0  0  0  0  0  0  0  0
    0.9664   -2.4143    9.6341 C   0  0  0  0  0  0  0  0  0  0  0  0
   -0.1209   -1.6031    9.3599 C   0  0  0  0  0  0  0  0  0  0  0  0
   -0.3119   -0.5410    8.3710 C   0  0  0  0  0  0  0  0  0  0  0  0
    0.6985    0.1878    7.7885 C   0  0  0  0  0  0  0  0  0  0  0  0
    0.4628    1.4229    7.1487 C   0  0  0  0  0  0  0  0  0  0  0  0
    0.3022    2.4634    6.6893 N   0  0  0  0  0  0  0  0  0  0  0  0
    2.0557   -0.1621    7.8443 C   0  0  0  0  0  0  0  0  0  0  0  0
    3.1766   -0.4178    7.8325 N   0  0  0  0  0  0  0  0  0  0  0  0
   -2.2909    0.5373    6.0589 C   0  0  0  0  0  0  0  0  0  0  0  0
   -3.0751    1.2470    5.1245 C   0  0  0  0  0  0  0  0  0  0  0  0
   -4.2310    1.9204    5.4012 N   0  0  0  0  0  0  0  0  0  0  0  0
   -5.1700    1.4049    6.3122 C   0  0  0  0  0  0  0  0  0  0  0  0
   -5.7795    2.2356    7.2467 C   0  0  0  0  0  0  0  0  0  0  0  0
   -6.6840    1.7208    8.1546 C   0  0  0  0  0  0  0  0  0  0  0  0
   -6.9941    0.3659    8.1392 C   0  0  0  0  0  0  0  0  0  0  0  0
   -8.1261   -0.3963    9.2488 S   0  0  0  0  0  0  0  0  0  0  0  0
   -8.3253    0.8354   10.5672 C   0  0  0  0  0  0  0  0  0  0  0  0
   -6.4042   -0.4620    7.1834 C   0  0  0  0  0  0  0  0  0  0  0  0
   -5.5034    0.0495    6.2787 C   0  0  0  0  0  0  0  0  0  0  0  0
   -4.5055    3.1252    4.7327 C   0  0  0  0  0  0  0  0  0  0  0  0
   -3.4793    4.0402    4.4899 C   0  0  0  0  0  0  0  0  0  0  0  0
   -3.7478    5.2172    3.8314 C   0  0  0  0  0  0  0  0  0  0  0  0
   -5.0444    5.5142    3.4096 C   0  0  0  0  0  0  0  0  0  0  0  0
   -5.2604    7.0539    2.5848 S   0  0  0  0  0  0  0  0  0  0  0  0
   -7.0169    7.0687    2.1262 C   0  0  0  0  0  0  0  0  0  0  0  0
   -6.0692    4.6118    3.6666 C   0  0  0  0  0  0  0  0  0  0  0  0
   -5.7992    3.4257    4.3207 C   0  0  0  0  0  0  0  0  0  0  0  0
   -2.4853    1.2087    3.8396 C   0  0  0  0  0  0  0  0  0  0  0  0
   -2.9206    1.8539    2.2961 S   0  0  0  0  0  0  0  0  0  0  0  0
   -1.5191    1.0996    1.5659 C   0  0  0  0  0  0  0  0  0  0  0  0
   -0.7135    0.4412    2.4877 C   0  0  0  0  0  0  0  0  0  0  0  0
    0.5507   -0.0587    2.2579 N   0  0  0  0  0  0  0  0  0  0  0  0
    1.3853    0.4623    1.2622 C   0  0  0  0  0  0  0  0  0  0  0  0
    2.2293   -0.3915    0.5514 C   0  0  0  0  0  0  0  0  0  0  0  0
    2.9910    0.0893   -0.4903 C   0  0  0  0  0  0  0  0  0  0  0  0
    2.9358    1.4356   -0.8417 C   0  0  0  0  0  0  0  0  0  0  0  0
    3.9184    1.9517   -2.2169 S   0  0  0  0  0  0  0  0  0  0  0  0
    3.2098    3.5582   -2.6704 C   0  0  0  0  0  0  0  0  0  0  0  0
    2.1506    2.3030   -0.0949 C   0  0  0  0  0  0  0  0  0  0  0  0
    1.3891    1.8205    0.9504 C   0  0  0  0  0  0  0  0  0  0  0  0
    1.0710   -1.0125    3.1534 C   0  0  0  0  0  0  0  0  0  0  0  0
    0.3272   -2.1396    3.5010 C   0  0  0  0  0  0  0  0  0  0  0  0
    0.8073   -3.0179    4.4488 C   0  0  0  0  0  0  0  0  0  0  0  0
    2.0350   -2.7886    5.0673 C   0  0  0  0  0  0  0  0  0  0  0  0
    2.5051   -3.9281    6.3268 S   0  0  0  0  0  0  0  0  0  0  0  0
    4.1484   -3.3603    6.8496 C   0  0  0  0  0  0  0  0  0  0  0  0
    2.8005   -1.6933    4.6847 C   0  0  0  0  0  0  0  0  0  0  0  0
    2.3201   -0.8153    3.7341 C   0  0  0  0  0  0  0  0  0  0  0  0
   -1.3136    0.4702    3.7691 C   0  0  0  0  0  0  0  0  0  0  0  0
   -0.9081   -0.2380    5.2854 S   0  0  0  0  0  0  0  0  0  0  0  0
   -1.2651    1.2156    0.1507 C   0  0  0  0  0  0  0  0  0  0  0  0
   -1.4015    2.3935   -0.5541 C   0  0  0  0  0  0  0  0  0  0  0  0
   -1.8650    3.4968    0.0593 F   0  0  0  0  0  0  0  0  0  0  0  0
   -0.9837    2.5152   -1.8865 C   0  0  0  0  0  0  0  0  0  0  0  0
   -1.0851    3.7405   -2.4383 F   0  0  0  0  0  0  0  0  0  0  0  0
   -0.3918    1.4805   -2.5833 C   0  0  0  0  0  0  0  0  0  0  0  0
   -0.2837    0.2383   -1.8966 C   0  0  0  0  0  0  0  0  0  0  0  0
    0.3035   -0.8135   -2.4913 N   0  0  0  0  0  0  0  0  0  0  0  0
    0.3618   -1.9666   -1.8751 C   0  0  0  0  0  0  0  0  0  0  0  0
    1.0931   -3.0564   -2.5992 C   0  0  0  0  0  0  0  0  0  0  0  0
    0.1402   -3.8255   -3.5174 C   0  0  0  0  0  0  0  0  0  0  0  0
   -0.2812   -2.1462   -0.6174 C   0  0  0  0  0  0  0  0  0  0  0  0
   -0.7993   -1.1166    0.0044 N   0  0  0  0  0  0  0  0  0  0  0  0
   -0.7715    0.0930   -0.5742 C   0  0  0  0  0  0  0  0  0  0  0  0
   -0.4115   -3.4719    0.0742 C   0  0  0  0  0  0  0  0  0  0  0  0
   -1.8420   -3.7016    0.5585 C   0  0  0  0  0  0  0  0  0  0  0  0
    0.1280    1.6550   -3.9432 C   0  0  0  0  0  0  0  0  0  0  0  0
    1.3449    1.0785   -4.2878 C   0  0  0  0  0  0  0  0  0  0  0  0
    1.8335    1.2896   -5.5660 C   0  0  0  0  0  0  0  0  0  0  0  0
    3.0095    0.8581   -6.1263 N   0  0  0  0  0  0  0  0  0  0  0  0
    3.9278   -0.0655   -5.5129 C   0  0  0  0  0  0  0  0  0  0  0  0
    3.4861   -1.5084   -5.7501 C   0  0  0  0  0  0  0  0  0  0  0  0
    3.0527    1.2870   -7.4261 C   0  0  0  0  0  0  0  0  0  0  0  0
    1.8883    2.0526   -7.7103 C   0  0  0  0  0  0  0  0  0  0  0  0
    1.1102    2.0570   -6.5137 C   0  0  0  0  0  0  0  0  0  0  0  0
   -0.1171    2.6104   -6.1599 C   0  0  0  0  0  0  0  0  0  0  0  0
   -0.5938    2.4099   -4.8853 C   0  0  0  0  0  0  0  0  0  0  0  0
    1.7099    2.6032   -8.9758 C   0  0  0  0  0  0  0  0  0  0  0  0
    2.6497    2.3533   -9.9459 C   0  0  0  0  0  0  0  0  0  0  0  0
    3.8025    1.5886   -9.6716 C   0  0  0  0  0  0  0  0  0  0  0  0
    4.0245    1.0857   -8.3890 C   0  0  0  0  0  0  0  0  0  0  0  0
    4.7770    1.3372  -10.6997 C   0  0  0  0  0  0  0  0  0  0  0  0
    4.5506    1.1621  -12.0247 C   0  0  0  0  0  0  0  0  0  0  0  0
    5.6551    1.3097  -13.0092 C   0  0  0  0  0  0  0  0  0  0  0  0
    6.8390    1.3570  -12.7771 O   0  0  0  0  0  0  0  0  0  0  0  0
    4.9798    1.4422  -14.3227 C   0  0  0  0  0  0  0  0  0  0  0  0
    5.5358    1.7230  -15.5544 C   0  0  0  0  0  0  0  0  0  0  0  0
    4.6755    1.8217  -16.6430 C   0  0  0  0  0  0  0  0  0  0  0  0
    5.2313    2.1586  -18.0002 C   0  0  0  0  0  0  0  0  0  0  0  0
    6.4997    1.7590  -18.1561 F   0  0  0  0  0  0  0  0  0  0  0  0
    4.5271    1.6064  -18.9992 F   0  0  0  0  0  0  0  0  0  0  0  0
    5.2220    3.4875  -18.2247 F   0  0  0  0  0  0  0  0  0  0  0  0
    3.3016    1.6573  -16.4950 C   0  0  0  0  0  0  0  0  0  0  0  0
    2.7491    1.3679  -15.2563 C   0  0  0  0  0  0  0  0  0  0  0  0
    3.5946    1.2548  -14.1633 C   0  0  0  0  0  0  0  0  0  0  0  0
    3.3241    0.9270  -12.7635 C   0  0  0  0  0  0  0  0  0  0  0  0
    2.2143    0.2747  -12.3008 C   0  0  0  0  0  0  0  0  0  0  0  0
    1.0765    0.0049  -13.0892 C   0  0  0  0  0  0  0  0  0  0  0  0
    0.1229   -0.2169  -13.6879 N   0  0  0  0  0  0  0  0  0  0  0  0
    2.1231   -0.2909  -11.0098 C   0  0  0  0  0  0  0  0  0  0  0  0
    2.0267   -0.8410  -10.0075 N   0  0  0  0  0  0  0  0  0  0  0  0
   -3.5060    0.6433    7.7959 H   0  0  0  0  0  0  0  0  0  0  0  0
   -2.3100   -2.6919   11.7380 H   0  0  0  0  0  0  0  0  0  0  0  0
    1.6967   -3.9800   10.8966 H   0  0  0  0  0  0  0  0  0  0  0  0
    1.8706   -2.3608    9.0511 H   0  0  0  0  0  0  0  0  0  0  0  0
   -5.5298    3.2860    7.2679 H   0  0  0  0  0  0  0  0  0  0  0  0
   -7.1344    2.3851    8.8738 H   0  0  0  0  0  0  0  0  0  0  0  0
   -7.3471    1.1282   10.9362 H   0  0  0  0  0  0  0  0  0  0  0  0
   -8.8888    1.6912   10.2063 H   0  0  0  0  0  0  0  0  0  0  0  0
   -8.8833    0.3356   11.3529 H   0  0  0  0  0  0  0  0  0  0  0  0
   -6.6616   -1.5094    7.1663 H   0  0  0  0  0  0  0  0  0  0  0  0
   -5.0408   -0.5944    5.5455 H   0  0  0  0  0  0  0  0  0  0  0  0
   -2.4779    3.8262    4.8327 H   0  0  0  0  0  0  0  0  0  0  0  0
   -2.9589    5.9274    3.6402 H   0  0  0  0  0  0  0  0  0  0  0  0
   -7.2375    6.2259    1.4780 H   0  0  0  0  0  0  0  0  0  0  0  0
   -7.6371    7.0577    3.0177 H   0  0  0  0  0  0  0  0  0  0  0  0
   -7.1680    7.9981    1.5858 H   0  0  0  0  0  0  0  0  0  0  0  0
   -7.0816    4.8146    3.3575 H   0  0  0  0  0  0  0  0  0  0  0  0
   -6.5969    2.7224    4.5089 H   0  0  0  0  0  0  0  0  0  0  0  0
    2.2656   -1.4392    0.8112 H   0  0  0  0  0  0  0  0  0  0  0  0
    3.6285   -0.5770   -1.0514 H   0  0  0  0  0  0  0  0  0  0  0  0
    3.4787    4.3100   -1.9340 H   0  0  0  0  0  0  0  0  0  0  0  0
    2.1325    3.4662   -2.7705 H   0  0  0  0  0  0  0  0  0  0  0  0
    3.6479    3.8131   -3.6305 H   0  0  0  0  0  0  0  0  0  0  0  0
    2.1291    3.3588   -0.3114 H   0  0  0  0  0  0  0  0  0  0  0  0
    0.7968    2.5071    1.5362 H   0  0  0  0  0  0  0  0  0  0  0  0
   -0.6305   -2.3078    3.0332 H   0  0  0  0  0  0  0  0  0  0  0  0
    0.2299   -3.8840    4.7336 H   0  0  0  0  0  0  0  0  0  0  0  0
    4.0823   -2.3484    7.2420 H   0  0  0  0  0  0  0  0  0  0  0  0
    4.4561   -4.0459    7.6332 H   0  0  0  0  0  0  0  0  0  0  0  0
    4.8406   -3.4206    6.0151 H   0  0  0  0  0  0  0  0  0  0  0  0
    3.7567   -1.4957    5.1392 H   0  0  0  0  0  0  0  0  0  0  0  0
    2.9061    0.0481    3.4555 H   0  0  0  0  0  0  0  0  0  0  0  0
    1.5671   -3.7353   -1.8895 H   0  0  0  0  0  0  0  0  0  0  0  0
    1.8691   -2.5909   -3.2078 H   0  0  0  0  0  0  0  0  0  0  0  0
   -0.3092   -3.1443   -4.2357 H   0  0  0  0  0  0  0  0  0  0  0  0
    0.6829   -4.5958   -4.0593 H   0  0  0  0  0  0  0  0  0  0  0  0
   -0.6564   -4.2980   -2.9470 H   0  0  0  0  0  0  0  0  0  0  0  0
   -0.1102   -4.2837   -0.5855 H   0  0  0  0  0  0  0  0  0  0  0  0
    0.2599   -3.4678    0.9384 H   0  0  0  0  0  0  0  0  0  0  0  0
   -1.8986   -4.6119    1.1499 H   0  0  0  0  0  0  0  0  0  0  0  0
   -2.1688   -2.8608    1.1639 H   0  0  0  0  0  0  0  0  0  0  0  0
   -2.5184   -3.7943   -0.2884 H   0  0  0  0  0  0  0  0  0  0  0  0
    1.8876    0.4961   -3.5644 H   0  0  0  0  0  0  0  0  0  0  0  0
    4.9222    0.1018   -5.9331 H   0  0  0  0  0  0  0  0  0  0  0  0
    3.9726    0.1520   -4.4427 H   0  0  0  0  0  0  0  0  0  0  0  0
    3.4431   -1.7187   -6.8163 H   0  0  0  0  0  0  0  0  0  0  0  0
    2.4950   -1.6661   -5.3312 H   0  0  0  0  0  0  0  0  0  0  0  0
    4.1838   -2.1979   -5.2823 H   0  0  0  0  0  0  0  0  0  0  0  0
   -0.6850    3.1856   -6.8747 H   0  0  0  0  0  0  0  0  0  0  0  0
   -1.5512    2.8224   -4.6089 H   0  0  0  0  0  0  0  0  0  0  0  0
    0.8412    3.2061   -9.1919 H   0  0  0  0  0  0  0  0  0  0  0  0
    2.5334    2.7827  -10.9304 H   0  0  0  0  0  0  0  0  0  0  0  0
    4.9098    0.5012   -8.1913 H   0  0  0  0  0  0  0  0  0  0  0  0
    5.8199    1.3392  -10.3989 H   0  0  0  0  0  0  0  0  0  0  0  0
    6.6016    1.8543  -15.6612 H   0  0  0  0  0  0  0  0  0  0  0  0
    2.6606    1.7505  -17.3584 H   0  0  0  0  0  0  0  0  0  0  0  0
    1.6825    1.2466  -15.1596 H   0  0  0  0  0  0  0  0  0  0  0  0
  1  2  2  0  0  0  0
  2  3  1  0  0  0  0
  3  4  2  0  0  0  0
  3  5  1  0  0  0  0
  5  6  2  0  0  0  0
  6  7  1  0  0  0  0
  7  8  1  0  0  0  0
  8  9  1  0  0  0  0
  8 10  1  0  0  0  0
  8 11  1  0  0  0  0
  7 12  2  0  0  0  0
 12 13  1  0  0  0  0
 13 14  2  0  0  0  0
 14 15  1  0  0  0  0
 15 16  2  0  0  0  0
 16 17  1  0  0  0  0
 17 18  3  0  0  0  0
 16 19  1  0  0  0  0
 19 20  3  0  0  0  0
  1 21  1  0  0  0  0
 21 22  2  0  0  0  0
 22 23  1  0  0  0  0
 23 24  1  0  0  0  0
 24 25  2  0  0  0  0
 25 26  1  0  0  0  0
 26 27  2  0  0  0  0
 27 28  1  0  0  0  0
 28 29  1  0  0  0  0
 27 30  1  0  0  0  0
 30 31  2  0  0  0  0
 23 32  1  0  0  0  0
 32 33  2  0  0  0  0
 33 34  1  0  0  0  0
 34 35  2  0  0  0  0
 35 36  1  0  0  0  0
 36 37  1  0  0  0  0
 35 38  1  0  0  0  0
 38 39  2  0  0  0  0
 22 40  1  0  0  0  0
 40 41  1  0  0  0  0
 41 42  1  0  0  0  0
 42 43  2  0  0  0  0
 43 44  1  0  0  0  0
 44 45  1  0  0  0  0
 45 46  2  0  0  0  0
 46 47  1  0  0  0  0
 47 48  2  0  0  0  0
 48 49  1  0  0  0  0
 49 50  1  0  0  0  0
 48 51  1  0  0  0  0
 51 52  2  0  0  0  0
 44 53  1  0  0  0  0
 53 54  2  0  0  0  0
 54 55  1  0  0  0  0
 55 56  2  0  0  0  0
 56 57  1  0  0  0  0
 57 58  1  0  0  0  0
 56 59  1  0  0  0  0
 59 60  2  0  0  0  0
 43 61  1  0  0  0  0
 61 62  1  0  0  0  0
 42 63  1  0  0  0  0
 63 64  2  0  0  0  0
 64 65  1  0  0  0  0
 64 66  1  0  0  0  0
 66 67  1  0  0  0  0
 66 68  2  0  0  0  0
 68 69  1  0  0  0  0
 69 70  2  0  0  0  0
 70 71  1  0  0  0  0
 71 72  1  0  0  0  0
 72 73  1  0  0  0  0
 71 74  2  0  0  0  0
 74 75  1  0  0  0  0
 75 76  2  0  0  0  0
 74 77  1  0  0  0  0
 77 78  1  0  0  0  0
 68 79  1  0  0  0  0
 79 80  2  0  0  0  0
 80 81  1  0  0  0  0
 81 82  1  0  0  0  0
 82 83  1  0  0  0  0
 83 84  1  0  0  0  0
 82 85  1  0  0  0  0
 85 86  2  0  0  0  0
 86 87  1  0  0  0  0
 87 88  1  0  0  0  0
 88 89  2  0  0  0  0
 86 90  1  0  0  0  0
 90 91  2  0  0  0  0
 91 92  1  0  0  0  0
 92 93  2  0  0  0  0
 92 94  1  0  0  0  0
 94 95  2  0  0  0  0
 95 96  1  0  0  0  0
 96 97  2  0  0  0  0
 96 98  1  0  0  0  0
 98 99  2  0  0  0  0
 99100  1  0  0  0  0
100101  1  0  0  0  0
101102  1  0  0  0  0
101103  1  0  0  0  0
101104  1  0  0  0  0
100105  2  0  0  0  0
105106  1  0  0  0  0
106107  2  0  0  0  0
107108  1  0  0  0  0
108109  2  0  0  0  0
109110  1  0  0  0  0
110111  3  0  0  0  0
109112  1  0  0  0  0
112113  3  0  0  0  0
 15  2  1  0  0  0  0
 62 21  1  0  0  0  0
 76 63  1  0  0  0  0
 89 79  1  0  0  0  0
108 95  1  0  0  0  0
 14  5  1  0  0  0  0
 31 24  1  0  0  0  0
 39 32  1  0  0  0  0
 61 40  2  0  0  0  0
 76 69  1  0  0  0  0
 87 81  2  0  0  0  0
107 98  1  0  0  0  0
 52 45  1  0  0  0  0
 60 53  1  0  0  0  0
 93 85  1  0  0  0  0
  1114  1  0  0  0  0
  6115  1  0  0  0  0
 12116  1  0  0  0  0
 13117  1  0  0  0  0
 25118  1  0  0  0  0
 26119  1  0  0  0  0
 29120  1  0  0  0  0
 29121  1  0  0  0  0
 29122  1  0  0  0  0
 30123  1  0  0  0  0
 31124  1  0  0  0  0
 33125  1  0  0  0  0
 34126  1  0  0  0  0
 37127  1  0  0  0  0
 37128  1  0  0  0  0
 37129  1  0  0  0  0
 38130  1  0  0  0  0
 39131  1  0  0  0  0
 46132  1  0  0  0  0
 47133  1  0  0  0  0
 50134  1  0  0  0  0
 50135  1  0  0  0  0
 50136  1  0  0  0  0
 51137  1  0  0  0  0
 52138  1  0  0  0  0
 54139  1  0  0  0  0
 55140  1  0  0  0  0
 58141  1  0  0  0  0
 58142  1  0  0  0  0
 58143  1  0  0  0  0
 59144  1  0  0  0  0
 60145  1  0  0  0  0
 72146  1  0  0  0  0
 72147  1  0  0  0  0
 73148  1  0  0  0  0
 73149  1  0  0  0  0
 73150  1  0  0  0  0
 77151  1  0  0  0  0
 77152  1  0  0  0  0
 78153  1  0  0  0  0
 78154  1  0  0  0  0
 78155  1  0  0  0  0
 80156  1  0  0  0  0
 83157  1  0  0  0  0
 83158  1  0  0  0  0
 84159  1  0  0  0  0
 84160  1  0  0  0  0
 84161  1  0  0  0  0
 88162  1  0  0  0  0
 89163  1  0  0  0  0
 90164  1  0  0  0  0
 91165  1  0  0  0  0
 93166  1  0  0  0  0
 94167  1  0  0  0  0
 99168  1  0  0  0  0
105169  1  0  0  0  0
106170  1  0  0  0  0
M  END
