
  xtb     02052214203D
 energy: -449.446468791539 gnorm: 0.000352781473 xtb: 6.4.1 (unknown)
258279  0     0  0            999 V2000
   -8.0426    1.1848   -4.5519 C   0  0  0  0  0  0  0  0  0  0  0  0
   -9.1865    1.5921   -3.8841 C   0  0  0  0  0  0  0  0  0  0  0  0
   -9.1755    2.4820   -2.7206 C   0  0  0  0  0  0  0  0  0  0  0  0
   -8.2105    2.9799   -2.1703 O   0  0  0  0  0  0  0  0  0  0  0  0
  -10.6058    2.7658   -2.4338 C   0  0  0  0  0  0  0  0  0  0  0  0
  -11.1504    3.5142   -1.4137 C   0  0  0  0  0  0  0  0  0  0  0  0
  -12.5393    3.5883   -1.3392 C   0  0  0  0  0  0  0  0  0  0  0  0
  -13.1858    4.3064   -0.1895 C   0  0  0  0  0  0  0  0  0  0  0  0
  -14.3396    4.9020   -0.5227 F   0  0  0  0  0  0  0  0  0  0  0  0
  -12.4064    5.2480    0.3543 F   0  0  0  0  0  0  0  0  0  0  0  0
  -13.4882    3.4456    0.8108 F   0  0  0  0  0  0  0  0  0  0  0  0
  -13.3470    2.9469   -2.2713 C   0  0  0  0  0  0  0  0  0  0  0  0
  -12.7893    2.2046   -3.3039 C   0  0  0  0  0  0  0  0  0  0  0  0
  -11.4105    2.1058   -3.3775 C   0  0  0  0  0  0  0  0  0  0  0  0
  -10.5397    1.3549   -4.2839 C   0  0  0  0  0  0  0  0  0  0  0  0
  -10.9570    0.4454   -5.2278 C   0  0  0  0  0  0  0  0  0  0  0  0
  -10.0792   -0.4023   -5.9272 C   0  0  0  0  0  0  0  0  0  0  0  0
   -9.4183   -1.1492   -6.4994 N   0  0  0  0  0  0  0  0  0  0  0  0
  -12.3038    0.2109   -5.5617 C   0  0  0  0  0  0  0  0  0  0  0  0
  -13.3844   -0.0055   -5.8849 N   0  0  0  0  0  0  0  0  0  0  0  0
   -6.7779    1.0316   -3.9986 C   0  0  0  0  0  0  0  0  0  0  0  0
   -6.3368    0.8313   -2.6713 C   0  0  0  0  0  0  0  0  0  0  0  0
   -7.0970    0.6221   -1.5598 N   0  0  0  0  0  0  0  0  0  0  0  0
   -6.5280    0.9272   -0.3021 C   0  0  0  0  0  0  0  0  0  0  0  0
   -6.5370   -0.0176    0.7168 C   0  0  0  0  0  0  0  0  0  0  0  0
   -5.9543    0.2666    1.9371 C   0  0  0  0  0  0  0  0  0  0  0  0
   -5.3587    1.5038    2.1507 C   0  0  0  0  0  0  0  0  0  0  0  0
   -4.5598    1.9743    3.6473 S   0  0  0  0  0  0  0  0  0  0  0  0
   -4.6683    0.4953    4.6946 C   0  0  0  0  0  0  0  0  0  0  0  0
   -5.3801    2.4629    1.1371 C   0  0  0  0  0  0  0  0  0  0  0  0
   -5.9586    2.1803   -0.0787 C   0  0  0  0  0  0  0  0  0  0  0  0
   -8.3926    0.0984   -1.5781 C   0  0  0  0  0  0  0  0  0  0  0  0
   -9.3341    0.5592   -0.6579 C   0  0  0  0  0  0  0  0  0  0  0  0
  -10.6388    0.1085   -0.6928 C   0  0  0  0  0  0  0  0  0  0  0  0
  -11.0288   -0.8171   -1.6529 C   0  0  0  0  0  0  0  0  0  0  0  0
  -12.6795   -1.3800   -1.8744 S   0  0  0  0  0  0  0  0  0  0  0  0
  -13.6272   -0.4815   -0.6142 C   0  0  0  0  0  0  0  0  0  0  0  0
  -10.0706   -1.3359   -2.5269 C   0  0  0  0  0  0  0  0  0  0  0  0
   -8.7718   -0.8854   -2.4940 C   0  0  0  0  0  0  0  0  0  0  0  0
   -4.9244    0.7555   -2.6345 C   0  0  0  0  0  0  0  0  0  0  0  0
   -3.8059    0.4990   -1.3505 S   0  0  0  0  0  0  0  0  0  0  0  0
   -2.4725    0.4177   -2.4976 C   0  0  0  0  0  0  0  0  0  0  0  0
   -2.8668    0.6713   -3.8050 C   0  0  0  0  0  0  0  0  0  0  0  0
   -2.0373    0.8101   -4.8933 N   0  0  0  0  0  0  0  0  0  0  0  0
   -2.5707    0.9434   -6.1982 C   0  0  0  0  0  0  0  0  0  0  0  0
   -3.3673   -0.0451   -6.7599 C   0  0  0  0  0  0  0  0  0  0  0  0
   -3.8742    0.0939   -8.0395 C   0  0  0  0  0  0  0  0  0  0  0  0
   -3.5859    1.2317   -8.7781 C   0  0  0  0  0  0  0  0  0  0  0  0
   -4.1862    1.5308  -10.4076 S   0  0  0  0  0  0  0  0  0  0  0  0
   -5.3985    0.2052  -10.6737 C   0  0  0  0  0  0  0  0  0  0  0  0
   -2.7624    2.2145   -8.2272 C   0  0  0  0  0  0  0  0  0  0  0  0
   -2.2592    2.0733   -6.9547 C   0  0  0  0  0  0  0  0  0  0  0  0
   -0.6549    1.0644   -4.7989 C   0  0  0  0  0  0  0  0  0  0  0  0
   -0.1072    1.9400   -3.8686 C   0  0  0  0  0  0  0  0  0  0  0  0
    1.2568    2.1736   -3.8435 C   0  0  0  0  0  0  0  0  0  0  0  0
    2.0940    1.5502   -4.7583 C   0  0  0  0  0  0  0  0  0  0  0  0
    3.8505    1.7154   -4.7807 S   0  0  0  0  0  0  0  0  0  0  0  0
    4.2335    2.7957   -3.3739 C   0  0  0  0  0  0  0  0  0  0  0  0
    1.5386    0.7154   -5.7287 C   0  0  0  0  0  0  0  0  0  0  0  0
    0.1856    0.4698   -5.7418 C   0  0  0  0  0  0  0  0  0  0  0  0
   -4.2802    0.8248   -3.8620 C   0  0  0  0  0  0  0  0  0  0  0  0
   -5.4233    1.0224   -5.1425 S   0  0  0  0  0  0  0  0  0  0  0  0
   -1.1949    0.1139   -1.9135 C   0  0  0  0  0  0  0  0  0  0  0  0
   -0.3416   -0.9540   -2.1339 C   0  0  0  0  0  0  0  0  0  0  0  0
   -0.5577   -1.9557   -3.0679 N   0  0  0  0  0  0  0  0  0  0  0  0
   -1.8806   -2.3372   -3.3412 C   0  0  0  0  0  0  0  0  0  0  0  0
   -2.8064   -2.4331   -2.2994 C   0  0  0  0  0  0  0  0  0  0  0  0
   -4.1363   -2.6722   -2.5622 C   0  0  0  0  0  0  0  0  0  0  0  0
   -4.5708   -2.8677   -3.8704 C   0  0  0  0  0  0  0  0  0  0  0  0
   -6.3069   -3.0657   -4.1302 S   0  0  0  0  0  0  0  0  0  0  0  0
   -6.5214   -2.6196   -5.8776 C   0  0  0  0  0  0  0  0  0  0  0  0
   -3.6358   -2.8930   -4.8963 C   0  0  0  0  0  0  0  0  0  0  0  0
   -2.3084   -2.6035   -4.6381 C   0  0  0  0  0  0  0  0  0  0  0  0
    0.5203   -2.5084   -3.7716 C   0  0  0  0  0  0  0  0  0  0  0  0
    1.6961   -1.7821   -3.9610 C   0  0  0  0  0  0  0  0  0  0  0  0
    2.7462   -2.3169   -4.6714 C   0  0  0  0  0  0  0  0  0  0  0  0
    2.6444   -3.5828   -5.2400 C   0  0  0  0  0  0  0  0  0  0  0  0
    4.0416   -4.1454   -6.1569 S   0  0  0  0  0  0  0  0  0  0  0  0
    3.4621   -5.6655   -6.9591 C   0  0  0  0  0  0  0  0  0  0  0  0
    1.4806   -4.3161   -5.0504 C   0  0  0  0  0  0  0  0  0  0  0  0
    0.4417   -3.7928   -4.3059 C   0  0  0  0  0  0  0  0  0  0  0  0
    0.7681   -0.8996   -1.2504 C   0  0  0  0  0  0  0  0  0  0  0  0
    2.1582   -1.8962   -0.9937 S   0  0  0  0  0  0  0  0  0  0  0  0
    2.7575   -0.7902    0.2250 C   0  0  0  0  0  0  0  0  0  0  0  0
    1.8939    0.2764    0.4461 C   0  0  0  0  0  0  0  0  0  0  0  0
    2.1130    1.3242    1.3692 N   0  0  0  0  0  0  0  0  0  0  0  0
    2.5428    2.5760    0.8946 C   0  0  0  0  0  0  0  0  0  0  0  0
    2.0946    3.0888   -0.3206 C   0  0  0  0  0  0  0  0  0  0  0  0
    2.4943    4.3370   -0.7515 C   0  0  0  0  0  0  0  0  0  0  0  0
    3.3645    5.1039    0.0109 C   0  0  0  0  0  0  0  0  0  0  0  0
    3.8141    6.6984   -0.6152 S   0  0  0  0  0  0  0  0  0  0  0  0
    4.2664    7.6117    0.8899 C   0  0  0  0  0  0  0  0  0  0  0  0
    3.8579    4.5841    1.1983 C   0  0  0  0  0  0  0  0  0  0  0  0
    3.4594    3.3360    1.6257 C   0  0  0  0  0  0  0  0  0  0  0  0
    1.9951    1.1010    2.7446 C   0  0  0  0  0  0  0  0  0  0  0  0
    2.0940   -0.1699    3.3065 C   0  0  0  0  0  0  0  0  0  0  0  0
    2.1108   -0.3418    4.6793 C   0  0  0  0  0  0  0  0  0  0  0  0
    2.0237    0.7511    5.5258 C   0  0  0  0  0  0  0  0  0  0  0  0
    2.1773    0.6560    7.2853 S   0  0  0  0  0  0  0  0  0  0  0  0
    2.8558   -1.0069    7.5511 C   0  0  0  0  0  0  0  0  0  0  0  0
    1.7823    2.0069    4.9735 C   0  0  0  0  0  0  0  0  0  0  0  0
    1.7490    2.1745    3.6091 C   0  0  0  0  0  0  0  0  0  0  0  0
    0.7529    0.1781   -0.3782 C   0  0  0  0  0  0  0  0  0  0  0  0
   -0.6902    1.1109   -0.5526 S   0  0  0  0  0  0  0  0  0  0  0  0
    4.0214   -0.9560    0.8809 C   0  0  0  0  0  0  0  0  0  0  0  0
    4.6511   -2.0606    1.4425 C   0  0  0  0  0  0  0  0  0  0  0  0
    4.1938   -3.3701    1.4401 N   0  0  0  0  0  0  0  0  0  0  0  0
    4.2982   -4.0906    2.6434 C   0  0  0  0  0  0  0  0  0  0  0  0
    4.0321   -3.4568    3.8542 C   0  0  0  0  0  0  0  0  0  0  0  0
    4.1502   -4.1316    5.0529 C   0  0  0  0  0  0  0  0  0  0  0  0
    4.5328   -5.4649    5.0629 C   0  0  0  0  0  0  0  0  0  0  0  0
    4.7162   -6.4315    6.5282 S   0  0  0  0  0  0  0  0  0  0  0  0
    4.4934   -5.2301    7.8713 C   0  0  0  0  0  0  0  0  0  0  0  0
    4.7950   -6.1068    3.8535 C   0  0  0  0  0  0  0  0  0  0  0  0
    4.6863   -5.4306    2.6595 C   0  0  0  0  0  0  0  0  0  0  0  0
    3.8664   -4.0484    0.2598 C   0  0  0  0  0  0  0  0  0  0  0  0
    2.8746   -5.0263    0.2896 C   0  0  0  0  0  0  0  0  0  0  0  0
    2.6000   -5.7841   -0.8282 C   0  0  0  0  0  0  0  0  0  0  0  0
    3.3081   -5.5671   -2.0028 C   0  0  0  0  0  0  0  0  0  0  0  0
    3.1194   -6.5761   -3.4355 S   0  0  0  0  0  0  0  0  0  0  0  0
    1.5436   -7.4363   -3.1543 C   0  0  0  0  0  0  0  0  0  0  0  0
    4.2604   -4.5537   -2.0569 C   0  0  0  0  0  0  0  0  0  0  0  0
    4.5411   -3.8013   -0.9357 C   0  0  0  0  0  0  0  0  0  0  0  0
    5.7850   -1.6583    2.1997 C   0  0  0  0  0  0  0  0  0  0  0  0
    6.9028   -2.4548    3.2547 S   0  0  0  0  0  0  0  0  0  0  0  0
    7.5041   -0.9066    3.8373 C   0  0  0  0  0  0  0  0  0  0  0  0
    6.9268    0.1662    3.1618 C   0  0  0  0  0  0  0  0  0  0  0  0
    7.2712    1.5049    3.2721 N   0  0  0  0  0  0  0  0  0  0  0  0
    6.9603    2.1800    4.4793 C   0  0  0  0  0  0  0  0  0  0  0  0
    5.6624    2.1311    4.9745 C   0  0  0  0  0  0  0  0  0  0  0  0
    5.3422    2.7492    6.1681 C   0  0  0  0  0  0  0  0  0  0  0  0
    6.3265    3.4210    6.8803 C   0  0  0  0  0  0  0  0  0  0  0  0
    6.0579    4.1807    8.4478 S   0  0  0  0  0  0  0  0  0  0  0  0
    4.2713    4.0155    8.7211 C   0  0  0  0  0  0  0  0  0  0  0  0
    7.6225    3.4976    6.3660 C   0  0  0  0  0  0  0  0  0  0  0  0
    7.9372    2.8905    5.1697 C   0  0  0  0  0  0  0  0  0  0  0  0
    7.4294    2.2255    2.0854 C   0  0  0  0  0  0  0  0  0  0  0  0
    7.9290    1.5815    0.9487 C   0  0  0  0  0  0  0  0  0  0  0  0
    8.0122    2.2469   -0.2504 C   0  0  0  0  0  0  0  0  0  0  0  0
    7.6271    3.5836   -0.3475 C   0  0  0  0  0  0  0  0  0  0  0  0
    7.7117    4.3033   -1.9539 S   0  0  0  0  0  0  0  0  0  0  0  0
    7.3046    6.0503   -1.6885 C   0  0  0  0  0  0  0  0  0  0  0  0
    7.2052    4.2490    0.7945 C   0  0  0  0  0  0  0  0  0  0  0  0
    7.1034    3.5762    1.9974 C   0  0  0  0  0  0  0  0  0  0  0  0
    5.9911   -0.2917    2.2119 C   0  0  0  0  0  0  0  0  0  0  0  0
    4.8864    0.5421    1.1958 S   0  0  0  0  0  0  0  0  0  0  0  0
    8.4852   -0.8436    4.8633 C   0  0  0  0  0  0  0  0  0  0  0  0
    8.2353   -0.1698    6.0287 C   0  0  0  0  0  0  0  0  0  0  0  0
    6.8632   -0.0641    6.5641 C   0  0  0  0  0  0  0  0  0  0  0  0
    5.8317   -0.4316    6.0381 O   0  0  0  0  0  0  0  0  0  0  0  0
    7.0236    0.4278    7.9489 C   0  0  0  0  0  0  0  0  0  0  0  0
    6.0464    0.6706    8.8913 C   0  0  0  0  0  0  0  0  0  0  0  0
    6.4521    1.1404   10.1356 C   0  0  0  0  0  0  0  0  0  0  0  0
    5.4404    1.4114   11.2147 C   0  0  0  0  0  0  0  0  0  0  0  0
    4.1886    1.0995   10.8487 F   0  0  0  0  0  0  0  0  0  0  0  0
    5.4160    2.7007   11.5901 F   0  0  0  0  0  0  0  0  0  0  0  0
    5.6961    0.7030   12.3296 F   0  0  0  0  0  0  0  0  0  0  0  0
    7.7957    1.3629   10.4182 C   0  0  0  0  0  0  0  0  0  0  0  0
    8.7742    1.1134    9.4666 C   0  0  0  0  0  0  0  0  0  0  0  0
    8.3859    0.6363    8.2249 C   0  0  0  0  0  0  0  0  0  0  0  0
    9.1601    0.2870    7.0350 C   0  0  0  0  0  0  0  0  0  0  0  0
   10.5038    0.4791    6.8476 C   0  0  0  0  0  0  0  0  0  0  0  0
   11.3802    0.9739    7.8334 C   0  0  0  0  0  0  0  0  0  0  0  0
   12.1339    1.3648    8.6058 N   0  0  0  0  0  0  0  0  0  0  0  0
   11.1447    0.2388    5.6139 C   0  0  0  0  0  0  0  0  0  0  0  0
   11.7013    0.0875    4.6217 N   0  0  0  0  0  0  0  0  0  0  0  0
   -8.1123    0.9998   -5.6173 H   0  0  0  0  0  0  0  0  0  0  0  0
  -10.5193    4.0136   -0.6950 H   0  0  0  0  0  0  0  0  0  0  0  0
  -14.4205    3.0298   -2.1899 H   0  0  0  0  0  0  0  0  0  0  0  0
  -13.4312    1.7152   -4.0178 H   0  0  0  0  0  0  0  0  0  0  0  0
   -6.9935   -0.9819    0.5470 H   0  0  0  0  0  0  0  0  0  0  0  0
   -5.9664   -0.4873    2.7072 H   0  0  0  0  0  0  0  0  0  0  0  0
   -4.1639   -0.3371    4.2127 H   0  0  0  0  0  0  0  0  0  0  0  0
   -4.1546    0.7534    5.6154 H   0  0  0  0  0  0  0  0  0  0  0  0
   -5.7076    0.2621    4.9066 H   0  0  0  0  0  0  0  0  0  0  0  0
   -4.9368    3.4291    1.3211 H   0  0  0  0  0  0  0  0  0  0  0  0
   -5.9997    2.9220   -0.8608 H   0  0  0  0  0  0  0  0  0  0  0  0
   -9.0433    1.2984    0.0732 H   0  0  0  0  0  0  0  0  0  0  0  0
  -11.3442    0.5030    0.0202 H   0  0  0  0  0  0  0  0  0  0  0  0
  -13.2955   -0.7696    0.3788 H   0  0  0  0  0  0  0  0  0  0  0  0
  -13.5320    0.5894   -0.7682 H   0  0  0  0  0  0  0  0  0  0  0  0
  -14.6593   -0.7847   -0.7594 H   0  0  0  0  0  0  0  0  0  0  0  0
  -10.3642   -2.0897   -3.2415 H   0  0  0  0  0  0  0  0  0  0  0  0
   -8.0441   -1.3001   -3.1733 H   0  0  0  0  0  0  0  0  0  0  0  0
   -3.5799   -0.9324   -6.1880 H   0  0  0  0  0  0  0  0  0  0  0  0
   -4.4895   -0.6934   -8.4443 H   0  0  0  0  0  0  0  0  0  0  0  0
   -5.8714    0.4297  -11.6247 H   0  0  0  0  0  0  0  0  0  0  0  0
   -4.8975   -0.7567  -10.7325 H   0  0  0  0  0  0  0  0  0  0  0  0
   -6.1394    0.2193   -9.8799 H   0  0  0  0  0  0  0  0  0  0  0  0
   -2.5336    3.0928   -8.8105 H   0  0  0  0  0  0  0  0  0  0  0  0
   -1.6264    2.8398   -6.5330 H   0  0  0  0  0  0  0  0  0  0  0  0
   -0.7485    2.4650   -3.1767 H   0  0  0  0  0  0  0  0  0  0  0  0
    1.6564    2.8620   -3.1184 H   0  0  0  0  0  0  0  0  0  0  0  0
    3.8013    3.7798   -3.5282 H   0  0  0  0  0  0  0  0  0  0  0  0
    3.8810    2.3511   -2.4473 H   0  0  0  0  0  0  0  0  0  0  0  0
    5.3166    2.8742   -3.3529 H   0  0  0  0  0  0  0  0  0  0  0  0
    2.1860    0.2488   -6.4542 H   0  0  0  0  0  0  0  0  0  0  0  0
   -0.2361   -0.1860   -6.4883 H   0  0  0  0  0  0  0  0  0  0  0  0
   -2.4787   -2.2886   -1.2806 H   0  0  0  0  0  0  0  0  0  0  0  0
   -4.8548   -2.7025   -1.7573 H   0  0  0  0  0  0  0  0  0  0  0  0
   -6.1946   -3.4346   -6.5170 H   0  0  0  0  0  0  0  0  0  0  0  0
   -5.9725   -1.7054   -6.0844 H   0  0  0  0  0  0  0  0  0  0  0  0
   -7.5852   -2.4449   -6.0167 H   0  0  0  0  0  0  0  0  0  0  0  0
   -3.9375   -3.1290   -5.9054 H   0  0  0  0  0  0  0  0  0  0  0  0
   -1.6009   -2.5652   -5.4530 H   0  0  0  0  0  0  0  0  0  0  0  0
    1.7797   -0.7821   -3.5709 H   0  0  0  0  0  0  0  0  0  0  0  0
    3.6490   -1.7430   -4.8119 H   0  0  0  0  0  0  0  0  0  0  0  0
    2.5654   -5.4574   -7.5351 H   0  0  0  0  0  0  0  0  0  0  0  0
    4.2659   -5.9694   -7.6222 H   0  0  0  0  0  0  0  0  0  0  0  0
    3.2907   -6.4343   -6.2117 H   0  0  0  0  0  0  0  0  0  0  0  0
    1.3742   -5.3029   -5.4699 H   0  0  0  0  0  0  0  0  0  0  0  0
   -0.4473   -4.3861   -4.1467 H   0  0  0  0  0  0  0  0  0  0  0  0
    1.4054    2.5235   -0.9231 H   0  0  0  0  0  0  0  0  0  0  0  0
    2.1140    4.7429   -1.6769 H   0  0  0  0  0  0  0  0  0  0  0  0
    5.2458    7.3064    1.2475 H   0  0  0  0  0  0  0  0  0  0  0  0
    4.2924    8.6589    0.6053 H   0  0  0  0  0  0  0  0  0  0  0  0
    3.5070    7.4492    1.6483 H   0  0  0  0  0  0  0  0  0  0  0  0
    4.5551    5.1415    1.8017 H   0  0  0  0  0  0  0  0  0  0  0  0
    3.8707    2.9503    2.5452 H   0  0  0  0  0  0  0  0  0  0  0  0
    2.1598   -1.0411    2.6738 H   0  0  0  0  0  0  0  0  0  0  0  0
    2.1986   -1.3403    5.0755 H   0  0  0  0  0  0  0  0  0  0  0  0
    2.1164   -1.7572    7.2836 H   0  0  0  0  0  0  0  0  0  0  0  0
    3.7686   -1.1131    6.9693 H   0  0  0  0  0  0  0  0  0  0  0  0
    3.0675   -1.0735    8.6148 H   0  0  0  0  0  0  0  0  0  0  0  0
    1.6191    2.8506    5.6271 H   0  0  0  0  0  0  0  0  0  0  0  0
    1.5417    3.1519    3.2022 H   0  0  0  0  0  0  0  0  0  0  0  0
    3.7485   -2.4163    3.8600 H   0  0  0  0  0  0  0  0  0  0  0  0
    3.9446   -3.6018    5.9688 H   0  0  0  0  0  0  0  0  0  0  0  0
    3.4716   -4.8614    7.8801 H   0  0  0  0  0  0  0  0  0  0  0  0
    5.2060   -4.4177    7.7624 H   0  0  0  0  0  0  0  0  0  0  0  0
    4.6930   -5.7768    8.7876 H   0  0  0  0  0  0  0  0  0  0  0  0
    5.1012   -7.1414    3.8657 H   0  0  0  0  0  0  0  0  0  0  0  0
    4.9150   -5.9350    1.7332 H   0  0  0  0  0  0  0  0  0  0  0  0
    2.3312   -5.2044    1.2056 H   0  0  0  0  0  0  0  0  0  0  0  0
    1.8427   -6.5487   -0.7655 H   0  0  0  0  0  0  0  0  0  0  0  0
    1.3102   -7.9435   -4.0856 H   0  0  0  0  0  0  0  0  0  0  0  0
    0.7720   -6.7082   -2.9227 H   0  0  0  0  0  0  0  0  0  0  0  0
    1.6488   -8.1702   -2.3606 H   0  0  0  0  0  0  0  0  0  0  0  0
    4.7932   -4.3780   -2.9784 H   0  0  0  0  0  0  0  0  0  0  0  0
    5.2981   -3.0323   -0.9759 H   0  0  0  0  0  0  0  0  0  0  0  0
    4.9019    1.5853    4.4353 H   0  0  0  0  0  0  0  0  0  0  0  0
    4.3303    2.6836    6.5316 H   0  0  0  0  0  0  0  0  0  0  0  0
    3.9782    2.9703    8.7443 H   0  0  0  0  0  0  0  0  0  0  0  0
    3.7308    4.5557    7.9497 H   0  0  0  0  0  0  0  0  0  0  0  0
    4.0882    4.4688    9.6903 H   0  0  0  0  0  0  0  0  0  0  0  0
    8.3755    4.0327    6.9244 H   0  0  0  0  0  0  0  0  0  0  0  0
    8.9383    2.9459    4.7684 H   0  0  0  0  0  0  0  0  0  0  0  0
    8.2501    0.5528    1.0121 H   0  0  0  0  0  0  0  0  0  0  0  0
    8.3802    1.7412   -1.1297 H   0  0  0  0  0  0  0  0  0  0  0  0
    6.2730    6.1479   -1.3615 H   0  0  0  0  0  0  0  0  0  0  0  0
    7.9983    6.4857   -0.9752 H   0  0  0  0  0  0  0  0  0  0  0  0
    7.4258    6.5268   -2.6562 H   0  0  0  0  0  0  0  0  0  0  0  0
    6.9394    5.2928    0.7549 H   0  0  0  0  0  0  0  0  0  0  0  0
    6.7528    4.0989    2.8751 H   0  0  0  0  0  0  0  0  0  0  0  0
    9.4146   -1.3797    4.7157 H   0  0  0  0  0  0  0  0  0  0  0  0
    5.0057    0.5093    8.6587 H   0  0  0  0  0  0  0  0  0  0  0  0
    8.0761    1.7334   11.3923 H   0  0  0  0  0  0  0  0  0  0  0  0
    9.8105    1.2861    9.7065 H   0  0  0  0  0  0  0  0  0  0  0  0
  1  2  2  0  0  0  0
  2  3  1  0  0  0  0
  3  4  2  0  0  0  0
  3  5  1  0  0  0  0
  5  6  2  0  0  0  0
  6  7  1  0  0  0  0
  7  8  1  0  0  0  0
  8  9  1  0  0  0  0
  8 10  1  0  0  0  0
  8 11  1  0  0  0  0
  7 12  2  0  0  0  0
 12 13  1  0  0  0  0
 13 14  2  0  0  0  0
 14 15  1  0  0  0  0
 15 16  2  0  0  0  0
 16 17  1  0  0  0  0
 17 18  3  0  0  0  0
 16 19  1  0  0  0  0
 19 20  3  0  0  0  0
  1 21  1  0  0  0  0
 21 22  2  0  0  0  0
 22 23  1  0  0  0  0
 23 24  1  0  0  0  0
 24 25  2  0  0  0  0
 25 26  1  0  0  0  0
 26 27  2  0  0  0  0
 27 28  1  0  0  0  0
 28 29  1  0  0  0  0
 27 30  1  0  0  0  0
 30 31  2  0  0  0  0
 23 32  1  0  0  0  0
 32 33  2  0  0  0  0
 33 34  1  0  0  0  0
 34 35  2  0  0  0  0
 35 36  1  0  0  0  0
 36 37  1  0  0  0  0
 35 38  1  0  0  0  0
 38 39  2  0  0  0  0
 22 40  1  0  0  0  0
 40 41  1  0  0  0  0
 41 42  1  0  0  0  0
 42 43  2  0  0  0  0
 43 44  1  0  0  0  0
 44 45  1  0  0  0  0
 45 46  2  0  0  0  0
 46 47  1  0  0  0  0
 47 48  2  0  0  0  0
 48 49  1  0  0  0  0
 49 50  1  0  0  0  0
 48 51  1  0  0  0  0
 51 52  2  0  0  0  0
 44 53  1  0  0  0  0
 53 54  2  0  0  0  0
 54 55  1  0  0  0  0
 55 56  2  0  0  0  0
 56 57  1  0  0  0  0
 57 58  1  0  0  0  0
 56 59  1  0  0  0  0
 59 60  2  0  0  0  0
 43 61  1  0  0  0  0
 61 62  1  0  0  0  0
 42 63  1  0  0  0  0
 63 64  2  0  0  0  0
 64 65  1  0  0  0  0
 65 66  1  0  0  0  0
 66 67  2  0  0  0  0
 67 68  1  0  0  0  0
 68 69  2  0  0  0  0
 69 70  1  0  0  0  0
 70 71  1  0  0  0  0
 69 72  1  0  0  0  0
 72 73  2  0  0  0  0
 65 74  1  0  0  0  0
 74 75  2  0  0  0  0
 75 76  1  0  0  0  0
 76 77  2  0  0  0  0
 77 78  1  0  0  0  0
 78 79  1  0  0  0  0
 77 80  1  0  0  0  0
 80 81  2  0  0  0  0
 64 82  1  0  0  0  0
 82 83  1  0  0  0  0
 83 84  1  0  0  0  0
 84 85  2  0  0  0  0
 85 86  1  0  0  0  0
 86 87  1  0  0  0  0
 87 88  2  0  0  0  0
 88 89  1  0  0  0  0
 89 90  2  0  0  0  0
 90 91  1  0  0  0  0
 91 92  1  0  0  0  0
 90 93  1  0  0  0  0
 93 94  2  0  0  0  0
 86 95  1  0  0  0  0
 95 96  2  0  0  0  0
 96 97  1  0  0  0  0
 97 98  2  0  0  0  0
 98 99  1  0  0  0  0
 99100  1  0  0  0  0
 98101  1  0  0  0  0
101102  2  0  0  0  0
 85103  1  0  0  0  0
103104  1  0  0  0  0
 84105  1  0  0  0  0
105106  2  0  0  0  0
106107  1  0  0  0  0
107108  1  0  0  0  0
108109  2  0  0  0  0
109110  1  0  0  0  0
110111  2  0  0  0  0
111112  1  0  0  0  0
112113  1  0  0  0  0
111114  1  0  0  0  0
114115  2  0  0  0  0
107116  1  0  0  0  0
116117  2  0  0  0  0
117118  1  0  0  0  0
118119  2  0  0  0  0
119120  1  0  0  0  0
120121  1  0  0  0  0
119122  1  0  0  0  0
122123  2  0  0  0  0
106124  1  0  0  0  0
124125  1  0  0  0  0
125126  1  0  0  0  0
126127  2  0  0  0  0
127128  1  0  0  0  0
128129  1  0  0  0  0
129130  2  0  0  0  0
130131  1  0  0  0  0
131132  2  0  0  0  0
132133  1  0  0  0  0
133134  1  0  0  0  0
132135  1  0  0  0  0
135136  2  0  0  0  0
128137  1  0  0  0  0
137138  2  0  0  0  0
138139  1  0  0  0  0
139140  2  0  0  0  0
140141  1  0  0  0  0
141142  1  0  0  0  0
140143  1  0  0  0  0
143144  2  0  0  0  0
127145  1  0  0  0  0
145146  1  0  0  0  0
126147  1  0  0  0  0
147148  2  0  0  0  0
148149  1  0  0  0  0
149150  2  0  0  0  0
149151  1  0  0  0  0
151152  2  0  0  0  0
152153  1  0  0  0  0
153154  1  0  0  0  0
154155  1  0  0  0  0
154156  1  0  0  0  0
154157  1  0  0  0  0
153158  2  0  0  0  0
158159  1  0  0  0  0
159160  2  0  0  0  0
160161  1  0  0  0  0
161162  2  0  0  0  0
162163  1  0  0  0  0
163164  3  0  0  0  0
162165  1  0  0  0  0
165166  3  0  0  0  0
 15  2  1  0  0  0  0
 62 21  1  0  0  0  0
104 63  1  0  0  0  0
146105  1  0  0  0  0
161148  1  0  0  0  0
 14  5  1  0  0  0  0
 31 24  1  0  0  0  0
 39 32  1  0  0  0  0
 61 40  2  0  0  0  0
 73 66  1  0  0  0  0
 81 74  1  0  0  0  0
103 82  2  0  0  0  0
115108  1  0  0  0  0
123116  1  0  0  0  0
145124  2  0  0  0  0
160151  1  0  0  0  0
 52 45  1  0  0  0  0
 60 53  1  0  0  0  0
 94 87  1  0  0  0  0
102 95  1  0  0  0  0
136129  1  0  0  0  0
144137  1  0  0  0  0
  1167  1  0  0  0  0
  6168  1  0  0  0  0
 12169  1  0  0  0  0
 13170  1  0  0  0  0
 25171  1  0  0  0  0
 26172  1  0  0  0  0
 29173  1  0  0  0  0
 29174  1  0  0  0  0
 29175  1  0  0  0  0
 30176  1  0  0  0  0
 31177  1  0  0  0  0
 33178  1  0  0  0  0
 34179  1  0  0  0  0
 37180  1  0  0  0  0
 37181  1  0  0  0  0
 37182  1  0  0  0  0
 38183  1  0  0  0  0
 39184  1  0  0  0  0
 46185  1  0  0  0  0
 47186  1  0  0  0  0
 50187  1  0  0  0  0
 50188  1  0  0  0  0
 50189  1  0  0  0  0
 51190  1  0  0  0  0
 52191  1  0  0  0  0
 54192  1  0  0  0  0
 55193  1  0  0  0  0
 58194  1  0  0  0  0
 58195  1  0  0  0  0
 58196  1  0  0  0  0
 59197  1  0  0  0  0
 60198  1  0  0  0  0
 67199  1  0  0  0  0
 68200  1  0  0  0  0
 71201  1  0  0  0  0
 71202  1  0  0  0  0
 71203  1  0  0  0  0
 72204  1  0  0  0  0
 73205  1  0  0  0  0
 75206  1  0  0  0  0
 76207  1  0  0  0  0
 79208  1  0  0  0  0
 79209  1  0  0  0  0
 79210  1  0  0  0  0
 80211  1  0  0  0  0
 81212  1  0  0  0  0
 88213  1  0  0  0  0
 89214  1  0  0  0  0
 92215  1  0  0  0  0
 92216  1  0  0  0  0
 92217  1  0  0  0  0
 93218  1  0  0  0  0
 94219  1  0  0  0  0
 96220  1  0  0  0  0
 97221  1  0  0  0  0
100222  1  0  0  0  0
100223  1  0  0  0  0
100224  1  0  0  0  0
101225  1  0  0  0  0
102226  1  0  0  0  0
109227  1  0  0  0  0
110228  1  0  0  0  0
113229  1  0  0  0  0
113230  1  0  0  0  0
113231  1  0  0  0  0
114232  1  0  0  0  0
115233  1  0  0  0  0
117234  1  0  0  0  0
118235  1  0  0  0  0
121236  1  0  0  0  0
121237  1  0  0  0  0
121238  1  0  0  0  0
122239  1  0  0  0  0
123240  1  0  0  0  0
130241  1  0  0  0  0
131242  1  0  0  0  0
134243  1  0  0  0  0
134244  1  0  0  0  0
134245  1  0  0  0  0
135246  1  0  0  0  0
136247  1  0  0  0  0
138248  1  0  0  0  0
139249  1  0  0  0  0
142250  1  0  0  0  0
142251  1  0  0  0  0
142252  1  0  0  0  0
143253  1  0  0  0  0
144254  1  0  0  0  0
147255  1  0  0  0  0
152256  1  0  0  0  0
158257  1  0  0  0  0
159258  1  0  0  0  0
M  END
