158

C         -9.80100        0.02690       -6.56780
C         -9.51630       -1.01730       -7.38890
C         -8.17890       -1.65990       -7.53550
O         -7.17490       -1.46230       -6.89510
C         -8.30100       -2.54140       -8.71970
C         -7.32640       -3.33840       -9.28660
C         -7.67890       -4.08610      -10.40350
C         -6.66850       -4.96880      -11.08500
F         -6.28530       -4.46100      -12.27240
F         -5.55340       -5.14520      -10.36920
F         -7.15860       -6.19230      -11.34550
C         -8.96360       -4.02190      -10.93740
C         -9.93500       -3.21590      -10.36510
C         -9.60250       -2.46970       -9.24240
C        -10.38970       -1.55020       -8.42350
C        -11.72710       -1.30030       -8.57130
C        -12.53390       -1.86660       -9.58240
N        -13.24130       -2.28570      -10.38260
C        -12.49720       -0.46200       -7.73540
N        -13.19370        0.19340       -7.10070
C         -9.00060        0.51590       -5.47560
C         -8.26470       -0.34460       -4.64120
C         -7.52100        0.20290       -3.62680
C         -6.65570       -0.47850       -2.62340
O         -6.50600       -1.66350       -2.45610
C         -6.02010        0.63780       -1.87250
C         -6.52560        1.86620       -2.34310
C         -7.46690        1.59620       -3.41720
C         -8.22960        2.44280       -4.20260
C         -9.00300        1.89230       -5.20980
C         -6.05910        3.05500       -1.81490
C         -5.02460        3.00900       -0.89500
C         -4.46800        1.79590       -0.48080
C         -5.02120        0.58940       -0.93010
C         -3.25620        1.79250        0.31600
C         -2.11110        2.52580        0.06040
N         -1.91730        3.34850       -1.03980
C         -1.13850        4.50250       -0.90440
C         -0.31490        4.92580       -1.94410
C          0.46910        6.05390       -1.80820
C          0.45190        6.77590       -0.62180
S          1.41390        8.22620       -0.32780
C          2.50230        8.33050       -1.77690
C         -0.37760        6.36130        0.41810
C         -1.16780        5.24300        0.27860
C         -2.50490        3.01450       -2.26880
C         -3.08590        3.99350       -3.06910
C         -3.78230        3.64960       -4.21260
C         -3.91650        2.31580       -4.57200
S         -4.87400        1.73170       -5.93360
C         -5.63440        3.23810       -6.60430
C         -3.27210        1.33890       -3.81320
C         -2.56900        1.68290       -2.68310
C         -1.10790        2.24780        1.02430
S          0.52380        2.77230        1.25180
C          0.67940        1.73490        2.65490
C         -0.45510        0.97780        2.89000
N         -0.55420       -0.03670        3.83170
C         -1.76230       -0.24200        4.50240
C         -2.15880       -1.52560        4.86900
C         -3.35960       -1.73460        5.51720
C         -4.19350       -0.66130        5.80330
S         -5.75290       -0.80150        6.61740
C         -5.99740       -2.59080        6.79570
C         -3.79700        0.62580        5.44590
C         -2.59520        0.83580        4.80930
C          0.57900       -0.81710        4.10760
C          0.92030       -1.15440        5.41740
C          2.12990       -1.75770        5.68250
C          3.02540       -2.03890        4.65220
S          4.61710       -2.64320        5.11530
C          5.53460       -2.69310        3.55400
C          2.64030       -1.80350        3.33830
C          1.42790       -1.20190        3.07320
C         -1.47830        1.29780        1.96110
S         -3.07800        0.70580        1.67840
C          1.92630        1.66950        3.39240
C          3.14640        1.54760        2.71360
C          4.28130        1.29000        3.44530
C          5.65770        0.99090        2.96790
O          6.06420        0.99030        1.83060
C          6.41590        0.66770        4.20930
C          5.56380        0.81120        5.32440
C          4.24300        1.19090        4.85100
C          3.05820        1.41110        5.52710
C          1.90840        1.64160        4.78990
C          6.05040        0.58290        6.59940
C          7.37570        0.21270        6.74350
C          8.21700        0.01730        5.63810
C          7.72120        0.26550        4.34550
C          9.58660       -0.35480        5.87490
C         10.38290       -1.13280        5.09410
C          9.91160       -2.04960        4.02280
O          8.78270       -2.21610        3.61940
C         11.10500       -2.82200        3.61350
C         11.19130       -3.80590        2.64860
C         12.43280       -4.39490        2.44100
C         12.60860       -5.45080        1.38370
F         13.24050       -4.96740        0.29710
F         11.44960       -5.96150        0.95310
F         13.34910       -6.48430        1.81590
C         13.54620       -4.00760        3.18220
C         13.45050       -3.02220        4.15220
C         12.21860       -2.42010        4.36980
C         11.80580       -1.36500        5.29280
C         12.63780       -0.67890        6.13590
C         12.25180        0.38770        6.97730
N         12.02660        1.26730        7.67970
C         14.01970       -0.93620        6.27010
N         15.14420       -1.09820        6.43100
H        -10.70560        0.59250       -6.75920
H         -6.33380       -3.37550       -8.86480
H         -9.20320       -4.61250      -11.80870
H        -10.92030       -3.17970      -10.79900
H         -8.30170       -1.41370       -4.76960
H         -8.23020        3.50970       -4.03390
H         -9.59990        2.54040       -5.83590
H         -6.46180        4.00500       -2.13190
H         -4.62460        3.92970       -0.49670
H         -4.62460       -0.35620       -0.59190
H         -0.28660        4.35990       -2.86350
H          1.09550        6.35220       -2.63310
H          3.07970        7.41550       -1.86940
H          1.91880        8.52430       -2.67240
H          3.16530        9.16790       -1.58330
H         -0.39650        6.93210        1.33370
H         -1.81670        4.93780        1.08630
H         -3.01350        5.03140       -2.77910
H         -4.23390        4.43250       -4.79980
H         -6.22960        3.72430       -5.83730
H         -6.27780        2.90220       -7.41160
H         -4.87020        3.90310       -6.99570
H         -3.34450        0.30670       -4.11940
H         -2.08110        0.91760       -2.09870
H         -1.52080       -2.36530        4.63680
H         -3.63570       -2.74160        5.78450
H         -5.24150       -3.00850        7.45420
H         -6.97940       -2.70720        7.24380
H         -5.97890       -3.06470        5.81880
H         -4.44240        1.45800        5.68110
H         -2.29120        1.83950        4.55110
H          0.24920       -0.90590        6.22610
H          2.41340       -1.98720        6.69800
H          5.45390       -1.73670        3.04670
H          6.57260       -2.86890        3.81840
H          5.16510       -3.50330        2.93180
H          3.27930       -2.07200        2.51330
H          1.14650       -1.00020        2.05020
H          3.18250        1.60060        1.63560
H          3.01580        1.37690        6.60460
H          0.97010        1.79470        5.30200
H          5.41650        0.69430        7.46530
H          7.77270        0.03690        7.73290
H          8.35480        0.17840        3.47780
H         10.00450        0.02890        6.79810
H         10.32100       -4.09850        2.08170
H         14.49570       -4.48730        2.99870
H         14.32540       -2.74480        4.71620
