170

C         -2.52360        0.37350        7.42620
C         -1.71020       -0.20920        8.36900
C         -2.32490       -0.78720        9.58100
O         -3.43920       -0.58430       10.01130
C         -1.30010       -1.71970       10.11810
C         -1.40240       -2.61730       11.15930
C         -0.29940       -3.42500       11.42610
C         -0.35230       -4.39770       12.57090
F         -1.59800       -4.79590       12.86190
F          0.36110       -5.51110       12.33970
F          0.14660       -3.86560       13.70490
C          0.86520       -3.32940       10.67250
C          0.96640       -2.41430        9.63410
C         -0.12090       -1.60310        9.35990
C         -0.31190       -0.54100        8.37100
C          0.69850        0.18780        7.78850
C          0.46280        1.42290        7.14870
N          0.30220        2.46340        6.68930
C          2.05570       -0.16210        7.84430
N          3.17660       -0.41780        7.83250
C         -2.29090        0.53730        6.05890
C         -3.07510        1.24700        5.12450
N         -4.23100        1.92040        5.40120
C         -5.17000        1.40490        6.31220
C         -5.77950        2.23560        7.24670
C         -6.68400        1.72080        8.15460
C         -6.99410        0.36590        8.13920
S         -8.12610       -0.39630        9.24880
C         -8.32530        0.83540       10.56720
C         -6.40420       -0.46200        7.18340
C         -5.50340        0.04950        6.27870
C         -4.50550        3.12520        4.73270
C         -3.47930        4.04020        4.48990
C         -3.74780        5.21720        3.83140
C         -5.04440        5.51420        3.40960
S         -5.26040        7.05390        2.58480
C         -7.01690        7.06870        2.12620
C         -6.06920        4.61180        3.66660
C         -5.79920        3.42570        4.32070
C         -2.48530        1.20870        3.83960
S         -2.92060        1.85390        2.29610
C         -1.51910        1.09960        1.56590
C         -0.71350        0.44120        2.48770
N          0.55070       -0.05870        2.25790
C          1.38530        0.46230        1.26220
C          2.22930       -0.39150        0.55140
C          2.99100        0.08930       -0.49030
C          2.93580        1.43560       -0.84170
S          3.91840        1.95170       -2.21690
C          3.20980        3.55820       -2.67040
C          2.15060        2.30300       -0.09490
C          1.38910        1.82050        0.95040
C          1.07100       -1.01250        3.15340
C          0.32720       -2.13960        3.50100
C          0.80730       -3.01790        4.44880
C          2.03500       -2.78860        5.06730
S          2.50510       -3.92810        6.32680
C          4.14840       -3.36030        6.84960
C          2.80050       -1.69330        4.68470
C          2.32010       -0.81530        3.73410
C         -1.31360        0.47020        3.76910
S         -0.90810       -0.23800        5.28540
C         -1.26510        1.21560        0.15070
C         -1.40150        2.39350       -0.55410
F         -1.86500        3.49680        0.05930
C         -0.98370        2.51520       -1.88650
F         -1.08510        3.74050       -2.43830
C         -0.39180        1.48050       -2.58330
C         -0.28370        0.23830       -1.89660
N          0.30350       -0.81350       -2.49130
C          0.36180       -1.96660       -1.87510
C          1.09310       -3.05640       -2.59920
C          0.14020       -3.82550       -3.51740
C         -0.28120       -2.14620       -0.61740
N         -0.79930       -1.11660        0.00440
C         -0.77150        0.09300       -0.57420
C         -0.41150       -3.47190        0.07420
C         -1.84200       -3.70160        0.55850
C          0.12800        1.65500       -3.94320
C          1.34490        1.07850       -4.28780
C          1.83350        1.28960       -5.56600
N          3.00950        0.85810       -6.12630
C          3.92780       -0.06550       -5.51290
C          3.48610       -1.50840       -5.75010
C          3.05270        1.28700       -7.42610
C          1.88830        2.05260       -7.71030
C          1.11020        2.05700       -6.51370
C         -0.11710        2.61040       -6.15990
C         -0.59380        2.40990       -4.88530
C          1.70990        2.60320       -8.97580
C          2.64970        2.35330       -9.94590
C          3.80250        1.58860       -9.67160
C          4.02450        1.08570       -8.38900
C          4.77700        1.33720      -10.69970
C          4.55060        1.16210      -12.02470
C          5.65510        1.30970      -13.00920
O          6.83900        1.35700      -12.77710
C          4.97980        1.44220      -14.32270
C          5.53580        1.72300      -15.55440
C          4.67550        1.82170      -16.64300
C          5.23130        2.15860      -18.00020
F          6.49970        1.75900      -18.15610
F          4.52710        1.60640      -18.99920
F          5.22200        3.48750      -18.22470
C          3.30160        1.65730      -16.49500
C          2.74910        1.36790      -15.25630
C          3.59460        1.25480      -14.16330
C          3.32410        0.92700      -12.76350
C          2.21430        0.27470      -12.30080
C          1.07650        0.00490      -13.08920
N          0.12290       -0.21690      -13.68790
C          2.12310       -0.29090      -11.00980
N          2.02670       -0.84100      -10.00750
H         -3.50600        0.64330        7.79590
H         -2.31000       -2.69190       11.73800
H          1.69670       -3.98000       10.89660
H          1.87060       -2.36080        9.05110
H         -5.52980        3.28600        7.26790
H         -7.13440        2.38510        8.87380
H         -7.34710        1.12820       10.93620
H         -8.88880        1.69120       10.20630
H         -8.88330        0.33560       11.35290
H         -6.66160       -1.50940        7.16630
H         -5.04080       -0.59440        5.54550
H         -2.47790        3.82620        4.83270
H         -2.95890        5.92740        3.64020
H         -7.23750        6.22590        1.47800
H         -7.63710        7.05770        3.01770
H         -7.16800        7.99810        1.58580
H         -7.08160        4.81460        3.35750
H         -6.59690        2.72240        4.50890
H          2.26560       -1.43920        0.81120
H          3.62850       -0.57700       -1.05140
H          3.47870        4.31000       -1.93400
H          2.13250        3.46620       -2.77050
H          3.64790        3.81310       -3.63050
H          2.12910        3.35880       -0.31140
H          0.79680        2.50710        1.53620
H         -0.63050       -2.30780        3.03320
H          0.22990       -3.88400        4.73360
H          4.08230       -2.34840        7.24200
H          4.45610       -4.04590        7.63320
H          4.84060       -3.42060        6.01510
H          3.75670       -1.49570        5.13920
H          2.90610        0.04810        3.45550
H          1.56710       -3.73530       -1.88950
H          1.86910       -2.59090       -3.20780
H         -0.30920       -3.14430       -4.23570
H          0.68290       -4.59580       -4.05930
H         -0.65640       -4.29800       -2.94700
H         -0.11020       -4.28370       -0.58550
H          0.25990       -3.46780        0.93840
H         -1.89860       -4.61190        1.14990
H         -2.16880       -2.86080        1.16390
H         -2.51840       -3.79430       -0.28840
H          1.88760        0.49610       -3.56440
H          4.92220        0.10180       -5.93310
H          3.97260        0.15200       -4.44270
H          3.44310       -1.71870       -6.81630
H          2.49500       -1.66610       -5.33120
H          4.18380       -2.19790       -5.28230
H         -0.68500        3.18560       -6.87470
H         -1.55120        2.82240       -4.60890
H          0.84120        3.20610       -9.19190
H          2.53340        2.78270      -10.93040
H          4.90980        0.50120       -8.19130
H          5.81990        1.33920      -10.39890
H          6.60160        1.85430      -15.66120
H          2.66060        1.75050      -17.35840
H          1.68250        1.24660      -15.15960
