
  xtb     02172222353D
 energy: -423.537842283258 gnorm: 0.000454166169 xtb: 6.4.1 (unknown)
250271  0     0  0            999 V2000
   -7.1272    5.0686    3.8880 C   0  0  0  0  0  0  0  0  0  0  0  0
   -8.3132    5.5759    3.4249 C   0  0  0  0  0  0  0  0  0  0  0  0
   -8.9193    6.7193    4.1479 C   0  0  0  0  0  0  0  0  0  0  0  0
   -8.5023    7.2494    5.1527 O   0  0  0  0  0  0  0  0  0  0  0  0
  -10.1187    7.0901    3.3622 C   0  0  0  0  0  0  0  0  0  0  0  0
  -10.9810    8.1508    3.5493 C   0  0  0  0  0  0  0  0  0  0  0  0
  -12.0454    8.2770    2.6633 C   0  0  0  0  0  0  0  0  0  0  0  0
  -13.0092    9.4248    2.7781 C   0  0  0  0  0  0  0  0  0  0  0  0
  -12.8616   10.1335    3.9020 F   0  0  0  0  0  0  0  0  0  0  0  0
  -12.8682   10.2950    1.7573 F   0  0  0  0  0  0  0  0  0  0  0  0
  -14.2906    9.0205    2.7422 F   0  0  0  0  0  0  0  0  0  0  0  0
  -12.2358    7.3611    1.6329 C   0  0  0  0  0  0  0  0  0  0  0  0
  -11.3673    6.2950    1.4569 C   0  0  0  0  0  0  0  0  0  0  0  0
  -10.2922    6.1639    2.3215 C   0  0  0  0  0  0  0  0  0  0  0  0
   -9.2139    5.1711    2.3807 C   0  0  0  0  0  0  0  0  0  0  0  0
   -9.2256    3.9768    1.7026 C   0  0  0  0  0  0  0  0  0  0  0  0
  -10.2447    3.5826    0.8130 C   0  0  0  0  0  0  0  0  0  0  0  0
  -11.0376    3.1787    0.0863 N   0  0  0  0  0  0  0  0  0  0  0  0
   -8.2827    2.9410    1.8402 C   0  0  0  0  0  0  0  0  0  0  0  0
   -7.5895    2.0254    1.8880 N   0  0  0  0  0  0  0  0  0  0  0  0
   -6.1479    4.2716    3.2666 C   0  0  0  0  0  0  0  0  0  0  0  0
   -5.5416    4.3582    2.0051 C   0  0  0  0  0  0  0  0  0  0  0  0
   -5.6760    5.3834    1.0917 N   0  0  0  0  0  0  0  0  0  0  0  0
   -6.8838    5.6585    0.4056 C   0  0  0  0  0  0  0  0  0  0  0  0
   -7.4252    4.6992   -0.4403 C   0  0  0  0  0  0  0  0  0  0  0  0
   -8.5542    4.9941   -1.1831 C   0  0  0  0  0  0  0  0  0  0  0  0
   -9.1669    6.2375   -1.0863 C   0  0  0  0  0  0  0  0  0  0  0  0
  -10.3753    6.5497   -1.9124 C   0  0  0  0  0  0  0  0  0  0  0  0
   -8.6199    7.1847   -0.2262 C   0  0  0  0  0  0  0  0  0  0  0  0
   -7.4813    6.9078    0.5072 C   0  0  0  0  0  0  0  0  0  0  0  0
   -4.5083    6.0046    0.6239 C   0  0  0  0  0  0  0  0  0  0  0  0
   -4.4289    6.4989   -0.6748 C   0  0  0  0  0  0  0  0  0  0  0  0
   -3.2791    7.1307   -1.1086 C   0  0  0  0  0  0  0  0  0  0  0  0
   -2.1802    7.2809   -0.2743 C   0  0  0  0  0  0  0  0  0  0  0  0
   -0.9280    7.9561   -0.7419 C   0  0  0  0  0  0  0  0  0  0  0  0
   -2.2704    6.7903    1.0247 C   0  0  0  0  0  0  0  0  0  0  0  0
   -3.4153    6.1697    1.4755 C   0  0  0  0  0  0  0  0  0  0  0  0
   -4.5193    3.3890    1.8821 C   0  0  0  0  0  0  0  0  0  0  0  0
   -3.5258    2.9008    0.5587 S   0  0  0  0  0  0  0  0  0  0  0  0
   -2.8584    1.5971    1.5243 C   0  0  0  0  0  0  0  0  0  0  0  0
   -3.3549    1.5837    2.8101 C   0  0  0  0  0  0  0  0  0  0  0  0
   -2.9119    0.7129    3.8021 N   0  0  0  0  0  0  0  0  0  0  0  0
   -3.0454   -0.6681    3.6308 C   0  0  0  0  0  0  0  0  0  0  0  0
   -4.1430   -1.1889    2.9478 C   0  0  0  0  0  0  0  0  0  0  0  0
   -4.3103   -2.5548    2.8489 C   0  0  0  0  0  0  0  0  0  0  0  0
   -3.3969   -3.4372    3.4138 C   0  0  0  0  0  0  0  0  0  0  0  0
   -3.6291   -4.9151    3.3360 C   0  0  0  0  0  0  0  0  0  0  0  0
   -2.2863   -2.9088    4.0590 C   0  0  0  0  0  0  0  0  0  0  0  0
   -2.1035   -1.5436    4.1649 C   0  0  0  0  0  0  0  0  0  0  0  0
   -2.5119    1.2806    5.0187 C   0  0  0  0  0  0  0  0  0  0  0  0
   -2.7506    0.6416    6.2331 C   0  0  0  0  0  0  0  0  0  0  0  0
   -2.3758    1.2423    7.4169 C   0  0  0  0  0  0  0  0  0  0  0  0
   -1.7740    2.4954    7.4333 C   0  0  0  0  0  0  0  0  0  0  0  0
   -1.3766    3.1277    8.7311 C   0  0  0  0  0  0  0  0  0  0  0  0
   -1.5380    3.1241    6.2189 C   0  0  0  0  0  0  0  0  0  0  0  0
   -1.8903    2.5272    5.0247 C   0  0  0  0  0  0  0  0  0  0  0  0
   -4.3225    2.5978    2.9998 C   0  0  0  0  0  0  0  0  0  0  0  0
   -5.3689    3.0563    4.2873 S   0  0  0  0  0  0  0  0  0  0  0  0
   -1.7293    0.8132    1.0800 C   0  0  0  0  0  0  0  0  0  0  0  0
   -1.6257   -0.2993    0.2758 C   0  0  0  0  0  0  0  0  0  0  0  0
   -2.6585   -1.0397   -0.2683 N   0  0  0  0  0  0  0  0  0  0  0  0
   -3.8561   -0.4395   -0.6881 C   0  0  0  0  0  0  0  0  0  0  0  0
   -3.8439    0.7136   -1.4685 C   0  0  0  0  0  0  0  0  0  0  0  0
   -5.0300    1.2933   -1.8678 C   0  0  0  0  0  0  0  0  0  0  0  0
   -6.2505    0.7305   -1.5033 C   0  0  0  0  0  0  0  0  0  0  0  0
   -7.7112    1.5522   -2.0602 S   0  0  0  0  0  0  0  0  0  0  0  0
   -9.0471    0.7226   -1.1580 C   0  0  0  0  0  0  0  0  0  0  0  0
   -6.2657   -0.4383   -0.7535 C   0  0  0  0  0  0  0  0  0  0  0  0
   -5.0784   -1.0158   -0.3541 C   0  0  0  0  0  0  0  0  0  0  0  0
   -2.5217   -2.4339   -0.3477 C   0  0  0  0  0  0  0  0  0  0  0  0
   -3.0748   -3.1319   -1.4220 C   0  0  0  0  0  0  0  0  0  0  0  0
   -2.9338   -4.4987   -1.5117 C   0  0  0  0  0  0  0  0  0  0  0  0
   -2.2257   -5.2029   -0.5402 C   0  0  0  0  0  0  0  0  0  0  0  0
   -2.0889   -6.9514   -0.7493 S   0  0  0  0  0  0  0  0  0  0  0  0
   -1.6457   -7.5410    0.9101 C   0  0  0  0  0  0  0  0  0  0  0  0
   -1.6645   -4.5130    0.5237 C   0  0  0  0  0  0  0  0  0  0  0  0
   -1.8227   -3.1451    0.6253 C   0  0  0  0  0  0  0  0  0  0  0  0
   -0.2618   -0.6847    0.1363 C   0  0  0  0  0  0  0  0  0  0  0  0
    0.5419   -1.8880   -0.7973 S   0  0  0  0  0  0  0  0  0  0  0  0
    2.1036   -1.3781   -0.1490 C   0  0  0  0  0  0  0  0  0  0  0  0
    1.9959   -0.3319    0.7397 C   0  0  0  0  0  0  0  0  0  0  0  0
    2.9901    0.2334    1.5166 N   0  0  0  0  0  0  0  0  0  0  0  0
    2.6485    0.6714    2.8100 C   0  0  0  0  0  0  0  0  0  0  0  0
    1.7528   -0.0461    3.6036 C   0  0  0  0  0  0  0  0  0  0  0  0
    1.4421    0.3952    4.8704 C   0  0  0  0  0  0  0  0  0  0  0  0
    2.0281    1.5489    5.3833 C   0  0  0  0  0  0  0  0  0  0  0  0
    1.6225    1.9682    7.0478 S   0  0  0  0  0  0  0  0  0  0  0  0
    2.1833    3.6889    7.2001 C   0  0  0  0  0  0  0  0  0  0  0  0
    2.9166    2.2690    4.5960 C   0  0  0  0  0  0  0  0  0  0  0  0
    3.2134    1.8376    3.3186 C   0  0  0  0  0  0  0  0  0  0  0  0
    4.3375    0.2853    1.1328 C   0  0  0  0  0  0  0  0  0  0  0  0
    4.7177    0.6095   -0.1642 C   0  0  0  0  0  0  0  0  0  0  0  0
    6.0557    0.6683   -0.5140 C   0  0  0  0  0  0  0  0  0  0  0  0
    7.0399    0.4169    0.4307 C   0  0  0  0  0  0  0  0  0  0  0  0
    8.7795    0.5302    0.1390 S   0  0  0  0  0  0  0  0  0  0  0  0
    8.9780    0.3063   -1.6516 C   0  0  0  0  0  0  0  0  0  0  0  0
    6.6618    0.1203    1.7395 C   0  0  0  0  0  0  0  0  0  0  0  0
    5.3333    0.0562    2.0855 C   0  0  0  0  0  0  0  0  0  0  0  0
    0.6332    0.0713    0.8623 C   0  0  0  0  0  0  0  0  0  0  0  0
   -0.1653    1.3534    1.6953 S   0  0  0  0  0  0  0  0  0  0  0  0
    3.2241   -2.1306   -0.6635 C   0  0  0  0  0  0  0  0  0  0  0  0
    3.5685   -3.4067   -0.2768 C   0  0  0  0  0  0  0  0  0  0  0  0
    2.9415   -4.1225    0.7388 N   0  0  0  0  0  0  0  0  0  0  0  0
    2.8941   -3.6527    2.0527 C   0  0  0  0  0  0  0  0  0  0  0  0
    1.7826   -3.9107    2.8517 C   0  0  0  0  0  0  0  0  0  0  0  0
    1.7726   -3.5239    4.1775 C   0  0  0  0  0  0  0  0  0  0  0  0
    2.8592   -2.8690    4.7430 C   0  0  0  0  0  0  0  0  0  0  0  0
    2.8753   -2.4817    6.1895 C   0  0  0  0  0  0  0  0  0  0  0  0
    3.9495   -2.5858    3.9281 C   0  0  0  0  0  0  0  0  0  0  0  0
    3.9723   -2.9610    2.6002 C   0  0  0  0  0  0  0  0  0  0  0  0
    2.4355   -5.3847    0.3895 C   0  0  0  0  0  0  0  0  0  0  0  0
    1.8472   -5.5707   -0.8604 C   0  0  0  0  0  0  0  0  0  0  0  0
    1.3934   -6.8177   -1.2372 C   0  0  0  0  0  0  0  0  0  0  0  0
    1.5020   -7.9089   -0.3821 C   0  0  0  0  0  0  0  0  0  0  0  0
    1.0218   -9.2593   -0.8159 C   0  0  0  0  0  0  0  0  0  0  0  0
    2.0695   -7.7095    0.8710 C   0  0  0  0  0  0  0  0  0  0  0  0
    2.5363   -6.4677    1.2576 C   0  0  0  0  0  0  0  0  0  0  0  0
    4.5765   -3.9433   -1.1125 C   0  0  0  0  0  0  0  0  0  0  0  0
    5.4641   -5.4171   -1.0870 S   0  0  0  0  0  0  0  0  0  0  0  0
    6.4233   -4.8716   -2.4772 C   0  0  0  0  0  0  0  0  0  0  0  0
    5.9073   -3.6715   -3.0376 C   0  0  0  0  0  0  0  0  0  0  0  0
    6.1697   -3.2110   -4.2826 N   0  0  0  0  0  0  0  0  0  0  0  0
    5.7744   -1.9148   -4.6903 C   0  0  0  0  0  0  0  0  0  0  0  0
    6.1542   -0.7904   -3.9697 C   0  0  0  0  0  0  0  0  0  0  0  0
    5.7841    0.4647   -4.4139 C   0  0  0  0  0  0  0  0  0  0  0  0
    5.0332    0.6250   -5.5717 C   0  0  0  0  0  0  0  0  0  0  0  0
    4.6124    1.9859   -6.0311 C   0  0  0  0  0  0  0  0  0  0  0  0
    4.6681   -0.5099   -6.2879 C   0  0  0  0  0  0  0  0  0  0  0  0
    5.0359   -1.7696   -5.8599 C   0  0  0  0  0  0  0  0  0  0  0  0
    6.7891   -3.9947   -5.2772 C   0  0  0  0  0  0  0  0  0  0  0  0
    6.3973   -5.3093   -5.5195 C   0  0  0  0  0  0  0  0  0  0  0  0
    7.0407   -6.0529   -6.4861 C   0  0  0  0  0  0  0  0  0  0  0  0
    8.0864   -5.5154   -7.2346 C   0  0  0  0  0  0  0  0  0  0  0  0
    8.8069   -6.3542   -8.2415 C   0  0  0  0  0  0  0  0  0  0  0  0
    8.4406   -4.1912   -7.0144 C   0  0  0  0  0  0  0  0  0  0  0  0
    7.7980   -3.4319   -6.0536 C   0  0  0  0  0  0  0  0  0  0  0  0
    4.9281   -3.1225   -2.1762 C   0  0  0  0  0  0  0  0  0  0  0  0
    4.0565   -1.6299   -2.1245 S   0  0  0  0  0  0  0  0  0  0  0  0
    7.5542   -5.6032   -2.8025 C   0  0  0  0  0  0  0  0  0  0  0  0
    8.6552   -5.1114   -3.4923 C   0  0  0  0  0  0  0  0  0  0  0  0
    9.0333   -3.7002   -3.5143 C   0  0  0  0  0  0  0  0  0  0  0  0
    8.4516   -2.7513   -3.0133 O   0  0  0  0  0  0  0  0  0  0  0  0
   10.3514   -3.6531   -4.1909 C   0  0  0  0  0  0  0  0  0  0  0  0
   11.1424   -2.5587   -4.4601 C   0  0  0  0  0  0  0  0  0  0  0  0
   12.3458   -2.7811   -5.1257 C   0  0  0  0  0  0  0  0  0  0  0  0
   13.2122   -1.6082   -5.4872 C   0  0  0  0  0  0  0  0  0  0  0  0
   14.5176   -1.9103   -5.5239 F   0  0  0  0  0  0  0  0  0  0  0  0
   12.9066   -1.1212   -6.7089 F   0  0  0  0  0  0  0  0  0  0  0  0
   13.0790   -0.5805   -4.6360 F   0  0  0  0  0  0  0  0  0  0  0  0
   12.7351   -4.0613   -5.4985 C   0  0  0  0  0  0  0  0  0  0  0  0
   11.9316   -5.1598   -5.2184 C   0  0  0  0  0  0  0  0  0  0  0  0
   10.7292   -4.9525   -4.5660 C   0  0  0  0  0  0  0  0  0  0  0  0
    9.6650   -5.8745   -4.1596 C   0  0  0  0  0  0  0  0  0  0  0  0
    9.5819   -7.2025   -4.5050 C   0  0  0  0  0  0  0  0  0  0  0  0
    8.4708   -8.0189   -4.2167 C   0  0  0  0  0  0  0  0  0  0  0  0
    7.5851   -8.7295   -4.0429 N   0  0  0  0  0  0  0  0  0  0  0  0
   10.5536   -7.8825   -5.2601 C   0  0  0  0  0  0  0  0  0  0  0  0
   11.3066   -8.4811   -5.8889 N   0  0  0  0  0  0  0  0  0  0  0  0
   -6.8994    5.3537    4.9134 H   0  0  0  0  0  0  0  0  0  0  0  0
  -10.8288    8.8497    4.3571 H   0  0  0  0  0  0  0  0  0  0  0  0
  -13.0749    7.4856    0.9650 H   0  0  0  0  0  0  0  0  0  0  0  0
  -11.5332    5.5998    0.6521 H   0  0  0  0  0  0  0  0  0  0  0  0
   -6.9443    3.7372   -0.5357 H   0  0  0  0  0  0  0  0  0  0  0  0
   -8.9542    4.2458   -1.8510 H   0  0  0  0  0  0  0  0  0  0  0  0
  -10.0730    6.7983   -2.9299 H   0  0  0  0  0  0  0  0  0  0  0  0
  -10.9205    7.3969   -1.5038 H   0  0  0  0  0  0  0  0  0  0  0  0
  -11.0360    5.6870   -1.9661 H   0  0  0  0  0  0  0  0  0  0  0  0
   -9.0871    8.1548   -0.1354 H   0  0  0  0  0  0  0  0  0  0  0  0
   -7.0492    7.6530    1.1587 H   0  0  0  0  0  0  0  0  0  0  0  0
   -5.2650    6.3810   -1.3471 H   0  0  0  0  0  0  0  0  0  0  0  0
   -3.2367    7.5054   -2.1210 H   0  0  0  0  0  0  0  0  0  0  0  0
   -0.0758    7.2849   -0.6428 H   0  0  0  0  0  0  0  0  0  0  0  0
   -1.0138    8.2591   -1.7820 H   0  0  0  0  0  0  0  0  0  0  0  0
   -0.7257    8.8402   -0.1383 H   0  0  0  0  0  0  0  0  0  0  0  0
   -1.4317    6.9067    1.6958 H   0  0  0  0  0  0  0  0  0  0  0  0
   -3.4706    5.8171    2.4951 H   0  0  0  0  0  0  0  0  0  0  0  0
   -4.8737   -0.5168    2.5216 H   0  0  0  0  0  0  0  0  0  0  0  0
   -5.1819   -2.9513    2.3477 H   0  0  0  0  0  0  0  0  0  0  0  0
   -3.8744   -5.2076    2.3158 H   0  0  0  0  0  0  0  0  0  0  0  0
   -2.7502   -5.4652    3.6648 H   0  0  0  0  0  0  0  0  0  0  0  0
   -4.4668   -5.1981    3.9740 H   0  0  0  0  0  0  0  0  0  0  0  0
   -1.5529   -3.5764    4.4885 H   0  0  0  0  0  0  0  0  0  0  0  0
   -1.2377   -1.1443    4.6714 H   0  0  0  0  0  0  0  0  0  0  0  0
   -3.2414   -0.3202    6.2437 H   0  0  0  0  0  0  0  0  0  0  0  0
   -2.5675    0.7348    8.3513 H   0  0  0  0  0  0  0  0  0  0  0  0
   -0.4858    2.6364    9.1237 H   0  0  0  0  0  0  0  0  0  0  0  0
   -2.1692    3.0218    9.4692 H   0  0  0  0  0  0  0  0  0  0  0  0
   -1.1587    4.1848    8.5994 H   0  0  0  0  0  0  0  0  0  0  0  0
   -1.0674    4.0971    6.2033 H   0  0  0  0  0  0  0  0  0  0  0  0
   -1.6796    3.0236    4.0879 H   0  0  0  0  0  0  0  0  0  0  0  0
   -2.9008    1.1554   -1.7550 H   0  0  0  0  0  0  0  0  0  0  0  0
   -5.0209    2.1918   -2.4660 H   0  0  0  0  0  0  0  0  0  0  0  0
   -9.1919   -0.2823   -1.5441 H   0  0  0  0  0  0  0  0  0  0  0  0
   -9.9388    1.3182   -1.3296 H   0  0  0  0  0  0  0  0  0  0  0  0
   -8.8135    0.7138   -0.0972 H   0  0  0  0  0  0  0  0  0  0  0  0
   -7.1943   -0.9060   -0.4705 H   0  0  0  0  0  0  0  0  0  0  0  0
   -5.0907   -1.9270    0.2228 H   0  0  0  0  0  0  0  0  0  0  0  0
   -3.6168   -2.5933   -2.1849 H   0  0  0  0  0  0  0  0  0  0  0  0
   -3.3644   -5.0373   -2.3419 H   0  0  0  0  0  0  0  0  0  0  0  0
   -1.7422   -8.6214    0.8728 H   0  0  0  0  0  0  0  0  0  0  0  0
   -2.3406   -7.1321    1.6367 H   0  0  0  0  0  0  0  0  0  0  0  0
   -0.6187   -7.2743    1.1428 H   0  0  0  0  0  0  0  0  0  0  0  0
   -1.1043   -5.0327    1.2838 H   0  0  0  0  0  0  0  0  0  0  0  0
   -1.4027   -2.6264    1.4736 H   0  0  0  0  0  0  0  0  0  0  0  0
    1.3110   -0.9563    3.2276 H   0  0  0  0  0  0  0  0  0  0  0  0
    0.7511   -0.1553    5.4899 H   0  0  0  0  0  0  0  0  0  0  0  0
    1.7738    4.2752    6.3834 H   0  0  0  0  0  0  0  0  0  0  0  0
    3.2685    3.7347    7.2134 H   0  0  0  0  0  0  0  0  0  0  0  0
    1.7911    4.0451    8.1473 H   0  0  0  0  0  0  0  0  0  0  0  0
    3.3862    3.1667    4.9646 H   0  0  0  0  0  0  0  0  0  0  0  0
    3.9031    2.4034    2.7099 H   0  0  0  0  0  0  0  0  0  0  0  0
    3.9618    0.8355   -0.9022 H   0  0  0  0  0  0  0  0  0  0  0  0
    6.3158    0.9278   -1.5265 H   0  0  0  0  0  0  0  0  0  0  0  0
    8.6458   -0.6875   -1.9376 H   0  0  0  0  0  0  0  0  0  0  0  0
    8.4498    1.0827   -2.1962 H   0  0  0  0  0  0  0  0  0  0  0  0
   10.0450    0.4013   -1.8312 H   0  0  0  0  0  0  0  0  0  0  0  0
    7.4281   -0.0609    2.4776 H   0  0  0  0  0  0  0  0  0  0  0  0
    5.0498   -0.1707    3.1006 H   0  0  0  0  0  0  0  0  0  0  0  0
    0.9350   -4.4260    2.4245 H   0  0  0  0  0  0  0  0  0  0  0  0
    0.9066   -3.7392    4.7871 H   0  0  0  0  0  0  0  0  0  0  0  0
    3.0445   -1.4110    6.2969 H   0  0  0  0  0  0  0  0  0  0  0  0
    1.9346   -2.7336    6.6722 H   0  0  0  0  0  0  0  0  0  0  0  0
    3.6802   -3.0001    6.7099 H   0  0  0  0  0  0  0  0  0  0  0  0
    4.8072   -2.0865    4.3552 H   0  0  0  0  0  0  0  0  0  0  0  0
    4.8347   -2.7453    1.9857 H   0  0  0  0  0  0  0  0  0  0  0  0
    1.7390   -4.7293   -1.5299 H   0  0  0  0  0  0  0  0  0  0  0  0
    0.9360   -6.9468   -2.2069 H   0  0  0  0  0  0  0  0  0  0  0  0
    0.9294   -9.9336    0.0321 H   0  0  0  0  0  0  0  0  0  0  0  0
    1.7279   -9.6956   -1.5225 H   0  0  0  0  0  0  0  0  0  0  0  0
    0.0578   -9.1789   -1.3150 H   0  0  0  0  0  0  0  0  0  0  0  0
    2.1607   -8.5425    1.5538 H   0  0  0  0  0  0  0  0  0  0  0  0
    2.9896   -6.3332    2.2286 H   0  0  0  0  0  0  0  0  0  0  0  0
    6.7607   -0.9214   -3.0890 H   0  0  0  0  0  0  0  0  0  0  0  0
    6.0891    1.3417   -3.8613 H   0  0  0  0  0  0  0  0  0  0  0  0
    5.3177    2.7447   -5.7011 H   0  0  0  0  0  0  0  0  0  0  0  0
    3.6348    2.2299   -5.6141 H   0  0  0  0  0  0  0  0  0  0  0  0
    4.5332    2.0230   -7.1149 H   0  0  0  0  0  0  0  0  0  0  0  0
    4.0890   -0.4050   -7.1936 H   0  0  0  0  0  0  0  0  0  0  0  0
    4.7526   -2.6453   -6.4251 H   0  0  0  0  0  0  0  0  0  0  0  0
    5.5908   -5.7463   -4.9505 H   0  0  0  0  0  0  0  0  0  0  0  0
    6.7301   -7.0720   -6.6619 H   0  0  0  0  0  0  0  0  0  0  0  0
    9.4902   -7.0404   -7.7396 H   0  0  0  0  0  0  0  0  0  0  0  0
    8.1043   -6.9533   -8.8168 H   0  0  0  0  0  0  0  0  0  0  0  0
    9.3869   -5.7357   -8.9212 H   0  0  0  0  0  0  0  0  0  0  0  0
    9.2341   -3.7451   -7.5958 H   0  0  0  0  0  0  0  0  0  0  0  0
    8.0796   -2.4017   -5.8945 H   0  0  0  0  0  0  0  0  0  0  0  0
    7.5977   -6.6143   -2.4167 H   0  0  0  0  0  0  0  0  0  0  0  0
   10.8360   -1.5668   -4.1650 H   0  0  0  0  0  0  0  0  0  0  0  0
   13.6763   -4.2031   -6.0073 H   0  0  0  0  0  0  0  0  0  0  0  0
   12.2569   -6.1453   -5.5084 H   0  0  0  0  0  0  0  0  0  0  0  0
  1  2  2  0  0  0  0
  2  3  1  0  0  0  0
  3  4  2  0  0  0  0
  3  5  1  0  0  0  0
  5  6  2  0  0  0  0
  6  7  1  0  0  0  0
  7  8  1  0  0  0  0
  8  9  1  0  0  0  0
  8 10  1  0  0  0  0
  8 11  1  0  0  0  0
  7 12  2  0  0  0  0
 12 13  1  0  0  0  0
 13 14  2  0  0  0  0
 14 15  1  0  0  0  0
 15 16  2  0  0  0  0
 16 17  1  0  0  0  0
 17 18  3  0  0  0  0
 16 19  1  0  0  0  0
 19 20  3  0  0  0  0
  1 21  1  0  0  0  0
 21 22  2  0  0  0  0
 22 23  1  0  0  0  0
 23 24  1  0  0  0  0
 24 25  2  0  0  0  0
 25 26  1  0  0  0  0
 26 27  2  0  0  0  0
 27 28  1  0  0  0  0
 27 29  1  0  0  0  0
 29 30  2  0  0  0  0
 23 31  1  0  0  0  0
 31 32  2  0  0  0  0
 32 33  1  0  0  0  0
 33 34  2  0  0  0  0
 34 35  1  0  0  0  0
 34 36  1  0  0  0  0
 36 37  2  0  0  0  0
 22 38  1  0  0  0  0
 38 39  1  0  0  0  0
 39 40  1  0  0  0  0
 40 41  2  0  0  0  0
 41 42  1  0  0  0  0
 42 43  1  0  0  0  0
 43 44  2  0  0  0  0
 44 45  1  0  0  0  0
 45 46  2  0  0  0  0
 46 47  1  0  0  0  0
 46 48  1  0  0  0  0
 48 49  2  0  0  0  0
 42 50  1  0  0  0  0
 50 51  2  0  0  0  0
 51 52  1  0  0  0  0
 52 53  2  0  0  0  0
 53 54  1  0  0  0  0
 53 55  1  0  0  0  0
 55 56  2  0  0  0  0
 41 57  1  0  0  0  0
 57 58  1  0  0  0  0
 40 59  1  0  0  0  0
 59 60  2  0  0  0  0
 60 61  1  0  0  0  0
 61 62  1  0  0  0  0
 62 63  2  0  0  0  0
 63 64  1  0  0  0  0
 64 65  2  0  0  0  0
 65 66  1  0  0  0  0
 66 67  1  0  0  0  0
 65 68  1  0  0  0  0
 68 69  2  0  0  0  0
 61 70  1  0  0  0  0
 70 71  2  0  0  0  0
 71 72  1  0  0  0  0
 72 73  2  0  0  0  0
 73 74  1  0  0  0  0
 74 75  1  0  0  0  0
 73 76  1  0  0  0  0
 76 77  2  0  0  0  0
 60 78  1  0  0  0  0
 78 79  1  0  0  0  0
 79 80  1  0  0  0  0
 80 81  2  0  0  0  0
 81 82  1  0  0  0  0
 82 83  1  0  0  0  0
 83 84  2  0  0  0  0
 84 85  1  0  0  0  0
 85 86  2  0  0  0  0
 86 87  1  0  0  0  0
 87 88  1  0  0  0  0
 86 89  1  0  0  0  0
 89 90  2  0  0  0  0
 82 91  1  0  0  0  0
 91 92  2  0  0  0  0
 92 93  1  0  0  0  0
 93 94  2  0  0  0  0
 94 95  1  0  0  0  0
 95 96  1  0  0  0  0
 94 97  1  0  0  0  0
 97 98  2  0  0  0  0
 81 99  1  0  0  0  0
 99100  1  0  0  0  0
 80101  1  0  0  0  0
101102  2  0  0  0  0
102103  1  0  0  0  0
103104  1  0  0  0  0
104105  2  0  0  0  0
105106  1  0  0  0  0
106107  2  0  0  0  0
107108  1  0  0  0  0
107109  1  0  0  0  0
109110  2  0  0  0  0
103111  1  0  0  0  0
111112  2  0  0  0  0
112113  1  0  0  0  0
113114  2  0  0  0  0
114115  1  0  0  0  0
114116  1  0  0  0  0
116117  2  0  0  0  0
102118  1  0  0  0  0
118119  1  0  0  0  0
119120  1  0  0  0  0
120121  2  0  0  0  0
121122  1  0  0  0  0
122123  1  0  0  0  0
123124  2  0  0  0  0
124125  1  0  0  0  0
125126  2  0  0  0  0
126127  1  0  0  0  0
126128  1  0  0  0  0
128129  2  0  0  0  0
122130  1  0  0  0  0
130131  2  0  0  0  0
131132  1  0  0  0  0
132133  2  0  0  0  0
133134  1  0  0  0  0
133135  1  0  0  0  0
135136  2  0  0  0  0
121137  1  0  0  0  0
137138  1  0  0  0  0
120139  1  0  0  0  0
139140  2  0  0  0  0
140141  1  0  0  0  0
141142  2  0  0  0  0
141143  1  0  0  0  0
143144  2  0  0  0  0
144145  1  0  0  0  0
145146  1  0  0  0  0
146147  1  0  0  0  0
146148  1  0  0  0  0
146149  1  0  0  0  0
145150  2  0  0  0  0
150151  1  0  0  0  0
151152  2  0  0  0  0
152153  1  0  0  0  0
153154  2  0  0  0  0
154155  1  0  0  0  0
155156  3  0  0  0  0
154157  1  0  0  0  0
157158  3  0  0  0  0
 15  2  1  0  0  0  0
 58 21  1  0  0  0  0
100 59  1  0  0  0  0
138101  1  0  0  0  0
153140  1  0  0  0  0
 14  5  1  0  0  0  0
 30 24  1  0  0  0  0
 37 31  1  0  0  0  0
 57 38  2  0  0  0  0
 69 62  1  0  0  0  0
 77 70  1  0  0  0  0
 99 78  2  0  0  0  0
110104  1  0  0  0  0
117111  1  0  0  0  0
137118  2  0  0  0  0
152143  1  0  0  0  0
 49 43  1  0  0  0  0
 56 50  1  0  0  0  0
 90 83  1  0  0  0  0
 98 91  1  0  0  0  0
129123  1  0  0  0  0
136130  1  0  0  0  0
  1159  1  0  0  0  0
  6160  1  0  0  0  0
 12161  1  0  0  0  0
 13162  1  0  0  0  0
 25163  1  0  0  0  0
 26164  1  0  0  0  0
 28165  1  0  0  0  0
 28166  1  0  0  0  0
 28167  1  0  0  0  0
 29168  1  0  0  0  0
 30169  1  0  0  0  0
 32170  1  0  0  0  0
 33171  1  0  0  0  0
 35172  1  0  0  0  0
 35173  1  0  0  0  0
 35174  1  0  0  0  0
 36175  1  0  0  0  0
 37176  1  0  0  0  0
 44177  1  0  0  0  0
 45178  1  0  0  0  0
 47179  1  0  0  0  0
 47180  1  0  0  0  0
 47181  1  0  0  0  0
 48182  1  0  0  0  0
 49183  1  0  0  0  0
 51184  1  0  0  0  0
 52185  1  0  0  0  0
 54186  1  0  0  0  0
 54187  1  0  0  0  0
 54188  1  0  0  0  0
 55189  1  0  0  0  0
 56190  1  0  0  0  0
 63191  1  0  0  0  0
 64192  1  0  0  0  0
 67193  1  0  0  0  0
 67194  1  0  0  0  0
 67195  1  0  0  0  0
 68196  1  0  0  0  0
 69197  1  0  0  0  0
 71198  1  0  0  0  0
 72199  1  0  0  0  0
 75200  1  0  0  0  0
 75201  1  0  0  0  0
 75202  1  0  0  0  0
 76203  1  0  0  0  0
 77204  1  0  0  0  0
 84205  1  0  0  0  0
 85206  1  0  0  0  0
 88207  1  0  0  0  0
 88208  1  0  0  0  0
 88209  1  0  0  0  0
 89210  1  0  0  0  0
 90211  1  0  0  0  0
 92212  1  0  0  0  0
 93213  1  0  0  0  0
 96214  1  0  0  0  0
 96215  1  0  0  0  0
 96216  1  0  0  0  0
 97217  1  0  0  0  0
 98218  1  0  0  0  0
105219  1  0  0  0  0
106220  1  0  0  0  0
108221  1  0  0  0  0
108222  1  0  0  0  0
108223  1  0  0  0  0
109224  1  0  0  0  0
110225  1  0  0  0  0
112226  1  0  0  0  0
113227  1  0  0  0  0
115228  1  0  0  0  0
115229  1  0  0  0  0
115230  1  0  0  0  0
116231  1  0  0  0  0
117232  1  0  0  0  0
124233  1  0  0  0  0
125234  1  0  0  0  0
127235  1  0  0  0  0
127236  1  0  0  0  0
127237  1  0  0  0  0
128238  1  0  0  0  0
129239  1  0  0  0  0
131240  1  0  0  0  0
132241  1  0  0  0  0
134242  1  0  0  0  0
134243  1  0  0  0  0
134244  1  0  0  0  0
135245  1  0  0  0  0
136246  1  0  0  0  0
139247  1  0  0  0  0
144248  1  0  0  0  0
150249  1  0  0  0  0
151250  1  0  0  0  0
M  END
