175

C          6.94360        2.60090        6.93100
C          6.76530        3.19010        8.15470
C          5.50610        3.43600        8.89520
O          4.39170        3.00730        8.68700
C          5.87210        4.33550       10.01220
C          5.03470        4.91070       10.94620
C          5.61350        5.73100       11.90770
C          4.75130        6.41700       12.93200
F          4.49110        7.69370       12.58810
F          5.33190        6.46800       14.14100
F          3.56430        5.82200       13.10030
C          6.98540        5.96500       11.92090
C          7.81940        5.37860       10.98050
C          7.25800        4.55390       10.01620
C          7.85040        3.79830        8.91140
C          9.19540        3.66120        8.69570
C         10.18930        4.28230        9.48390
N         11.04820        4.75960       10.07660
C          9.80620        2.86490        7.70120
N         10.39420        2.23310        6.94400
C          6.02520        2.01420        6.03590
C          4.67610        1.76520        6.12810
C          4.12390        1.21040        4.96220
C          2.76850        0.87700        4.74690
C          1.75460        1.18700        5.73760
S          0.64190       -0.02670        6.29670
C         -0.13960        1.07550        7.37590
C         -1.30640        0.65010        8.19580
C         -2.59010        0.66000        7.36200
C          0.42690        2.31270        7.28470
Cl        -0.08770        3.67280        8.19360
C          1.50410        2.37910        6.36210
Cl         2.32600        3.84570        6.02450
C          2.46590        0.27200        3.54100
C          3.43870       -0.01370        2.54520
C          4.79090        0.34710        2.74010
C          5.80920        0.12730        1.73750
C          6.89840        0.91050        1.46180
C          7.69100        0.41940        0.40790
C          7.23340       -0.74940       -0.11930
C          7.76690       -1.52950       -1.27020
C          6.87710       -1.36690       -2.50570
S          5.79190       -1.26410        0.68730
C          5.09270        0.97080        3.95070
S          6.66060        1.50670        4.46970
C          2.83800       -0.55350        1.38720
C          1.47460       -0.63120        1.44800
S          0.85750       -0.13510        3.01130
C          0.58230       -0.94930        0.38600
C          0.75390       -0.70600       -0.97610
N          1.81090       -0.04880       -1.57740
C          2.48420        1.00610       -0.95290
C          1.82820        1.85060       -0.06040
C          2.52960        2.78440        0.67570
C          3.90280        2.90690        0.51450
S          4.91070        3.97740        1.48920
C          3.85810        4.34300        2.92070
C          4.54540        2.14320       -0.45720
C          3.85010        1.19710       -1.17440
C          2.20560       -0.47080       -2.86000
C          2.50380        0.45820       -3.85100
C          2.89720        0.04360       -5.10790
C          2.99270       -1.31200       -5.39540
S          3.48490       -1.96320       -6.95770
C          3.70380       -0.49300       -7.99930
C          2.69430       -2.24510       -4.40360
C          2.30810       -1.83140       -3.14910
C         -0.36440       -1.17080       -1.71010
S         -0.79990       -1.10070       -3.38690
C         -2.33530       -1.86240       -3.02530
C         -2.54230       -2.04800       -1.65100
N         -3.75070       -2.34860       -1.06670
C         -3.76490       -3.06160        0.13740
C         -4.66990       -2.73490        1.14840
C         -4.65100       -3.42360        2.33880
C         -3.72970       -4.45010        2.55110
S         -3.79310       -5.24390        4.12160
C         -2.35750       -6.35440        4.11040
C         -2.84200       -4.79080        1.53800
C         -2.86280       -4.10260        0.34180
C         -4.95050       -1.91400       -1.64780
C         -5.01670       -0.68030       -2.29530
C         -6.16340       -0.28330       -2.94820
C         -7.28030       -1.11140       -2.95700
S         -8.76680       -0.70190       -3.81490
C         -8.74430        1.11500       -3.79930
C         -7.23790       -2.32370       -2.27270
C         -6.09050       -2.71770       -1.61790
C         -1.38250       -1.69440       -0.92620
S         -0.98530       -1.65190        0.75630
C         -3.23820       -2.17640       -4.06820
C         -3.35420       -1.38730       -5.23190
C         -4.50010       -1.47830       -6.11320
N         -4.40570       -0.61440       -7.11980
S         -3.06420        0.24820       -6.95630
N         -2.50630       -0.43230       -5.61030
C         -5.54750       -2.40270       -5.89330
C         -5.25120       -3.39060       -4.92120
N         -5.96190       -4.48880       -4.67930
S         -5.27890       -5.30690       -3.47830
N         -4.07130       -4.29410       -3.16350
C         -4.13840       -3.26500       -4.00940
C         -6.79420       -2.41980       -6.54800
C         -7.47390       -1.34080       -7.05500
C         -7.23520        0.06820       -6.69820
O         -6.39250        0.53930       -5.95510
C         -8.34570        0.82960       -7.31060
C         -8.57780        2.17360       -7.27430
C         -9.73450        2.68960       -7.90080
C        -10.01900        4.06850       -7.89620
C        -11.14950        4.53990       -8.50280
F        -11.41830        5.85440       -8.49520
C        -12.04210        3.65530       -9.13850
F        -13.14410        4.14570       -9.72430
C        -11.79200        2.31170       -9.16030
C        -10.63480        1.79380       -8.54540
C        -10.36490        0.40560       -8.56790
C         -9.23210       -0.06960       -7.96320
C         -8.68780       -1.41880       -7.83720
C         -9.20420       -2.54160       -8.43220
C         -8.61200       -3.82190       -8.40920
N         -8.18930       -4.88790       -8.47360
C        -10.39340       -2.55440       -9.18870
N        -11.35600       -2.62650       -9.81100
H          7.95520        2.61380        6.54230
H          3.97230        4.72220       10.92320
H          7.40470        6.60930       12.67860
H          8.87740        5.57770       11.01310
H          4.11050        1.96280        7.01810
H         -1.40990        1.33500        9.03900
H         -1.13310       -0.35630        8.58090
H         -3.43330        0.34920        7.97270
H         -2.49800       -0.02120        6.51930
H         -2.78470        1.65970        6.98190
H          7.09780        1.84440        1.95380
H          8.57410        0.91990        0.05250
H          7.82070       -2.58850       -1.00650
H          8.77630       -1.17990       -1.49510
H          6.82050       -0.31980       -2.79600
H          7.28110       -1.93590       -3.33890
H          5.87050       -1.72550       -2.29910
H          3.38530       -0.87040        0.52210
H          0.76090        1.76170        0.07640
H          1.99410        3.40510        1.37590
H          3.08010        5.05120        2.65080
H          3.43350        3.41980        3.30370
H          4.51150        4.78700        3.66540
H          5.60400        2.27650       -0.61520
H          4.36930        0.57400       -1.88670
H          2.42360        1.51270       -3.63310
H          3.11860        0.78890       -5.85410
H          2.77030        0.05840       -8.06160
H          4.50610        0.12610       -7.60860
H          3.97560       -0.86950       -8.98050
H          2.77680       -3.29670       -4.63110
H          2.08760       -2.55850       -2.38140
H         -5.37410       -1.93080        0.99670
H         -5.34180       -3.16900        3.12750
H         -2.49260       -7.13550        3.36800
H         -1.45270       -5.78270        3.92660
H         -2.32160       -6.79440        5.10220
H         -2.13550       -5.59480        1.66290
H         -2.18840       -4.38170       -0.45350
H         -4.15490       -0.02940       -2.29660
H         -6.16990        0.65870       -3.46970
H         -7.95750        1.48500       -4.44870
H         -9.71340        1.42730       -4.17580
H         -8.60760        1.45960       -2.77890
H         -8.11040       -2.95840       -2.27120
H         -6.06160       -3.66240       -1.09510
H         -7.27990       -3.38810       -6.55690
H         -7.88700        2.84150       -6.78130
H         -9.34570        4.75990       -7.41390
H        -12.48510        1.64790       -9.65310
H        -11.06670       -0.24700       -9.06120
