
  xtb     02122222193D
 energy: -320.515797679332 gnorm: 0.000695800939 xtb: 6.4.1 (unknown)
176191  0     0  0            999 V2000
    1.6157    7.0174   -3.7796 C   0  0  0  0  0  0  0  0  0  0  0  0
    2.7157    7.5595   -4.3752 C   0  0  0  0  0  0  0  0  0  0  0  0
    4.1262    7.2042   -4.1060 C   0  0  0  0  0  0  0  0  0  0  0  0
    4.5678    6.4396   -3.2736 O   0  0  0  0  0  0  0  0  0  0  0  0
    4.9293    8.0532   -5.0135 C   0  0  0  0  0  0  0  0  0  0  0  0
    6.2989    8.0680   -5.1808 C   0  0  0  0  0  0  0  0  0  0  0  0
    6.8250    8.9536   -6.1152 C   0  0  0  0  0  0  0  0  0  0  0  0
    8.3154    9.0197   -6.3065 C   0  0  0  0  0  0  0  0  0  0  0  0
    8.8902    9.8786   -5.4418 F   0  0  0  0  0  0  0  0  0  0  0  0
    8.6667    9.4290   -7.5328 F   0  0  0  0  0  0  0  0  0  0  0  0
    8.9124    7.8352   -6.1098 F   0  0  0  0  0  0  0  0  0  0  0  0
    5.9985    9.8014   -6.8457 C   0  0  0  0  0  0  0  0  0  0  0  0
    4.6234    9.7865   -6.6654 C   0  0  0  0  0  0  0  0  0  0  0  0
    4.0814    8.9067   -5.7392 C   0  0  0  0  0  0  0  0  0  0  0  0
    2.7013    8.6670   -5.3185 C   0  0  0  0  0  0  0  0  0  0  0  0
    1.6170    9.3963   -5.7305 C   0  0  0  0  0  0  0  0  0  0  0  0
    1.6832   10.4591   -6.6576 C   0  0  0  0  0  0  0  0  0  0  0  0
    1.6648   11.3279   -7.4073 N   0  0  0  0  0  0  0  0  0  0  0  0
    0.2906    9.2340   -5.2765 C   0  0  0  0  0  0  0  0  0  0  0  0
   -0.8081    9.1837   -4.9446 N   0  0  0  0  0  0  0  0  0  0  0  0
    1.5154    5.8209   -2.9922 C   0  0  0  0  0  0  0  0  0  0  0  0
    2.2461    4.6674   -3.3292 C   0  0  0  0  0  0  0  0  0  0  0  0
    1.9720    3.4487   -2.7617 C   0  0  0  0  0  0  0  0  0  0  0  0
    0.9483    3.2863   -1.8173 C   0  0  0  0  0  0  0  0  0  0  0  0
    0.2457    4.4200   -1.4180 C   0  0  0  0  0  0  0  0  0  0  0  0
   -0.8014    4.6325   -0.4301 C   0  0  0  0  0  0  0  0  0  0  0  0
   -1.2941    3.6780    0.3979 C   0  0  0  0  0  0  0  0  0  0  0  0
   -2.3148    3.6758    1.3987 C   0  0  0  0  0  0  0  0  0  0  0  0
   -3.1686    4.7304    1.8433 C   0  0  0  0  0  0  0  0  0  0  0  0
   -4.0326    4.3339    2.8010 C   0  0  0  0  0  0  0  0  0  0  0  0
   -3.8523    2.6626    3.2044 S   0  0  0  0  0  0  0  0  0  0  0  0
   -2.5952    2.5011    2.0694 C   0  0  0  0  0  0  0  0  0  0  0  0
   -1.0906    6.0833   -0.4671 C   0  0  0  0  0  0  0  0  0  0  0  0
   -1.9290    6.7223    0.1305 O   0  0  0  0  0  0  0  0  0  0  0  0
   -0.1902    6.6513   -1.3597 N   0  0  0  0  0  0  0  0  0  0  0  0
   -0.0154    8.0829   -1.4979 C   0  0  0  0  0  0  0  0  0  0  0  0
    0.0530    8.7984   -0.1534 C   0  0  0  0  0  0  0  0  0  0  0  0
    0.5528    5.6774   -1.9807 C   0  0  0  0  0  0  0  0  0  0  0  0
    0.6813    1.9465   -1.2986 C   0  0  0  0  0  0  0  0  0  0  0  0
    1.5046    1.1829   -0.5020 C   0  0  0  0  0  0  0  0  0  0  0  0
    2.7538    1.5640   -0.0405 N   0  0  0  0  0  0  0  0  0  0  0  0
    3.7741    0.6153    0.0739 C   0  0  0  0  0  0  0  0  0  0  0  0
    4.7654    0.7755    1.0390 C   0  0  0  0  0  0  0  0  0  0  0  0
    5.7737   -0.1571    1.1791 C   0  0  0  0  0  0  0  0  0  0  0  0
    5.8048   -1.2780    0.3598 C   0  0  0  0  0  0  0  0  0  0  0  0
    7.0313   -2.5443    0.4476 S   0  0  0  0  0  0  0  0  0  0  0  0
    8.0820   -2.0453    1.8403 C   0  0  0  0  0  0  0  0  0  0  0  0
    4.8216   -1.4379   -0.6143 C   0  0  0  0  0  0  0  0  0  0  0  0
    3.8240   -0.5012   -0.7629 C   0  0  0  0  0  0  0  0  0  0  0  0
    3.0357    2.9320    0.1274 C   0  0  0  0  0  0  0  0  0  0  0  0
    4.1571    3.5025   -0.4653 C   0  0  0  0  0  0  0  0  0  0  0  0
    4.3691    4.8643   -0.4012 C   0  0  0  0  0  0  0  0  0  0  0  0
    3.4592    5.6760    0.2632 C   0  0  0  0  0  0  0  0  0  0  0  0
    3.5694    7.4358    0.3100 S   0  0  0  0  0  0  0  0  0  0  0  0
    5.1962    7.7878   -0.4070 C   0  0  0  0  0  0  0  0  0  0  0  0
    2.3727    5.1002    0.9174 C   0  0  0  0  0  0  0  0  0  0  0  0
    2.1662    3.7402    0.8559 C   0  0  0  0  0  0  0  0  0  0  0  0
    0.8794   -0.0482   -0.1615 C   0  0  0  0  0  0  0  0  0  0  0  0
    1.2816   -1.3392    0.9098 S   0  0  0  0  0  0  0  0  0  0  0  0
   -0.2393   -2.1465    0.5464 C   0  0  0  0  0  0  0  0  0  0  0  0
   -1.0243   -1.4251   -0.3360 C   0  0  0  0  0  0  0  0  0  0  0  0
   -2.2990   -1.7526   -0.7647 N   0  0  0  0  0  0  0  0  0  0  0  0
   -3.1380   -2.5761    0.0058 C   0  0  0  0  0  0  0  0  0  0  0  0
   -3.2965   -2.3653    1.3743 C   0  0  0  0  0  0  0  0  0  0  0  0
   -4.0639   -3.2304    2.1219 C   0  0  0  0  0  0  0  0  0  0  0  0
   -4.6972   -4.3156    1.5189 C   0  0  0  0  0  0  0  0  0  0  0  0
   -5.5909   -5.4037    2.5826 S   0  0  0  0  0  0  0  0  0  0  0  0
   -6.2309   -6.6831    1.4708 C   0  0  0  0  0  0  0  0  0  0  0  0
   -4.5898   -4.4934    0.1464 C   0  0  0  0  0  0  0  0  0  0  0  0
   -3.8165   -3.6285   -0.6009 C   0  0  0  0  0  0  0  0  0  0  0  0
   -2.7599   -1.3180   -2.0174 C   0  0  0  0  0  0  0  0  0  0  0  0
   -1.9240   -1.2643   -3.1291 C   0  0  0  0  0  0  0  0  0  0  0  0
   -2.4015   -0.8368   -4.3542 C   0  0  0  0  0  0  0  0  0  0  0  0
   -3.7297   -0.4623   -4.4914 C   0  0  0  0  0  0  0  0  0  0  0  0
   -4.4587    0.0925   -5.9985 S   0  0  0  0  0  0  0  0  0  0  0  0
   -3.0826    0.0826   -7.1826 C   0  0  0  0  0  0  0  0  0  0  0  0
   -4.5735   -0.5230   -3.3821 C   0  0  0  0  0  0  0  0  0  0  0  0
   -4.0968   -0.9414   -2.1624 C   0  0  0  0  0  0  0  0  0  0  0  0
   -0.3665   -0.2276   -0.7316 C   0  0  0  0  0  0  0  0  0  0  0  0
   -0.8264    1.1335   -1.7018 S   0  0  0  0  0  0  0  0  0  0  0  0
   -0.5830   -3.3155    1.3453 C   0  0  0  0  0  0  0  0  0  0  0  0
   -0.5218   -3.1898    2.7434 C   0  0  0  0  0  0  0  0  0  0  0  0
   -1.0162   -4.1468    3.5935 C   0  0  0  0  0  0  0  0  0  0  0  0
   -1.6210   -5.3141    3.1030 C   0  0  0  0  0  0  0  0  0  0  0  0
   -1.5909   -5.5066    1.7178 C   0  0  0  0  0  0  0  0  0  0  0  0
   -2.0742   -6.5991    0.9038 C   0  0  0  0  0  0  0  0  0  0  0  0
   -2.5284   -7.7844    1.3881 C   0  0  0  0  0  0  0  0  0  0  0  0
   -3.2012   -8.8682    0.7482 C   0  0  0  0  0  0  0  0  0  0  0  0
   -3.7289   -8.9270   -0.5791 C   0  0  0  0  0  0  0  0  0  0  0  0
   -4.3830  -10.0802   -0.8293 C   0  0  0  0  0  0  0  0  0  0  0  0
   -4.3887  -11.1436    0.5347 S   0  0  0  0  0  0  0  0  0  0  0  0
   -3.5005  -10.0207    1.4489 C   0  0  0  0  0  0  0  0  0  0  0  0
   -1.7930   -6.2030   -0.4973 C   0  0  0  0  0  0  0  0  0  0  0  0
   -2.0144   -6.7906   -1.5372 O   0  0  0  0  0  0  0  0  0  0  0  0
   -1.1338   -4.9935   -0.4447 N   0  0  0  0  0  0  0  0  0  0  0  0
   -0.4603   -4.4644   -1.6057 C   0  0  0  0  0  0  0  0  0  0  0  0
    1.0561   -4.5699   -1.4742 C   0  0  0  0  0  0  0  0  0  0  0  0
   -1.0473   -4.5330    0.8555 C   0  0  0  0  0  0  0  0  0  0  0  0
   -2.3510   -6.1892    3.9871 C   0  0  0  0  0  0  0  0  0  0  0  0
   -1.9669   -6.5843    5.2276 C   0  0  0  0  0  0  0  0  0  0  0  0
   -0.6371   -6.3400    5.8513 C   0  0  0  0  0  0  0  0  0  0  0  0
    0.3868   -5.9855    5.3179 O   0  0  0  0  0  0  0  0  0  0  0  0
   -0.8111   -6.6961    7.2805 C   0  0  0  0  0  0  0  0  0  0  0  0
    0.0871   -6.5432    8.3172 C   0  0  0  0  0  0  0  0  0  0  0  0
   -0.3237   -6.9315    9.5877 C   0  0  0  0  0  0  0  0  0  0  0  0
    0.6227   -6.8066   10.7508 C   0  0  0  0  0  0  0  0  0  0  0  0
    1.5577   -5.8668   10.5618 F   0  0  0  0  0  0  0  0  0  0  0  0
    1.2821   -7.9576   10.9833 F   0  0  0  0  0  0  0  0  0  0  0  0
   -0.0066   -6.4985   11.8952 F   0  0  0  0  0  0  0  0  0  0  0  0
   -1.5907   -7.4660    9.8033 C   0  0  0  0  0  0  0  0  0  0  0  0
   -2.4839   -7.6271    8.7551 C   0  0  0  0  0  0  0  0  0  0  0  0
   -2.0904   -7.2412    7.4817 C   0  0  0  0  0  0  0  0  0  0  0  0
   -2.7836   -7.3007    6.1954 C   0  0  0  0  0  0  0  0  0  0  0  0
   -3.9374   -7.9944    5.9531 C   0  0  0  0  0  0  0  0  0  0  0  0
   -4.6781   -8.6710    6.9470 C   0  0  0  0  0  0  0  0  0  0  0  0
   -5.3261   -9.2383    7.7053 N   0  0  0  0  0  0  0  0  0  0  0  0
   -4.5001   -8.2194    4.6799 C   0  0  0  0  0  0  0  0  0  0  0  0
   -4.9855   -8.5103    3.6807 N   0  0  0  0  0  0  0  0  0  0  0  0
    0.6632    7.4847   -3.9932 H   0  0  0  0  0  0  0  0  0  0  0  0
    6.9324    7.4053   -4.6112 H   0  0  0  0  0  0  0  0  0  0  0  0
    6.4348   10.4769   -7.5655 H   0  0  0  0  0  0  0  0  0  0  0  0
    4.0057   10.4520   -7.2448 H   0  0  0  0  0  0  0  0  0  0  0  0
    2.9936    4.7337   -4.1022 H   0  0  0  0  0  0  0  0  0  0  0  0
    2.5300    2.5786   -3.0729 H   0  0  0  0  0  0  0  0  0  0  0  0
   -0.8386    2.7025    0.2954 H   0  0  0  0  0  0  0  0  0  0  0  0
   -3.1181    5.7276    1.4502 H   0  0  0  0  0  0  0  0  0  0  0  0
   -4.7781    4.9133    3.3078 H   0  0  0  0  0  0  0  0  0  0  0  0
   -2.1167    1.5495    1.9372 H   0  0  0  0  0  0  0  0  0  0  0  0
   -0.8275    8.4982   -2.1057 H   0  0  0  0  0  0  0  0  0  0  0  0
    0.9327    8.2407   -2.0198 H   0  0  0  0  0  0  0  0  0  0  0  0
   -0.8820    8.7007    0.3882 H   0  0  0  0  0  0  0  0  0  0  0  0
    0.2493    9.8527   -0.3275 H   0  0  0  0  0  0  0  0  0  0  0  0
    0.8608    8.3885    0.4489 H   0  0  0  0  0  0  0  0  0  0  0  0
    4.7405    1.6401    1.6855 H   0  0  0  0  0  0  0  0  0  0  0  0
    6.5231   -0.0000    1.9378 H   0  0  0  0  0  0  0  0  0  0  0  0
    8.8321   -2.8246    1.9326 H   0  0  0  0  0  0  0  0  0  0  0  0
    8.5632   -1.0959    1.6240 H   0  0  0  0  0  0  0  0  0  0  0  0
    7.4911   -1.9929    2.7500 H   0  0  0  0  0  0  0  0  0  0  0  0
    4.8577   -2.3030   -1.2585 H   0  0  0  0  0  0  0  0  0  0  0  0
    3.0834   -0.6272   -1.5386 H   0  0  0  0  0  0  0  0  0  0  0  0
    4.8513    2.8765   -1.0058 H   0  0  0  0  0  0  0  0  0  0  0  0
    5.2229    5.2802   -0.9072 H   0  0  0  0  0  0  0  0  0  0  0  0
    5.2294    7.4264   -1.4305 H   0  0  0  0  0  0  0  0  0  0  0  0
    5.9698    7.3267    0.2001 H   0  0  0  0  0  0  0  0  0  0  0  0
    5.3020    8.8682   -0.3864 H   0  0  0  0  0  0  0  0  0  0  0  0
    1.6873    5.7304    1.4643 H   0  0  0  0  0  0  0  0  0  0  0  0
    1.3188    3.2989    1.3581 H   0  0  0  0  0  0  0  0  0  0  0  0
   -2.8108   -1.5262    1.8486 H   0  0  0  0  0  0  0  0  0  0  0  0
   -4.1796   -3.0777    3.1838 H   0  0  0  0  0  0  0  0  0  0  0  0
   -5.4091   -7.1630    0.9483 H   0  0  0  0  0  0  0  0  0  0  0  0
   -6.9479   -6.2482    0.7803 H   0  0  0  0  0  0  0  0  0  0  0  0
   -6.7196   -7.4057    2.1164 H   0  0  0  0  0  0  0  0  0  0  0  0
   -5.0867   -5.3086   -0.3529 H   0  0  0  0  0  0  0  0  0  0  0  0
   -3.7212   -3.7821   -1.6656 H   0  0  0  0  0  0  0  0  0  0  0  0
   -0.8889   -1.5631   -3.0483 H   0  0  0  0  0  0  0  0  0  0  0  0
   -1.7235   -0.8099   -5.1916 H   0  0  0  0  0  0  0  0  0  0  0  0
   -2.7103   -0.9293   -7.3133 H   0  0  0  0  0  0  0  0  0  0  0  0
   -3.5006    0.4436   -8.1172 H   0  0  0  0  0  0  0  0  0  0  0  0
   -2.2986    0.7545   -6.8456 H   0  0  0  0  0  0  0  0  0  0  0  0
   -5.6058   -0.2290   -3.4924 H   0  0  0  0  0  0  0  0  0  0  0  0
   -4.7541   -0.9794   -1.3068 H   0  0  0  0  0  0  0  0  0  0  0  0
   -0.1206   -2.2755    3.1548 H   0  0  0  0  0  0  0  0  0  0  0  0
   -1.0149   -3.9591    4.6547 H   0  0  0  0  0  0  0  0  0  0  0  0
   -2.3846   -7.9411    2.4522 H   0  0  0  0  0  0  0  0  0  0  0  0
   -3.5913   -8.1442   -1.3002 H   0  0  0  0  0  0  0  0  0  0  0  0
   -4.8696  -10.3874   -1.7332 H   0  0  0  0  0  0  0  0  0  0  0  0
   -3.2420  -10.2473    2.4645 H   0  0  0  0  0  0  0  0  0  0  0  0
   -0.8074   -5.0678   -2.4494 H   0  0  0  0  0  0  0  0  0  0  0  0
   -0.7554   -3.4287   -1.7705 H   0  0  0  0  0  0  0  0  0  0  0  0
    1.5291   -4.2043   -2.3818 H   0  0  0  0  0  0  0  0  0  0  0  0
    1.3501   -5.6058   -1.3227 H   0  0  0  0  0  0  0  0  0  0  0  0
    1.4160   -3.9818   -0.6330 H   0  0  0  0  0  0  0  0  0  0  0  0
   -3.3410   -6.4650    3.6396 H   0  0  0  0  0  0  0  0  0  0  0  0
    1.0670   -6.1273    8.1399 H   0  0  0  0  0  0  0  0  0  0  0  0
   -1.8809   -7.7542   10.8021 H   0  0  0  0  0  0  0  0  0  0  0  0
   -3.4612   -8.0383    8.9461 H   0  0  0  0  0  0  0  0  0  0  0  0
  1  2  2  0  0  0  0
  2  3  1  0  0  0  0
  3  4  2  0  0  0  0
  3  5  1  0  0  0  0
  5  6  2  0  0  0  0
  6  7  1  0  0  0  0
  7  8  1  0  0  0  0
  8  9  1  0  0  0  0
  8 10  1  0  0  0  0
  8 11  1  0  0  0  0
  7 12  2  0  0  0  0
 12 13  1  0  0  0  0
 13 14  2  0  0  0  0
 14 15  1  0  0  0  0
 15 16  2  0  0  0  0
 16 17  1  0  0  0  0
 17 18  3  0  0  0  0
 16 19  1  0  0  0  0
 19 20  3  0  0  0  0
  1 21  1  0  0  0  0
 21 22  2  0  0  0  0
 22 23  1  0  0  0  0
 23 24  2  0  0  0  0
 24 25  1  0  0  0  0
 25 26  1  0  0  0  0
 26 27  2  0  0  0  0
 27 28  1  0  0  0  0
 28 29  1  0  0  0  0
 29 30  2  0  0  0  0
 30 31  1  0  0  0  0
 31 32  1  0  0  0  0
 26 33  1  0  0  0  0
 33 34  2  0  0  0  0
 33 35  1  0  0  0  0
 35 36  1  0  0  0  0
 36 37  1  0  0  0  0
 35 38  1  0  0  0  0
 24 39  1  0  0  0  0
 39 40  2  0  0  0  0
 40 41  1  0  0  0  0
 41 42  1  0  0  0  0
 42 43  2  0  0  0  0
 43 44  1  0  0  0  0
 44 45  2  0  0  0  0
 45 46  1  0  0  0  0
 46 47  1  0  0  0  0
 45 48  1  0  0  0  0
 48 49  2  0  0  0  0
 41 50  1  0  0  0  0
 50 51  2  0  0  0  0
 51 52  1  0  0  0  0
 52 53  2  0  0  0  0
 53 54  1  0  0  0  0
 54 55  1  0  0  0  0
 53 56  1  0  0  0  0
 56 57  2  0  0  0  0
 40 58  1  0  0  0  0
 58 59  1  0  0  0  0
 59 60  1  0  0  0  0
 60 61  2  0  0  0  0
 61 62  1  0  0  0  0
 62 63  1  0  0  0  0
 63 64  2  0  0  0  0
 64 65  1  0  0  0  0
 65 66  2  0  0  0  0
 66 67  1  0  0  0  0
 67 68  1  0  0  0  0
 66 69  1  0  0  0  0
 69 70  2  0  0  0  0
 62 71  1  0  0  0  0
 71 72  2  0  0  0  0
 72 73  1  0  0  0  0
 73 74  2  0  0  0  0
 74 75  1  0  0  0  0
 75 76  1  0  0  0  0
 74 77  1  0  0  0  0
 77 78  2  0  0  0  0
 61 79  1  0  0  0  0
 79 80  1  0  0  0  0
 60 81  1  0  0  0  0
 81 82  2  0  0  0  0
 82 83  1  0  0  0  0
 83 84  2  0  0  0  0
 84 85  1  0  0  0  0
 85 86  1  0  0  0  0
 86 87  2  0  0  0  0
 87 88  1  0  0  0  0
 88 89  1  0  0  0  0
 89 90  2  0  0  0  0
 90 91  1  0  0  0  0
 91 92  1  0  0  0  0
 86 93  1  0  0  0  0
 93 94  2  0  0  0  0
 93 95  1  0  0  0  0
 95 96  1  0  0  0  0
 96 97  1  0  0  0  0
 95 98  1  0  0  0  0
 84 99  1  0  0  0  0
 99100  2  0  0  0  0
100101  1  0  0  0  0
101102  2  0  0  0  0
101103  1  0  0  0  0
103104  2  0  0  0  0
104105  1  0  0  0  0
105106  1  0  0  0  0
106107  1  0  0  0  0
106108  1  0  0  0  0
106109  1  0  0  0  0
105110  2  0  0  0  0
110111  1  0  0  0  0
111112  2  0  0  0  0
112113  1  0  0  0  0
113114  2  0  0  0  0
114115  1  0  0  0  0
115116  3  0  0  0  0
114117  1  0  0  0  0
117118  3  0  0  0  0
 15  2  1  0  0  0  0
 38 21  1  0  0  0  0
 80 39  1  0  0  0  0
 98 81  1  0  0  0  0
113100  1  0  0  0  0
 14  5  1  0  0  0  0
 38 25  2  0  0  0  0
 49 42  1  0  0  0  0
 57 50  1  0  0  0  0
 79 58  2  0  0  0  0
 98 85  2  0  0  0  0
112103  1  0  0  0  0
 32 28  2  0  0  0  0
 70 63  1  0  0  0  0
 78 71  1  0  0  0  0
 92 88  2  0  0  0  0
  1119  1  0  0  0  0
  6120  1  0  0  0  0
 12121  1  0  0  0  0
 13122  1  0  0  0  0
 22123  1  0  0  0  0
 23124  1  0  0  0  0
 27125  1  0  0  0  0
 29126  1  0  0  0  0
 30127  1  0  0  0  0
 32128  1  0  0  0  0
 36129  1  0  0  0  0
 36130  1  0  0  0  0
 37131  1  0  0  0  0
 37132  1  0  0  0  0
 37133  1  0  0  0  0
 43134  1  0  0  0  0
 44135  1  0  0  0  0
 47136  1  0  0  0  0
 47137  1  0  0  0  0
 47138  1  0  0  0  0
 48139  1  0  0  0  0
 49140  1  0  0  0  0
 51141  1  0  0  0  0
 52142  1  0  0  0  0
 55143  1  0  0  0  0
 55144  1  0  0  0  0
 55145  1  0  0  0  0
 56146  1  0  0  0  0
 57147  1  0  0  0  0
 64148  1  0  0  0  0
 65149  1  0  0  0  0
 68150  1  0  0  0  0
 68151  1  0  0  0  0
 68152  1  0  0  0  0
 69153  1  0  0  0  0
 70154  1  0  0  0  0
 72155  1  0  0  0  0
 73156  1  0  0  0  0
 76157  1  0  0  0  0
 76158  1  0  0  0  0
 76159  1  0  0  0  0
 77160  1  0  0  0  0
 78161  1  0  0  0  0
 82162  1  0  0  0  0
 83163  1  0  0  0  0
 87164  1  0  0  0  0
 89165  1  0  0  0  0
 90166  1  0  0  0  0
 92167  1  0  0  0  0
 96168  1  0  0  0  0
 96169  1  0  0  0  0
 97170  1  0  0  0  0
 97171  1  0  0  0  0
 97172  1  0  0  0  0
 99173  1  0  0  0  0
104174  1  0  0  0  0
110175  1  0  0  0  0
111176  1  0  0  0  0
M  END
