
  xtb     02062210163D
 energy: -378.345468048934 gnorm: 0.000594969892 xtb: 6.4.1 (unknown)
220237  0     0  0            999 V2000
    6.2728   -4.5147    2.3434 C   0  0  0  0  0  0  0  0  0  0  0  0
    7.1590   -5.2029    1.5407 C   0  0  0  0  0  0  0  0  0  0  0  0
    7.4564   -4.9389    0.1272 C   0  0  0  0  0  0  0  0  0  0  0  0
    6.7893   -4.3271   -0.6854 O   0  0  0  0  0  0  0  0  0  0  0  0
    8.7671   -5.5770   -0.1316 C   0  0  0  0  0  0  0  0  0  0  0  0
    9.5289   -5.5462   -1.2787 C   0  0  0  0  0  0  0  0  0  0  0  0
   10.7516   -6.2202   -1.2691 C   0  0  0  0  0  0  0  0  0  0  0  0
   11.6441   -6.2338   -2.4563 C   0  0  0  0  0  0  0  0  0  0  0  0
   12.7158   -6.7861   -2.4934 O   0  0  0  0  0  0  0  0  0  0  0  0
   11.1278   -5.5589   -3.4920 O   0  0  0  0  0  0  0  0  0  0  0  0
   11.9237   -5.5259   -4.6669 C   0  0  0  0  0  0  0  0  0  0  0  0
   11.1704   -6.9029   -0.1273 C   0  0  0  0  0  0  0  0  0  0  0  0
   10.3942   -6.9444    1.0209 C   0  0  0  0  0  0  0  0  0  0  0  0
    9.1809   -6.2744    1.0181 C   0  0  0  0  0  0  0  0  0  0  0  0
    8.1322   -6.1499    2.0279 C   0  0  0  0  0  0  0  0  0  0  0  0
    8.0233   -6.9205    3.1604 C   0  0  0  0  0  0  0  0  0  0  0  0
    6.8377   -7.0444    3.9037 C   0  0  0  0  0  0  0  0  0  0  0  0
    5.8722   -7.2811    4.4812 N   0  0  0  0  0  0  0  0  0  0  0  0
    9.0253   -7.7948    3.6242 C   0  0  0  0  0  0  0  0  0  0  0  0
    9.8134   -8.5045    4.0647 N   0  0  0  0  0  0  0  0  0  0  0  0
    5.3253   -3.5499    1.9930 C   0  0  0  0  0  0  0  0  0  0  0  0
    4.7087   -2.6401    2.8900 C   0  0  0  0  0  0  0  0  0  0  0  0
    5.0326   -2.4651    4.2186 N   0  0  0  0  0  0  0  0  0  0  0  0
    5.1856   -1.1587    4.7058 C   0  0  0  0  0  0  0  0  0  0  0  0
    4.8432   -0.8369    6.0197 C   0  0  0  0  0  0  0  0  0  0  0  0
    5.0442    0.4373    6.4971 C   0  0  0  0  0  0  0  0  0  0  0  0
    5.5672    1.4305    5.6704 C   0  0  0  0  0  0  0  0  0  0  0  0
    5.7766    3.0253    6.3941 S   0  0  0  0  0  0  0  0  0  0  0  0
    6.2754    4.0776    5.0015 C   0  0  0  0  0  0  0  0  0  0  0  0
    5.8970    1.1202    4.3588 C   0  0  0  0  0  0  0  0  0  0  0  0
    5.7162   -0.1644    3.8873 C   0  0  0  0  0  0  0  0  0  0  0  0
    5.1351   -3.5497    5.1032 C   0  0  0  0  0  0  0  0  0  0  0  0
    6.1352   -3.5778    6.0766 C   0  0  0  0  0  0  0  0  0  0  0  0
    6.2048   -4.6277    6.9636 C   0  0  0  0  0  0  0  0  0  0  0  0
    5.2817   -5.6707    6.8994 C   0  0  0  0  0  0  0  0  0  0  0  0
    5.4514   -6.9609    8.0819 S   0  0  0  0  0  0  0  0  0  0  0  0
    4.5489   -8.3373    7.3153 C   0  0  0  0  0  0  0  0  0  0  0  0
    4.2794   -5.6396    5.9353 C   0  0  0  0  0  0  0  0  0  0  0  0
    4.2111   -4.5900    5.0432 C   0  0  0  0  0  0  0  0  0  0  0  0
    3.7791   -1.8264    2.2244 C   0  0  0  0  0  0  0  0  0  0  0  0
    2.6951   -0.5649    2.7311 S   0  0  0  0  0  0  0  0  0  0  0  0
    2.0496   -0.4429    1.0976 C   0  0  0  0  0  0  0  0  0  0  0  0
    2.7246   -1.2766    0.2104 C   0  0  0  0  0  0  0  0  0  0  0  0
    2.5612   -1.2366   -1.1696 N   0  0  0  0  0  0  0  0  0  0  0  0
    2.4948   -2.4363   -1.8811 C   0  0  0  0  0  0  0  0  0  0  0  0
    1.9044   -3.5574   -1.2976 C   0  0  0  0  0  0  0  0  0  0  0  0
    1.8665   -4.7548   -1.9759 C   0  0  0  0  0  0  0  0  0  0  0  0
    2.4038   -4.8579   -3.2559 C   0  0  0  0  0  0  0  0  0  0  0  0
    2.3108   -6.4416   -4.0339 S   0  0  0  0  0  0  0  0  0  0  0  0
    2.6868   -6.0798   -5.7731 C   0  0  0  0  0  0  0  0  0  0  0  0
    2.9852   -3.7433   -3.8435 C   0  0  0  0  0  0  0  0  0  0  0  0
    3.0322   -2.5456   -3.1604 C   0  0  0  0  0  0  0  0  0  0  0  0
    2.5560    0.0117   -1.8020 C   0  0  0  0  0  0  0  0  0  0  0  0
    3.3419    1.0571   -1.3158 C   0  0  0  0  0  0  0  0  0  0  0  0
    3.2505    2.3139   -1.8728 C   0  0  0  0  0  0  0  0  0  0  0  0
    2.3596    2.5605   -2.9154 C   0  0  0  0  0  0  0  0  0  0  0  0
    2.2168    4.2297   -3.4825 S   0  0  0  0  0  0  0  0  0  0  0  0
    0.6123    4.2382   -4.3326 C   0  0  0  0  0  0  0  0  0  0  0  0
    1.6277    1.5082   -3.4471 C   0  0  0  0  0  0  0  0  0  0  0  0
    1.7299    0.2464   -2.8975 C   0  0  0  0  0  0  0  0  0  0  0  0
    3.6676   -2.0932    0.8653 C   0  0  0  0  0  0  0  0  0  0  0  0
    4.7556   -3.3156    0.3358 S   0  0  0  0  0  0  0  0  0  0  0  0
    0.9143    0.3395    0.7257 C   0  0  0  0  0  0  0  0  0  0  0  0
    0.4937    1.6116    1.0849 C   0  0  0  0  0  0  0  0  0  0  0  0
    1.0618    2.4357    2.0486 N   0  0  0  0  0  0  0  0  0  0  0  0
    1.1559    3.8011    1.7312 C   0  0  0  0  0  0  0  0  0  0  0  0
    0.8197    4.8031    2.6411 C   0  0  0  0  0  0  0  0  0  0  0  0
    0.9033    6.1267    2.2699 C   0  0  0  0  0  0  0  0  0  0  0  0
    1.3119    6.4836    0.9854 C   0  0  0  0  0  0  0  0  0  0  0  0
    1.3744    8.2095    0.6242 S   0  0  0  0  0  0  0  0  0  0  0  0
    1.7783    8.2653   -1.1448 C   0  0  0  0  0  0  0  0  0  0  0  0
    1.6428    5.4892    0.0755 C   0  0  0  0  0  0  0  0  0  0  0  0
    1.5643    4.1638    0.4512 C   0  0  0  0  0  0  0  0  0  0  0  0
    1.2120    1.9846    3.3615 C   0  0  0  0  0  0  0  0  0  0  0  0
    2.1541    2.5717    4.2089 C   0  0  0  0  0  0  0  0  0  0  0  0
    2.2970    2.1288    5.5033 C   0  0  0  0  0  0  0  0  0  0  0  0
    1.5249    1.0709    5.9773 C   0  0  0  0  0  0  0  0  0  0  0  0
    1.7954    0.5483    7.6425 S   0  0  0  0  0  0  0  0  0  0  0  0
    1.2530   -1.1867    7.6044 C   0  0  0  0  0  0  0  0  0  0  0  0
    0.5734    0.4955    5.1495 C   0  0  0  0  0  0  0  0  0  0  0  0
    0.4153    0.9526    3.8558 C   0  0  0  0  0  0  0  0  0  0  0  0
   -0.6247    2.0180    0.3120 C   0  0  0  0  0  0  0  0  0  0  0  0
   -1.5717    3.4653    0.2627 S   0  0  0  0  0  0  0  0  0  0  0  0
   -2.5885    2.7612   -0.9723 C   0  0  0  0  0  0  0  0  0  0  0  0
   -2.2857    1.4319   -1.2395 C   0  0  0  0  0  0  0  0  0  0  0  0
   -3.0838    0.5633   -1.9555 N   0  0  0  0  0  0  0  0  0  0  0  0
   -4.4772    0.6559   -1.9461 C   0  0  0  0  0  0  0  0  0  0  0  0
   -5.1611    1.1880   -0.8510 C   0  0  0  0  0  0  0  0  0  0  0  0
   -6.5187    1.4208   -0.9117 C   0  0  0  0  0  0  0  0  0  0  0  0
   -7.2316    1.0779   -2.0531 C   0  0  0  0  0  0  0  0  0  0  0  0
   -8.9350    1.4767   -2.2968 S   0  0  0  0  0  0  0  0  0  0  0  0
   -9.2775    2.7110   -1.0083 C   0  0  0  0  0  0  0  0  0  0  0  0
   -6.5824    0.4044   -3.0848 C   0  0  0  0  0  0  0  0  0  0  0  0
   -5.2183    0.2114   -3.0407 C   0  0  0  0  0  0  0  0  0  0  0  0
   -2.4624   -0.4899   -2.6650 C   0  0  0  0  0  0  0  0  0  0  0  0
   -1.5652   -0.2025   -3.6884 C   0  0  0  0  0  0  0  0  0  0  0  0
   -0.9680   -1.2287   -4.3879 C   0  0  0  0  0  0  0  0  0  0  0  0
   -1.2399   -2.5569   -4.0627 C   0  0  0  0  0  0  0  0  0  0  0  0
   -0.4067   -3.7821   -5.0140 S   0  0  0  0  0  0  0  0  0  0  0  0
   -1.0168   -5.3510   -4.3415 C   0  0  0  0  0  0  0  0  0  0  0  0
   -2.1387   -2.8426   -3.0427 C   0  0  0  0  0  0  0  0  0  0  0  0
   -2.7527   -1.8131   -2.3564 C   0  0  0  0  0  0  0  0  0  0  0  0
   -1.1173    1.0443   -0.5402 C   0  0  0  0  0  0  0  0  0  0  0  0
   -0.1814   -0.4017   -0.4523 S   0  0  0  0  0  0  0  0  0  0  0  0
   -3.6772    3.5034   -1.5497 C   0  0  0  0  0  0  0  0  0  0  0  0
   -3.9306    3.4984   -2.9111 C   0  0  0  0  0  0  0  0  0  0  0  0
   -3.0195    2.9524   -3.7408 F   0  0  0  0  0  0  0  0  0  0  0  0
   -5.0852    4.0575   -3.4654 C   0  0  0  0  0  0  0  0  0  0  0  0
   -5.1408    4.1989   -4.7921 F   0  0  0  0  0  0  0  0  0  0  0  0
   -6.1067    4.5391   -2.6563 C   0  0  0  0  0  0  0  0  0  0  0  0
   -5.8191    4.6651   -1.2642 C   0  0  0  0  0  0  0  0  0  0  0  0
   -6.7568    5.1703   -0.4451 N   0  0  0  0  0  0  0  0  0  0  0  0
   -6.4900    5.3141    0.8320 C   0  0  0  0  0  0  0  0  0  0  0  0
   -7.5751    5.9347    1.6563 C   0  0  0  0  0  0  0  0  0  0  0  0
   -7.4644    7.4610    1.5906 C   0  0  0  0  0  0  0  0  0  0  0  0
   -5.2225    4.9326    1.3549 C   0  0  0  0  0  0  0  0  0  0  0  0
   -4.3296    4.3662    0.5796 N   0  0  0  0  0  0  0  0  0  0  0  0
   -4.5944    4.2114   -0.7247 C   0  0  0  0  0  0  0  0  0  0  0  0
   -4.8404    5.0763    2.7960 C   0  0  0  0  0  0  0  0  0  0  0  0
   -5.2414    3.8227    3.5783 C   0  0  0  0  0  0  0  0  0  0  0  0
   -7.4230    4.9188   -3.0856 C   0  0  0  0  0  0  0  0  0  0  0  0
   -8.1887    4.2996   -4.0187 C   0  0  0  0  0  0  0  0  0  0  0  0
   -7.8556    3.0277   -4.7180 C   0  0  0  0  0  0  0  0  0  0  0  0
   -6.8204    2.4005   -4.6728 O   0  0  0  0  0  0  0  0  0  0  0  0
   -9.0744    2.6620   -5.4675 C   0  0  0  0  0  0  0  0  0  0  0  0
   -9.2858    1.5541   -6.2603 C   0  0  0  0  0  0  0  0  0  0  0  0
  -10.5304    1.4147   -6.8722 C   0  0  0  0  0  0  0  0  0  0  0  0
  -10.8465    0.2575   -7.7503 C   0  0  0  0  0  0  0  0  0  0  0  0
  -11.9036    0.1008   -8.3092 O   0  0  0  0  0  0  0  0  0  0  0  0
   -9.8232   -0.5992   -7.8557 O   0  0  0  0  0  0  0  0  0  0  0  0
  -10.0481   -1.7307   -8.6832 C   0  0  0  0  0  0  0  0  0  0  0  0
  -11.5236    2.3747   -6.6732 C   0  0  0  0  0  0  0  0  0  0  0  0
  -11.3097    3.4853   -5.8744 C   0  0  0  0  0  0  0  0  0  0  0  0
  -10.0710    3.6338   -5.2646 C   0  0  0  0  0  0  0  0  0  0  0  0
   -9.5507    4.6686   -4.3770 C   0  0  0  0  0  0  0  0  0  0  0  0
  -10.2290    5.7864   -3.9716 C   0  0  0  0  0  0  0  0  0  0  0  0
   -9.7338    6.7884   -3.1084 C   0  0  0  0  0  0  0  0  0  0  0  0
   -9.4261    7.6478   -2.4113 N   0  0  0  0  0  0  0  0  0  0  0  0
  -11.5495    6.1001   -4.3619 C   0  0  0  0  0  0  0  0  0  0  0  0
  -12.6187    6.4210   -4.6285 N   0  0  0  0  0  0  0  0  0  0  0  0
    6.3672   -4.6905    3.4106 H   0  0  0  0  0  0  0  0  0  0  0  0
    9.1891   -5.0156   -2.1537 H   0  0  0  0  0  0  0  0  0  0  0  0
   12.8930   -5.0694   -4.4559 H   0  0  0  0  0  0  0  0  0  0  0  0
   11.3709   -4.9341   -5.3918 H   0  0  0  0  0  0  0  0  0  0  0  0
   12.0884   -6.5382   -5.0420 H   0  0  0  0  0  0  0  0  0  0  0  0
   12.1245   -7.4073   -0.1597 H   0  0  0  0  0  0  0  0  0  0  0  0
   10.7412   -7.4810    1.8891 H   0  0  0  0  0  0  0  0  0  0  0  0
    4.4242   -1.5924    6.6665 H   0  0  0  0  0  0  0  0  0  0  0  0
    4.7839    0.6828    7.5146 H   0  0  0  0  0  0  0  0  0  0  0  0
    6.3270    5.0855    5.4014 H   0  0  0  0  0  0  0  0  0  0  0  0
    5.5271    4.0297    4.2160 H   0  0  0  0  0  0  0  0  0  0  0  0
    7.2533    3.7778    4.6359 H   0  0  0  0  0  0  0  0  0  0  0  0
    6.3134    1.8614    3.6961 H   0  0  0  0  0  0  0  0  0  0  0  0
    6.0063   -0.4022    2.8742 H   0  0  0  0  0  0  0  0  0  0  0  0
    6.8578   -2.7765    6.1217 H   0  0  0  0  0  0  0  0  0  0  0  0
    6.9822   -4.6597    7.7112 H   0  0  0  0  0  0  0  0  0  0  0  0
    4.8347   -8.3966    6.2699 H   0  0  0  0  0  0  0  0  0  0  0  0
    3.4777   -8.1991    7.4327 H   0  0  0  0  0  0  0  0  0  0  0  0
    4.8643   -9.2308    7.8447 H   0  0  0  0  0  0  0  0  0  0  0  0
    3.5455   -6.4253    5.8761 H   0  0  0  0  0  0  0  0  0  0  0  0
    3.4349   -4.5671    4.2922 H   0  0  0  0  0  0  0  0  0  0  0  0
    1.4695   -3.4791   -0.3121 H   0  0  0  0  0  0  0  0  0  0  0  0
    1.4190   -5.6258   -1.5204 H   0  0  0  0  0  0  0  0  0  0  0  0
    2.4691   -6.9930   -6.3187 H   0  0  0  0  0  0  0  0  0  0  0  0
    3.7376   -5.8293   -5.8853 H   0  0  0  0  0  0  0  0  0  0  0  0
    2.0469   -5.2736   -6.1205 H   0  0  0  0  0  0  0  0  0  0  0  0
    3.4184   -3.7966   -4.8286 H   0  0  0  0  0  0  0  0  0  0  0  0
    3.5057   -1.6894   -3.6166 H   0  0  0  0  0  0  0  0  0  0  0  0
    4.0173    0.8829   -0.4915 H   0  0  0  0  0  0  0  0  0  0  0  0
    3.8648    3.1206   -1.5016 H   0  0  0  0  0  0  0  0  0  0  0  0
   -0.1417    3.7881   -3.6934 H   0  0  0  0  0  0  0  0  0  0  0  0
    0.6834    3.7182   -5.2835 H   0  0  0  0  0  0  0  0  0  0  0  0
    0.3750    5.2829   -4.5083 H   0  0  0  0  0  0  0  0  0  0  0  0
    0.9667    1.6610   -4.2846 H   0  0  0  0  0  0  0  0  0  0  0  0
    1.1424   -0.5650   -3.2962 H   0  0  0  0  0  0  0  0  0  0  0  0
    0.4802    4.5410    3.6317 H   0  0  0  0  0  0  0  0  0  0  0  0
    0.6392    6.9044    2.9701 H   0  0  0  0  0  0  0  0  0  0  0  0
    1.7595    9.3164   -1.4156 H   0  0  0  0  0  0  0  0  0  0  0  0
    2.7702    7.8581   -1.3170 H   0  0  0  0  0  0  0  0  0  0  0  0
    1.0269    7.7232   -1.7111 H   0  0  0  0  0  0  0  0  0  0  0  0
    1.9665    5.7223   -0.9255 H   0  0  0  0  0  0  0  0  0  0  0  0
    1.8209    3.3927   -0.2589 H   0  0  0  0  0  0  0  0  0  0  0  0
    2.7734    3.3748    3.8394 H   0  0  0  0  0  0  0  0  0  0  0  0
    3.0127    2.5915    6.1636 H   0  0  0  0  0  0  0  0  0  0  0  0
    1.6710   -1.6503    8.4924 H   0  0  0  0  0  0  0  0  0  0  0  0
    0.1690   -1.2486    7.6373 H   0  0  0  0  0  0  0  0  0  0  0  0
    1.6468   -1.6631    6.7117 H   0  0  0  0  0  0  0  0  0  0  0  0
   -0.0604   -0.3022    5.5030 H   0  0  0  0  0  0  0  0  0  0  0  0
   -0.3404    0.5095    3.2243 H   0  0  0  0  0  0  0  0  0  0  0  0
   -4.6222    1.4435    0.0493 H   0  0  0  0  0  0  0  0  0  0  0  0
   -7.0106    1.8661   -0.0610 H   0  0  0  0  0  0  0  0  0  0  0  0
  -10.2552    3.1189   -1.2474 H   0  0  0  0  0  0  0  0  0  0  0  0
   -9.3130    2.2341   -0.0329 H   0  0  0  0  0  0  0  0  0  0  0  0
   -8.5281    3.4986   -1.0363 H   0  0  0  0  0  0  0  0  0  0  0  0
   -7.1511    0.0591   -3.9323 H   0  0  0  0  0  0  0  0  0  0  0  0
   -4.7158   -0.2541   -3.8739 H   0  0  0  0  0  0  0  0  0  0  0  0
   -1.3648    0.8276   -3.9383 H   0  0  0  0  0  0  0  0  0  0  0  0
   -0.2932   -1.0190   -5.2045 H   0  0  0  0  0  0  0  0  0  0  0  0
   -0.7351   -5.4346   -3.2961 H   0  0  0  0  0  0  0  0  0  0  0  0
   -2.0924   -5.4182   -4.4763 H   0  0  0  0  0  0  0  0  0  0  0  0
   -0.5232   -6.1309   -4.9125 H   0  0  0  0  0  0  0  0  0  0  0  0
   -2.3700   -3.8598   -2.7728 H   0  0  0  0  0  0  0  0  0  0  0  0
   -3.4611   -2.0333   -1.5715 H   0  0  0  0  0  0  0  0  0  0  0  0
   -7.5184    5.5989    2.6912 H   0  0  0  0  0  0  0  0  0  0  0  0
   -8.5373    5.6364    1.2372 H   0  0  0  0  0  0  0  0  0  0  0  0
   -7.5827    7.7958    0.5634 H   0  0  0  0  0  0  0  0  0  0  0  0
   -8.2432    7.9163    2.1964 H   0  0  0  0  0  0  0  0  0  0  0  0
   -6.4963    7.7970    1.9567 H   0  0  0  0  0  0  0  0  0  0  0  0
   -5.3102    5.9566    3.2334 H   0  0  0  0  0  0  0  0  0  0  0  0
   -3.7565    5.1901    2.8439 H   0  0  0  0  0  0  0  0  0  0  0  0
   -4.7457    2.9505    3.1590 H   0  0  0  0  0  0  0  0  0  0  0  0
   -6.3169    3.6615    3.5367 H   0  0  0  0  0  0  0  0  0  0  0  0
   -4.9463    3.9226    4.6197 H   0  0  0  0  0  0  0  0  0  0  0  0
   -7.8599    5.7058   -2.4845 H   0  0  0  0  0  0  0  0  0  0  0  0
   -8.5064    0.8233   -6.4046 H   0  0  0  0  0  0  0  0  0  0  0  0
  -10.2813   -1.4148   -9.7021 H   0  0  0  0  0  0  0  0  0  0  0  0
   -9.1288   -2.3102   -8.6627 H   0  0  0  0  0  0  0  0  0  0  0  0
  -10.8836   -2.3203   -8.3003 H   0  0  0  0  0  0  0  0  0  0  0  0
  -12.4746    2.2293   -7.1633 H   0  0  0  0  0  0  0  0  0  0  0  0
  -12.0977    4.2077   -5.7385 H   0  0  0  0  0  0  0  0  0  0  0  0
  1  2  2  0  0  0  0
  2  3  1  0  0  0  0
  3  4  2  0  0  0  0
  3  5  1  0  0  0  0
  5  6  2  0  0  0  0
  6  7  1  0  0  0  0
  7  8  1  0  0  0  0
  8  9  2  0  0  0  0
  8 10  1  0  0  0  0
 10 11  1  0  0  0  0
  7 12  2  0  0  0  0
 12 13  1  0  0  0  0
 13 14  2  0  0  0  0
 14 15  1  0  0  0  0
 15 16  2  0  0  0  0
 16 17  1  0  0  0  0
 17 18  3  0  0  0  0
 16 19  1  0  0  0  0
 19 20  3  0  0  0  0
  1 21  1  0  0  0  0
 21 22  2  0  0  0  0
 22 23  1  0  0  0  0
 23 24  1  0  0  0  0
 24 25  2  0  0  0  0
 25 26  1  0  0  0  0
 26 27  2  0  0  0  0
 27 28  1  0  0  0  0
 28 29  1  0  0  0  0
 27 30  1  0  0  0  0
 30 31  2  0  0  0  0
 23 32  1  0  0  0  0
 32 33  2  0  0  0  0
 33 34  1  0  0  0  0
 34 35  2  0  0  0  0
 35 36  1  0  0  0  0
 36 37  1  0  0  0  0
 35 38  1  0  0  0  0
 38 39  2  0  0  0  0
 22 40  1  0  0  0  0
 40 41  1  0  0  0  0
 41 42  1  0  0  0  0
 42 43  2  0  0  0  0
 43 44  1  0  0  0  0
 44 45  1  0  0  0  0
 45 46  2  0  0  0  0
 46 47  1  0  0  0  0
 47 48  2  0  0  0  0
 48 49  1  0  0  0  0
 49 50  1  0  0  0  0
 48 51  1  0  0  0  0
 51 52  2  0  0  0  0
 44 53  1  0  0  0  0
 53 54  2  0  0  0  0
 54 55  1  0  0  0  0
 55 56  2  0  0  0  0
 56 57  1  0  0  0  0
 57 58  1  0  0  0  0
 56 59  1  0  0  0  0
 59 60  2  0  0  0  0
 43 61  1  0  0  0  0
 61 62  1  0  0  0  0
 42 63  1  0  0  0  0
 63 64  2  0  0  0  0
 64 65  1  0  0  0  0
 65 66  1  0  0  0  0
 66 67  2  0  0  0  0
 67 68  1  0  0  0  0
 68 69  2  0  0  0  0
 69 70  1  0  0  0  0
 70 71  1  0  0  0  0
 69 72  1  0  0  0  0
 72 73  2  0  0  0  0
 65 74  1  0  0  0  0
 74 75  2  0  0  0  0
 75 76  1  0  0  0  0
 76 77  2  0  0  0  0
 77 78  1  0  0  0  0
 78 79  1  0  0  0  0
 77 80  1  0  0  0  0
 80 81  2  0  0  0  0
 64 82  1  0  0  0  0
 82 83  1  0  0  0  0
 83 84  1  0  0  0  0
 84 85  2  0  0  0  0
 85 86  1  0  0  0  0
 86 87  1  0  0  0  0
 87 88  2  0  0  0  0
 88 89  1  0  0  0  0
 89 90  2  0  0  0  0
 90 91  1  0  0  0  0
 91 92  1  0  0  0  0
 90 93  1  0  0  0  0
 93 94  2  0  0  0  0
 86 95  1  0  0  0  0
 95 96  2  0  0  0  0
 96 97  1  0  0  0  0
 97 98  2  0  0  0  0
 98 99  1  0  0  0  0
 99100  1  0  0  0  0
 98101  1  0  0  0  0
101102  2  0  0  0  0
 85103  1  0  0  0  0
103104  1  0  0  0  0
 84105  1  0  0  0  0
105106  2  0  0  0  0
106107  1  0  0  0  0
106108  1  0  0  0  0
108109  1  0  0  0  0
108110  2  0  0  0  0
110111  1  0  0  0  0
111112  2  0  0  0  0
112113  1  0  0  0  0
113114  1  0  0  0  0
114115  1  0  0  0  0
113116  2  0  0  0  0
116117  1  0  0  0  0
117118  2  0  0  0  0
116119  1  0  0  0  0
119120  1  0  0  0  0
110121  1  0  0  0  0
121122  2  0  0  0  0
122123  1  0  0  0  0
123124  2  0  0  0  0
123125  1  0  0  0  0
125126  2  0  0  0  0
126127  1  0  0  0  0
127128  1  0  0  0  0
128129  2  0  0  0  0
128130  1  0  0  0  0
130131  1  0  0  0  0
127132  2  0  0  0  0
132133  1  0  0  0  0
133134  2  0  0  0  0
134135  1  0  0  0  0
135136  2  0  0  0  0
136137  1  0  0  0  0
137138  3  0  0  0  0
136139  1  0  0  0  0
139140  3  0  0  0  0
 15  2  1  0  0  0  0
 62 21  1  0  0  0  0
104 63  1  0  0  0  0
118105  1  0  0  0  0
135122  1  0  0  0  0
 14  5  1  0  0  0  0
 31 24  1  0  0  0  0
 39 32  1  0  0  0  0
 61 40  2  0  0  0  0
 73 66  1  0  0  0  0
 81 74  1  0  0  0  0
103 82  2  0  0  0  0
118111  1  0  0  0  0
134125  1  0  0  0  0
 52 45  1  0  0  0  0
 60 53  1  0  0  0  0
 94 87  1  0  0  0  0
102 95  1  0  0  0  0
  1141  1  0  0  0  0
  6142  1  0  0  0  0
 11143  1  0  0  0  0
 11144  1  0  0  0  0
 11145  1  0  0  0  0
 12146  1  0  0  0  0
 13147  1  0  0  0  0
 25148  1  0  0  0  0
 26149  1  0  0  0  0
 29150  1  0  0  0  0
 29151  1  0  0  0  0
 29152  1  0  0  0  0
 30153  1  0  0  0  0
 31154  1  0  0  0  0
 33155  1  0  0  0  0
 34156  1  0  0  0  0
 37157  1  0  0  0  0
 37158  1  0  0  0  0
 37159  1  0  0  0  0
 38160  1  0  0  0  0
 39161  1  0  0  0  0
 46162  1  0  0  0  0
 47163  1  0  0  0  0
 50164  1  0  0  0  0
 50165  1  0  0  0  0
 50166  1  0  0  0  0
 51167  1  0  0  0  0
 52168  1  0  0  0  0
 54169  1  0  0  0  0
 55170  1  0  0  0  0
 58171  1  0  0  0  0
 58172  1  0  0  0  0
 58173  1  0  0  0  0
 59174  1  0  0  0  0
 60175  1  0  0  0  0
 67176  1  0  0  0  0
 68177  1  0  0  0  0
 71178  1  0  0  0  0
 71179  1  0  0  0  0
 71180  1  0  0  0  0
 72181  1  0  0  0  0
 73182  1  0  0  0  0
 75183  1  0  0  0  0
 76184  1  0  0  0  0
 79185  1  0  0  0  0
 79186  1  0  0  0  0
 79187  1  0  0  0  0
 80188  1  0  0  0  0
 81189  1  0  0  0  0
 88190  1  0  0  0  0
 89191  1  0  0  0  0
 92192  1  0  0  0  0
 92193  1  0  0  0  0
 92194  1  0  0  0  0
 93195  1  0  0  0  0
 94196  1  0  0  0  0
 96197  1  0  0  0  0
 97198  1  0  0  0  0
100199  1  0  0  0  0
100200  1  0  0  0  0
100201  1  0  0  0  0
101202  1  0  0  0  0
102203  1  0  0  0  0
114204  1  0  0  0  0
114205  1  0  0  0  0
115206  1  0  0  0  0
115207  1  0  0  0  0
115208  1  0  0  0  0
119209  1  0  0  0  0
119210  1  0  0  0  0
120211  1  0  0  0  0
120212  1  0  0  0  0
120213  1  0  0  0  0
121214  1  0  0  0  0
126215  1  0  0  0  0
131216  1  0  0  0  0
131217  1  0  0  0  0
131218  1  0  0  0  0
132219  1  0  0  0  0
133220  1  0  0  0  0
M  END
