150

C          5.23330        8.08890        4.28250
C          5.71820        7.95380        5.54170
C          5.15930        7.05200        6.59200
O          4.24960        6.26240        6.49070
C          5.88320        7.40020        7.83140
C          5.73220        6.84500        9.08520
C          6.53160        7.33420       10.11680
C          6.45090        6.78370       11.49740
O          7.10150        7.19340       12.42610
O          5.57450        5.77860       11.59240
C          5.44060        5.19010       12.87810
C          7.44060        8.36500        9.87370
C          7.58720        8.92360        8.61460
C          6.80430        8.43290        7.57760
C          6.73590        8.79120        6.16400
C          7.53580        9.70580        5.53550
C          7.50530       10.00950        4.15660
N          7.54760       10.31100        3.04970
C          8.52490       10.47750        6.18490
N          9.34040       11.13960        6.64630
C          4.30560        7.21110        3.61240
C          4.33760        5.81700        3.78920
C          3.42790        5.04770        3.10800
C          3.26310        3.56870        3.11060
O          3.90900        2.74740        3.71430
C          2.13610        3.32490        2.17020
C          1.67740        4.55430        1.65800
C          2.47230        5.62210        2.24490
C          2.45370        6.99080        2.04800
C          3.38340        7.76850        2.71800
C          0.65790        4.57780        0.72540
C          0.16160        3.37270        0.25490
C          0.65270        2.15020        0.71890
C          1.61630        2.13010        1.73570
C          0.24680        0.90970        0.08650
C          0.21970        0.64460       -1.27340
N          0.62230        1.52840       -2.26190
C          1.67110        2.42430       -2.00620
C          1.60600        3.74060       -2.45160
C          2.56360        4.66210       -2.07010
C          3.60010        4.28110       -1.22960
S          4.80670        5.38110       -0.55990
C          4.27480        7.01750       -1.13710
C          3.71610        2.94350       -0.85370
C          2.77040        2.02540       -1.24380
C          0.01890        1.45380       -3.52270
C         -1.34030        1.16720       -3.62920
C         -1.92720        0.98530       -4.86500
C         -1.16210        1.09580       -6.01720
S         -1.81640        0.80300       -7.63120
C         -3.19710       -0.32850       -7.28480
C          0.18000        1.45560       -5.91880
C          0.76780        1.63090       -4.68590
C         -0.18680       -0.69220       -1.51860
S         -0.49100       -1.61480       -2.95260
C         -0.86160       -3.02200       -1.97800
C         -0.86070       -2.75060       -0.60390
N         -1.36840       -3.58170        0.36750
C         -0.81480       -3.53690        1.65270
C          0.55970       -3.38070        1.81350
C          1.11430       -3.28500        3.07360
C          0.30040       -3.35220        4.19790
S          0.88890       -3.22560        5.85200
C          2.61820       -2.70740        5.66280
C         -1.07290       -3.54420        4.03900
C         -1.62730       -3.63300        2.78330
C         -2.42550       -4.45600        0.07930
C         -3.43770       -4.07640       -0.80230
C         -4.42940       -4.96140       -1.16650
C         -4.43930       -6.24890       -0.64150
S         -5.63880       -7.46040       -1.09700
C         -7.07480       -6.44540       -1.55330
C         -3.46050       -6.61930        0.27740
C         -2.46960       -5.73240        0.64080
C         -0.42930       -1.42480       -0.36550
S         -0.14940       -0.48800        1.06150
C         -1.15280       -4.26000       -2.60020
C         -0.81820       -5.50420       -2.02010
C         -1.35820       -6.75020       -2.50920
N         -0.90560       -7.78890       -1.81120
S          0.12870       -7.26770       -0.69910
N          0.02800       -5.69380       -1.00600
C         -2.30410       -6.80190       -3.56260
C         -2.43030       -5.59420       -4.28730
N         -3.05470       -5.43390       -5.45010
S         -2.96540       -3.89650       -5.89340
N         -2.11160       -3.33730       -4.64870
C         -1.84330       -4.35180       -3.82680
C         -3.00220       -8.00010       -3.80880
C         -4.26160       -8.13160       -4.33710
C         -5.27710       -7.06980       -4.41470
O         -5.19150       -5.89680       -4.10070
C         -6.52950       -7.75020       -4.82510
C         -7.77650       -7.19540       -5.02720
C         -8.82790       -8.03890       -5.36500
Cl       -10.40790       -7.40680       -5.62970
C         -8.59500       -9.40920       -5.48480
F         -9.61570      -10.21710       -5.80090
C         -7.34380       -9.97340       -5.28640
C         -6.29740       -9.12910       -4.95290
C         -4.88500       -9.38960       -4.68650
C         -4.25910      -10.60070       -4.82770
C         -2.87250      -10.82220       -4.68470
N         -1.75880      -11.09360       -4.61770
C         -4.92400      -11.79320       -5.18080
N         -5.41160      -12.79390       -5.46110
H          5.53660        8.95480        3.70630
H          5.01980        6.05320        9.25350
H          4.69240        4.40840       12.77740
H          6.39460        4.77000       13.20320
H          5.12100        5.93820       13.60620
H          8.03640        8.72070       10.70100
H          8.29570        9.72070        8.46060
H          5.07970        5.35010        4.41520
H          1.73400        7.44970        1.38620
H          3.38380        8.83960        2.57240
H          0.26750        5.50980        0.34590
H         -0.61700        3.37240       -0.49330
H          1.98560        1.19220        2.12280
H          0.78430        4.05050       -3.08040
H          2.47410        5.67830       -2.41800
H          4.35230        7.07690       -2.21870
H          3.26190        7.21380       -0.79930
H          4.96040        7.72400       -0.67970
H          4.55090        2.64170       -0.23990
H          2.86350        0.99370       -0.94020
H         -1.94040        1.08190       -2.73500
H         -2.97920        0.75690       -4.91720
H         -3.43410       -0.80830       -8.22920
H         -4.06180        0.22530       -6.93010
H         -2.87590       -1.06860       -6.55750
H          0.76130        1.56780       -6.82080
H          1.81660        1.87650       -4.61260
H          1.19410       -3.35260        0.94050
H          2.18160       -3.16720        3.16540
H          3.20320       -3.50490        5.21410
H          2.97580       -2.51350        6.66920
H          2.66690       -1.79700        5.07290
H         -1.69730       -3.60710        4.91670
H         -2.69290       -3.76150        2.66700
H         -3.43920       -3.07940       -1.21760
H         -5.17520       -4.64990       -1.87820
H         -6.87570       -5.91150       -2.47690
H         -7.29820       -5.76000       -0.74140
H         -7.89620       -7.14040       -1.69610
H         -3.47840       -7.61490        0.69290
H         -1.70810       -6.02930        1.34690
H         -2.49860       -8.88910       -3.44880
H         -7.93300       -6.13250       -4.93300
H         -7.23050      -11.04000       -5.39070
