
  xtb     02082203183D
 energy: -378.353737910628 gnorm: 0.000385444289 xtb: 6.4.1 (unknown)
220237  0     0  0            999 V2000
   -8.4809    0.7419   -4.1005 C   0  0  0  0  0  0  0  0  0  0  0  0
   -9.3736   -0.2534   -4.3338 C   0  0  0  0  0  0  0  0  0  0  0  0
   -9.0550   -1.7043   -4.1777 C   0  0  0  0  0  0  0  0  0  0  0  0
   -8.0457   -2.1977   -3.7330 O   0  0  0  0  0  0  0  0  0  0  0  0
  -10.1863   -2.4192   -4.8048 C   0  0  0  0  0  0  0  0  0  0  0  0
  -10.3643   -3.7779   -4.9525 C   0  0  0  0  0  0  0  0  0  0  0  0
  -11.5172   -4.2276   -5.5975 C   0  0  0  0  0  0  0  0  0  0  0  0
  -11.7054   -5.6954   -5.7486 C   0  0  0  0  0  0  0  0  0  0  0  0
  -10.9237   -6.5204   -5.3474 O   0  0  0  0  0  0  0  0  0  0  0  0
  -12.8423   -6.0049   -6.3854 O   0  0  0  0  0  0  0  0  0  0  0  0
  -13.0883   -7.3916   -6.5694 C   0  0  0  0  0  0  0  0  0  0  0  0
  -12.4520   -3.3141   -6.0842 C   0  0  0  0  0  0  0  0  0  0  0  0
  -12.2681   -1.9479   -5.9386 C   0  0  0  0  0  0  0  0  0  0  0  0
  -11.1274   -1.4930   -5.2911 C   0  0  0  0  0  0  0  0  0  0  0  0
  -10.6661   -0.1424   -4.9846 C   0  0  0  0  0  0  0  0  0  0  0  0
  -11.3667    1.0134   -5.2035 C   0  0  0  0  0  0  0  0  0  0  0  0
  -12.6337    1.0706   -5.8220 C   0  0  0  0  0  0  0  0  0  0  0  0
  -13.6594    1.1864   -6.3240 N   0  0  0  0  0  0  0  0  0  0  0  0
  -10.9417    2.2991   -4.8085 C   0  0  0  0  0  0  0  0  0  0  0  0
  -10.6887    3.3736   -4.4928 N   0  0  0  0  0  0  0  0  0  0  0  0
   -7.2480    0.5636   -3.3792 C   0  0  0  0  0  0  0  0  0  0  0  0
   -7.1577   -0.1492   -2.1934 C   0  0  0  0  0  0  0  0  0  0  0  0
   -8.2712   -0.6156   -1.6092 F   0  0  0  0  0  0  0  0  0  0  0  0
   -5.9508   -0.3167   -1.5138 C   0  0  0  0  0  0  0  0  0  0  0  0
   -5.9514   -1.0849   -0.4097 F   0  0  0  0  0  0  0  0  0  0  0  0
   -4.7634    0.2377   -1.9715 C   0  0  0  0  0  0  0  0  0  0  0  0
   -4.8127    0.9029   -3.2300 C   0  0  0  0  0  0  0  0  0  0  0  0
   -3.6687    1.3254   -3.7827 N   0  0  0  0  0  0  0  0  0  0  0  0
   -3.6963    1.9660   -4.9256 C   0  0  0  0  0  0  0  0  0  0  0  0
   -2.3671    2.2709   -5.5412 C   0  0  0  0  0  0  0  0  0  0  0  0
   -1.9771    1.1292   -6.4845 C   0  0  0  0  0  0  0  0  0  0  0  0
   -4.9428    2.2588   -5.5496 C   0  0  0  0  0  0  0  0  0  0  0  0
   -6.0674    1.8159   -5.0410 N   0  0  0  0  0  0  0  0  0  0  0  0
   -6.0424    1.1167   -3.8951 C   0  0  0  0  0  0  0  0  0  0  0  0
   -5.0646    3.1118   -6.7744 C   0  0  0  0  0  0  0  0  0  0  0  0
   -5.1073    4.5900   -6.3763 C   0  0  0  0  0  0  0  0  0  0  0  0
   -3.5298    0.1836   -1.2450 C   0  0  0  0  0  0  0  0  0  0  0  0
   -3.3508    0.2672    0.1346 C   0  0  0  0  0  0  0  0  0  0  0  0
   -4.3473    0.5797    1.0451 N   0  0  0  0  0  0  0  0  0  0  0  0
   -4.4784   -0.1974    2.2004 C   0  0  0  0  0  0  0  0  0  0  0  0
   -4.9875    0.3537    3.3750 C   0  0  0  0  0  0  0  0  0  0  0  0
   -5.1864   -0.4433    4.4826 C   0  0  0  0  0  0  0  0  0  0  0  0
   -4.8795   -1.7981    4.4328 C   0  0  0  0  0  0  0  0  0  0  0  0
   -5.2150   -2.7953    5.8611 S   0  0  0  0  0  0  0  0  0  0  0  0
   -5.8285   -4.3267    5.0903 C   0  0  0  0  0  0  0  0  0  0  0  0
   -4.3209   -2.3403    3.2840 C   0  0  0  0  0  0  0  0  0  0  0  0
   -4.1227   -1.5448    2.1768 C   0  0  0  0  0  0  0  0  0  0  0  0
   -5.3365    1.4914    0.6464 C   0  0  0  0  0  0  0  0  0  0  0  0
   -4.9749    2.5888   -0.1398 C   0  0  0  0  0  0  0  0  0  0  0  0
   -5.9396    3.3789   -0.7175 C   0  0  0  0  0  0  0  0  0  0  0  0
   -7.2924    3.1089   -0.5097 C   0  0  0  0  0  0  0  0  0  0  0  0
   -8.4437    4.0907   -1.4134 S   0  0  0  0  0  0  0  0  0  0  0  0
   -9.9933    3.1608   -1.2662 C   0  0  0  0  0  0  0  0  0  0  0  0
   -7.6527    2.0922    0.3644 C   0  0  0  0  0  0  0  0  0  0  0  0
   -6.6834    1.2883    0.9340 C   0  0  0  0  0  0  0  0  0  0  0  0
   -1.9875    0.1257    0.4720 C   0  0  0  0  0  0  0  0  0  0  0  0
   -1.0947    0.1292    1.9562 S   0  0  0  0  0  0  0  0  0  0  0  0
    0.4152   -0.0579    1.0680 C   0  0  0  0  0  0  0  0  0  0  0  0
    0.2014   -0.1907   -0.3020 C   0  0  0  0  0  0  0  0  0  0  0  0
    1.1769   -0.5075   -1.2398 N   0  0  0  0  0  0  0  0  0  0  0  0
    2.0631   -1.5581   -1.0093 C   0  0  0  0  0  0  0  0  0  0  0  0
    1.7316   -2.5977   -0.1396 C   0  0  0  0  0  0  0  0  0  0  0  0
    2.6667   -3.5609    0.1796 C   0  0  0  0  0  0  0  0  0  0  0  0
    3.9372   -3.5090   -0.3734 C   0  0  0  0  0  0  0  0  0  0  0  0
    5.1818   -4.6888    0.1212 S   0  0  0  0  0  0  0  0  0  0  0  0
    5.6510   -3.9043    1.6964 C   0  0  0  0  0  0  0  0  0  0  0  0
    4.2502   -2.5235   -1.2956 C   0  0  0  0  0  0  0  0  0  0  0  0
    3.3225   -1.5537   -1.6092 C   0  0  0  0  0  0  0  0  0  0  0  0
    1.1869    0.2111   -2.4445 C   0  0  0  0  0  0  0  0  0  0  0  0
    1.3462   -0.4367   -3.6687 C   0  0  0  0  0  0  0  0  0  0  0  0
    1.3943    0.2932   -4.8353 C   0  0  0  0  0  0  0  0  0  0  0  0
    1.2814    1.6817   -4.8057 C   0  0  0  0  0  0  0  0  0  0  0  0
    1.4167    2.5247   -6.3524 S   0  0  0  0  0  0  0  0  0  0  0  0
    1.6998    4.2508   -5.8733 C   0  0  0  0  0  0  0  0  0  0  0  0
    1.0761    2.3251   -3.5934 C   0  0  0  0  0  0  0  0  0  0  0  0
    1.0332    1.5937   -2.4234 C   0  0  0  0  0  0  0  0  0  0  0  0
   -1.1603   -0.0411   -0.6310 C   0  0  0  0  0  0  0  0  0  0  0  0
   -2.0242    0.0708   -2.1257 S   0  0  0  0  0  0  0  0  0  0  0  0
    1.6739    0.0604    1.7116 C   0  0  0  0  0  0  0  0  0  0  0  0
    1.9899   -0.0643    3.0613 C   0  0  0  0  0  0  0  0  0  0  0  0
    1.1171   -0.3570    4.1017 N   0  0  0  0  0  0  0  0  0  0  0  0
    0.3059   -1.4881    4.1163 C   0  0  0  0  0  0  0  0  0  0  0  0
   -0.8012   -1.5348    4.9647 C   0  0  0  0  0  0  0  0  0  0  0  0
   -1.5719   -2.6731    5.0479 C   0  0  0  0  0  0  0  0  0  0  0  0
   -1.2628   -3.7792    4.2677 C   0  0  0  0  0  0  0  0  0  0  0  0
   -2.2101   -5.2767    4.3611 S   0  0  0  0  0  0  0  0  0  0  0  0
   -2.4609   -5.4244    6.1585 C   0  0  0  0  0  0  0  0  0  0  0  0
   -0.1971   -3.7214    3.3789 C   0  0  0  0  0  0  0  0  0  0  0  0
    0.5885   -2.5900    3.3100 C   0  0  0  0  0  0  0  0  0  0  0  0
    1.3111    0.4037    5.2727 C   0  0  0  0  0  0  0  0  0  0  0  0
    1.4331   -0.1944    6.5222 C   0  0  0  0  0  0  0  0  0  0  0  0
    1.6640    0.5712    7.6482 C   0  0  0  0  0  0  0  0  0  0  0  0
    1.7899    1.9503    7.5404 C   0  0  0  0  0  0  0  0  0  0  0  0
    2.0905    3.0285    8.9015 S   0  0  0  0  0  0  0  0  0  0  0  0
    2.4427    1.9037   10.2817 C   0  0  0  0  0  0  0  0  0  0  0  0
    1.6664    2.5524    6.2891 C   0  0  0  0  0  0  0  0  0  0  0  0
    1.4276    1.7898    5.1690 C   0  0  0  0  0  0  0  0  0  0  0  0
    3.3593    0.1903    3.2887 C   0  0  0  0  0  0  0  0  0  0  0  0
    4.3561    0.0739    4.6916 S   0  0  0  0  0  0  0  0  0  0  0  0
    5.7989    0.4004    3.7086 C   0  0  0  0  0  0  0  0  0  0  0  0
    5.4553    0.7761    2.3854 C   0  0  0  0  0  0  0  0  0  0  0  0
    6.2709    1.3701    1.4847 N   0  0  0  0  0  0  0  0  0  0  0  0
    7.5069    1.9507    1.8158 C   0  0  0  0  0  0  0  0  0  0  0  0
    8.6129    1.7404    0.9974 C   0  0  0  0  0  0  0  0  0  0  0  0
    9.8552    2.2334    1.3507 C   0  0  0  0  0  0  0  0  0  0  0  0
   10.0068    2.9605    2.5241 C   0  0  0  0  0  0  0  0  0  0  0  0
   11.5458    3.5570    3.1278 S   0  0  0  0  0  0  0  0  0  0  0  0
   12.7740    2.7064    2.0976 C   0  0  0  0  0  0  0  0  0  0  0  0
    8.8794    3.2497    3.2982 C   0  0  0  0  0  0  0  0  0  0  0  0
    7.6469    2.7501    2.9522 C   0  0  0  0  0  0  0  0  0  0  0  0
    5.8381    1.5516    0.1390 C   0  0  0  0  0  0  0  0  0  0  0  0
    6.0024    0.5468   -0.8012 C   0  0  0  0  0  0  0  0  0  0  0  0
    5.6404    0.7644   -2.1189 C   0  0  0  0  0  0  0  0  0  0  0  0
    5.0793    1.9785   -2.4924 C   0  0  0  0  0  0  0  0  0  0  0  0
    4.5620    2.3712   -4.1290 S   0  0  0  0  0  0  0  0  0  0  0  0
    4.8139    0.8430   -5.0705 C   0  0  0  0  0  0  0  0  0  0  0  0
    4.9098    2.9837   -1.5410 C   0  0  0  0  0  0  0  0  0  0  0  0
    5.3018    2.7793   -0.2372 C   0  0  0  0  0  0  0  0  0  0  0  0
    4.0780    0.5593    2.1609 C   0  0  0  0  0  0  0  0  0  0  0  0
    3.0673    0.5666    0.7567 S   0  0  0  0  0  0  0  0  0  0  0  0
    7.0368    0.1966    4.3036 C   0  0  0  0  0  0  0  0  0  0  0  0
    8.2121   -0.0957    3.6286 C   0  0  0  0  0  0  0  0  0  0  0  0
    8.2547   -0.7394    2.3157 C   0  0  0  0  0  0  0  0  0  0  0  0
    7.3156   -1.0583    1.6014 O   0  0  0  0  0  0  0  0  0  0  0  0
    9.6815   -1.0449    2.0660 C   0  0  0  0  0  0  0  0  0  0  0  0
   10.2523   -1.6665    0.9787 C   0  0  0  0  0  0  0  0  0  0  0  0
   11.6394   -1.8293    0.9700 C   0  0  0  0  0  0  0  0  0  0  0  0
   12.3409   -2.4821   -0.1640 C   0  0  0  0  0  0  0  0  0  0  0  0
   13.5397   -2.5864   -0.2509 O   0  0  0  0  0  0  0  0  0  0  0  0
   11.4919   -2.9496   -1.0890 O   0  0  0  0  0  0  0  0  0  0  0  0
   12.0845   -3.6116   -2.1959 C   0  0  0  0  0  0  0  0  0  0  0  0
   12.4051   -1.3824    2.0452 C   0  0  0  0  0  0  0  0  0  0  0  0
   11.8240   -0.7672    3.1452 C   0  0  0  0  0  0  0  0  0  0  0  0
   10.4495   -0.5930    3.1538 C   0  0  0  0  0  0  0  0  0  0  0  0
    9.5504    0.0231    4.1305 C   0  0  0  0  0  0  0  0  0  0  0  0
    9.9403    0.7215    5.2481 C   0  0  0  0  0  0  0  0  0  0  0  0
   11.2799    0.8831    5.6480 C   0  0  0  0  0  0  0  0  0  0  0  0
   12.3576    1.0407    6.0127 N   0  0  0  0  0  0  0  0  0  0  0  0
    9.0471    1.4089    6.0924 C   0  0  0  0  0  0  0  0  0  0  0  0
    8.3721    2.0068    6.8043 N   0  0  0  0  0  0  0  0  0  0  0  0
   -8.6247    1.7244   -4.5314 H   0  0  0  0  0  0  0  0  0  0  0  0
   -9.6387   -4.4840   -4.5784 H   0  0  0  0  0  0  0  0  0  0  0  0
  -12.2915   -7.8418   -7.1650 H   0  0  0  0  0  0  0  0  0  0  0  0
  -13.1332   -7.8998   -5.6041 H   0  0  0  0  0  0  0  0  0  0  0  0
  -14.0414   -7.4652   -7.0864 H   0  0  0  0  0  0  0  0  0  0  0  0
  -13.3330   -3.6843   -6.5843 H   0  0  0  0  0  0  0  0  0  0  0  0
  -13.0030   -1.2643   -6.3314 H   0  0  0  0  0  0  0  0  0  0  0  0
   -2.3926    3.2137   -6.0867 H   0  0  0  0  0  0  0  0  0  0  0  0
   -1.6276    2.3344   -4.7422 H   0  0  0  0  0  0  0  0  0  0  0  0
   -2.7259    0.9931   -7.2620 H   0  0  0  0  0  0  0  0  0  0  0  0
   -1.0210    1.3439   -6.9536 H   0  0  0  0  0  0  0  0  0  0  0  0
   -1.8891    0.2031   -5.9218 H   0  0  0  0  0  0  0  0  0  0  0  0
   -4.2329    2.9328   -7.4556 H   0  0  0  0  0  0  0  0  0  0  0  0
   -5.9972    2.8522   -7.2761 H   0  0  0  0  0  0  0  0  0  0  0  0
   -5.9577    4.7753   -5.7250 H   0  0  0  0  0  0  0  0  0  0  0  0
   -4.2004    4.8777   -5.8484 H   0  0  0  0  0  0  0  0  0  0  0  0
   -5.2058    5.2119   -7.2623 H   0  0  0  0  0  0  0  0  0  0  0  0
   -5.2424    1.4025    3.4063 H   0  0  0  0  0  0  0  0  0  0  0  0
   -5.5940   -0.0250    5.3902 H   0  0  0  0  0  0  0  0  0  0  0  0
   -5.0111   -4.8967    4.6593 H   0  0  0  0  0  0  0  0  0  0  0  0
   -6.5599   -4.0672    4.3316 H   0  0  0  0  0  0  0  0  0  0  0  0
   -6.2984   -4.8963    5.8859 H   0  0  0  0  0  0  0  0  0  0  0  0
   -4.0560   -3.3842    3.2366 H   0  0  0  0  0  0  0  0  0  0  0  0
   -3.7235   -1.9788    1.2731 H   0  0  0  0  0  0  0  0  0  0  0  0
   -3.9307    2.7920   -0.3251 H   0  0  0  0  0  0  0  0  0  0  0  0
   -5.6620    4.2061   -1.3524 H   0  0  0  0  0  0  0  0  0  0  0  0
   -9.8127    2.1148   -1.4977 H   0  0  0  0  0  0  0  0  0  0  0  0
  -10.6590    3.5923   -2.0076 H   0  0  0  0  0  0  0  0  0  0  0  0
  -10.4133    3.2786   -0.2713 H   0  0  0  0  0  0  0  0  0  0  0  0
   -8.6882    1.8922    0.5870 H   0  0  0  0  0  0  0  0  0  0  0  0
   -6.9781    0.4647    1.5663 H   0  0  0  0  0  0  0  0  0  0  0  0
    0.7412   -2.6439    0.2884 H   0  0  0  0  0  0  0  0  0  0  0  0
    2.4134   -4.3590    0.8616 H   0  0  0  0  0  0  0  0  0  0  0  0
    4.7742   -3.8156    2.3317 H   0  0  0  0  0  0  0  0  0  0  0  0
    6.3835   -4.5576    2.1591 H   0  0  0  0  0  0  0  0  0  0  0  0
    6.0877   -2.9273    1.5052 H   0  0  0  0  0  0  0  0  0  0  0  0
    5.2316   -2.5104   -1.7434 H   0  0  0  0  0  0  0  0  0  0  0  0
    3.5742   -0.7543   -2.2872 H   0  0  0  0  0  0  0  0  0  0  0  0
    1.4380   -1.5123   -3.6954 H   0  0  0  0  0  0  0  0  0  0  0  0
    1.5236   -0.2030   -5.7852 H   0  0  0  0  0  0  0  0  0  0  0  0
    2.5238    4.2941   -5.1674 H   0  0  0  0  0  0  0  0  0  0  0  0
    0.7930    4.6812   -5.4582 H   0  0  0  0  0  0  0  0  0  0  0  0
    1.9659    4.7698   -6.7888 H   0  0  0  0  0  0  0  0  0  0  0  0
    0.9666    3.3962   -3.5443 H   0  0  0  0  0  0  0  0  0  0  0  0
    0.8980    2.0972   -1.4776 H   0  0  0  0  0  0  0  0  0  0  0  0
   -1.0533   -0.6721    5.5619 H   0  0  0  0  0  0  0  0  0  0  0  0
   -2.4144   -2.6898    5.7201 H   0  0  0  0  0  0  0  0  0  0  0  0
   -1.5057   -5.2947    6.6574 H   0  0  0  0  0  0  0  0  0  0  0  0
   -2.8386   -6.4279    6.3277 H   0  0  0  0  0  0  0  0  0  0  0  0
   -3.1824   -4.6927    6.5094 H   0  0  0  0  0  0  0  0  0  0  0  0
    0.0254   -4.5794    2.7626 H   0  0  0  0  0  0  0  0  0  0  0  0
    1.4439   -2.5634    2.6515 H   0  0  0  0  0  0  0  0  0  0  0  0
    1.3558   -1.2677    6.6111 H   0  0  0  0  0  0  0  0  0  0  0  0
    1.7549    0.0770    8.6017 H   0  0  0  0  0  0  0  0  0  0  0  0
    3.2695    1.2504   10.0198 H   0  0  0  0  0  0  0  0  0  0  0  0
    2.7258    2.5424   11.1125 H   0  0  0  0  0  0  0  0  0  0  0  0
    1.5535    1.3364   10.5414 H   0  0  0  0  0  0  0  0  0  0  0  0
    1.7593    3.6247    6.2120 H   0  0  0  0  0  0  0  0  0  0  0  0
    1.3301    2.2598    4.2013 H   0  0  0  0  0  0  0  0  0  0  0  0
    8.5045    1.1673    0.0894 H   0  0  0  0  0  0  0  0  0  0  0  0
   10.6976    2.0318    0.7092 H   0  0  0  0  0  0  0  0  0  0  0  0
   13.7328    2.9149    2.5617 H   0  0  0  0  0  0  0  0  0  0  0  0
   12.7599    3.1031    1.0866 H   0  0  0  0  0  0  0  0  0  0  0  0
   12.5841    1.6368    2.1081 H   0  0  0  0  0  0  0  0  0  0  0  0
    8.9919    3.8556    4.1839 H   0  0  0  0  0  0  0  0  0  0  0  0
    6.7893    2.9656    3.5708 H   0  0  0  0  0  0  0  0  0  0  0  0
    6.4208   -0.3976   -0.4883 H   0  0  0  0  0  0  0  0  0  0  0  0
    5.8107   -0.0149   -2.8442 H   0  0  0  0  0  0  0  0  0  0  0  0
    4.2328    0.0380   -4.6303 H   0  0  0  0  0  0  0  0  0  0  0  0
    5.8716    0.6003   -5.1127 H   0  0  0  0  0  0  0  0  0  0  0  0
    4.4432    1.0553   -6.0687 H   0  0  0  0  0  0  0  0  0  0  0  0
    4.4785    3.9254   -1.8433 H   0  0  0  0  0  0  0  0  0  0  0  0
    5.1886    3.5621    0.4979 H   0  0  0  0  0  0  0  0  0  0  0  0
    7.0507    0.1998    5.3866 H   0  0  0  0  0  0  0  0  0  0  0  0
    9.6466   -2.0151    0.1574 H   0  0  0  0  0  0  0  0  0  0  0  0
   12.7242   -2.9231   -2.7523 H   0  0  0  0  0  0  0  0  0  0  0  0
   11.2632   -3.9593   -2.8172 H   0  0  0  0  0  0  0  0  0  0  0  0
   12.6907   -4.4529   -1.8543 H   0  0  0  0  0  0  0  0  0  0  0  0
   13.4739   -1.5318    2.0050 H   0  0  0  0  0  0  0  0  0  0  0  0
   12.4391   -0.4463    3.9706 H   0  0  0  0  0  0  0  0  0  0  0  0
  1  2  2  0  0  0  0
  2  3  1  0  0  0  0
  3  4  2  0  0  0  0
  3  5  1  0  0  0  0
  5  6  2  0  0  0  0
  6  7  1  0  0  0  0
  7  8  1  0  0  0  0
  8  9  2  0  0  0  0
  8 10  1  0  0  0  0
 10 11  1  0  0  0  0
  7 12  2  0  0  0  0
 12 13  1  0  0  0  0
 13 14  2  0  0  0  0
 14 15  1  0  0  0  0
 15 16  2  0  0  0  0
 16 17  1  0  0  0  0
 17 18  3  0  0  0  0
 16 19  1  0  0  0  0
 19 20  3  0  0  0  0
  1 21  1  0  0  0  0
 21 22  2  0  0  0  0
 22 23  1  0  0  0  0
 22 24  1  0  0  0  0
 24 25  1  0  0  0  0
 24 26  2  0  0  0  0
 26 27  1  0  0  0  0
 27 28  2  0  0  0  0
 28 29  1  0  0  0  0
 29 30  1  0  0  0  0
 30 31  1  0  0  0  0
 29 32  2  0  0  0  0
 32 33  1  0  0  0  0
 33 34  2  0  0  0  0
 32 35  1  0  0  0  0
 35 36  1  0  0  0  0
 26 37  1  0  0  0  0
 37 38  2  0  0  0  0
 38 39  1  0  0  0  0
 39 40  1  0  0  0  0
 40 41  2  0  0  0  0
 41 42  1  0  0  0  0
 42 43  2  0  0  0  0
 43 44  1  0  0  0  0
 44 45  1  0  0  0  0
 43 46  1  0  0  0  0
 46 47  2  0  0  0  0
 39 48  1  0  0  0  0
 48 49  2  0  0  0  0
 49 50  1  0  0  0  0
 50 51  2  0  0  0  0
 51 52  1  0  0  0  0
 52 53  1  0  0  0  0
 51 54  1  0  0  0  0
 54 55  2  0  0  0  0
 38 56  1  0  0  0  0
 56 57  1  0  0  0  0
 57 58  1  0  0  0  0
 58 59  2  0  0  0  0
 59 60  1  0  0  0  0
 60 61  1  0  0  0  0
 61 62  2  0  0  0  0
 62 63  1  0  0  0  0
 63 64  2  0  0  0  0
 64 65  1  0  0  0  0
 65 66  1  0  0  0  0
 64 67  1  0  0  0  0
 67 68  2  0  0  0  0
 60 69  1  0  0  0  0
 69 70  2  0  0  0  0
 70 71  1  0  0  0  0
 71 72  2  0  0  0  0
 72 73  1  0  0  0  0
 73 74  1  0  0  0  0
 72 75  1  0  0  0  0
 75 76  2  0  0  0  0
 59 77  1  0  0  0  0
 77 78  1  0  0  0  0
 58 79  1  0  0  0  0
 79 80  2  0  0  0  0
 80 81  1  0  0  0  0
 81 82  1  0  0  0  0
 82 83  2  0  0  0  0
 83 84  1  0  0  0  0
 84 85  2  0  0  0  0
 85 86  1  0  0  0  0
 86 87  1  0  0  0  0
 85 88  1  0  0  0  0
 88 89  2  0  0  0  0
 81 90  1  0  0  0  0
 90 91  2  0  0  0  0
 91 92  1  0  0  0  0
 92 93  2  0  0  0  0
 93 94  1  0  0  0  0
 94 95  1  0  0  0  0
 93 96  1  0  0  0  0
 96 97  2  0  0  0  0
 80 98  1  0  0  0  0
 98 99  1  0  0  0  0
 99100  1  0  0  0  0
100101  2  0  0  0  0
101102  1  0  0  0  0
102103  1  0  0  0  0
103104  2  0  0  0  0
104105  1  0  0  0  0
105106  2  0  0  0  0
106107  1  0  0  0  0
107108  1  0  0  0  0
106109  1  0  0  0  0
109110  2  0  0  0  0
102111  1  0  0  0  0
111112  2  0  0  0  0
112113  1  0  0  0  0
113114  2  0  0  0  0
114115  1  0  0  0  0
115116  1  0  0  0  0
114117  1  0  0  0  0
117118  2  0  0  0  0
101119  1  0  0  0  0
119120  1  0  0  0  0
100121  1  0  0  0  0
121122  2  0  0  0  0
122123  1  0  0  0  0
123124  2  0  0  0  0
123125  1  0  0  0  0
125126  2  0  0  0  0
126127  1  0  0  0  0
127128  1  0  0  0  0
128129  2  0  0  0  0
128130  1  0  0  0  0
130131  1  0  0  0  0
127132  2  0  0  0  0
132133  1  0  0  0  0
133134  2  0  0  0  0
134135  1  0  0  0  0
135136  2  0  0  0  0
136137  1  0  0  0  0
137138  3  0  0  0  0
136139  1  0  0  0  0
139140  3  0  0  0  0
 15  2  1  0  0  0  0
 34 21  1  0  0  0  0
 78 37  1  0  0  0  0
120 79  1  0  0  0  0
135122  1  0  0  0  0
 14  5  1  0  0  0  0
 34 27  1  0  0  0  0
 47 40  1  0  0  0  0
 55 48  1  0  0  0  0
 77 56  2  0  0  0  0
 89 82  1  0  0  0  0
 97 90  1  0  0  0  0
119 98  2  0  0  0  0
134125  1  0  0  0  0
 68 61  1  0  0  0  0
 76 69  1  0  0  0  0
110103  1  0  0  0  0
118111  1  0  0  0  0
  1141  1  0  0  0  0
  6142  1  0  0  0  0
 11143  1  0  0  0  0
 11144  1  0  0  0  0
 11145  1  0  0  0  0
 12146  1  0  0  0  0
 13147  1  0  0  0  0
 30148  1  0  0  0  0
 30149  1  0  0  0  0
 31150  1  0  0  0  0
 31151  1  0  0  0  0
 31152  1  0  0  0  0
 35153  1  0  0  0  0
 35154  1  0  0  0  0
 36155  1  0  0  0  0
 36156  1  0  0  0  0
 36157  1  0  0  0  0
 41158  1  0  0  0  0
 42159  1  0  0  0  0
 45160  1  0  0  0  0
 45161  1  0  0  0  0
 45162  1  0  0  0  0
 46163  1  0  0  0  0
 47164  1  0  0  0  0
 49165  1  0  0  0  0
 50166  1  0  0  0  0
 53167  1  0  0  0  0
 53168  1  0  0  0  0
 53169  1  0  0  0  0
 54170  1  0  0  0  0
 55171  1  0  0  0  0
 62172  1  0  0  0  0
 63173  1  0  0  0  0
 66174  1  0  0  0  0
 66175  1  0  0  0  0
 66176  1  0  0  0  0
 67177  1  0  0  0  0
 68178  1  0  0  0  0
 70179  1  0  0  0  0
 71180  1  0  0  0  0
 74181  1  0  0  0  0
 74182  1  0  0  0  0
 74183  1  0  0  0  0
 75184  1  0  0  0  0
 76185  1  0  0  0  0
 83186  1  0  0  0  0
 84187  1  0  0  0  0
 87188  1  0  0  0  0
 87189  1  0  0  0  0
 87190  1  0  0  0  0
 88191  1  0  0  0  0
 89192  1  0  0  0  0
 91193  1  0  0  0  0
 92194  1  0  0  0  0
 95195  1  0  0  0  0
 95196  1  0  0  0  0
 95197  1  0  0  0  0
 96198  1  0  0  0  0
 97199  1  0  0  0  0
104200  1  0  0  0  0
105201  1  0  0  0  0
108202  1  0  0  0  0
108203  1  0  0  0  0
108204  1  0  0  0  0
109205  1  0  0  0  0
110206  1  0  0  0  0
112207  1  0  0  0  0
113208  1  0  0  0  0
116209  1  0  0  0  0
116210  1  0  0  0  0
116211  1  0  0  0  0
117212  1  0  0  0  0
118213  1  0  0  0  0
121214  1  0  0  0  0
126215  1  0  0  0  0
131216  1  0  0  0  0
131217  1  0  0  0  0
131218  1  0  0  0  0
132219  1  0  0  0  0
133220  1  0  0  0  0
M  END
