200

C         -4.73160       -5.34550       -2.01290
C         -5.80460       -5.23210       -2.85640
C         -7.01640       -6.04600       -2.60990
O         -7.12390       -6.98450       -1.85110
C         -8.07060       -5.43590       -3.45420
C         -9.41520       -5.73090       -3.51280
C        -10.21590       -4.97330       -4.36950
C        -11.67530       -5.22000       -4.49460
O        -12.41700       -4.56690       -5.18670
O        -12.08480       -6.25460       -3.74940
C        -13.47060       -6.55410       -3.81400
C         -9.65830       -3.94690       -5.13170
C         -8.30350       -3.65910       -5.08000
C         -7.50210       -4.41480       -4.23950
C         -6.06040       -4.38170       -3.98920
C         -5.12890       -3.87700       -4.86370
C         -5.45720       -3.17310       -6.03540
N         -5.66180       -2.59320       -7.00610
C         -3.74560       -4.12260       -4.76230
N         -2.61910       -4.34720       -4.76370
C         -3.70730       -4.42360       -1.76460
C         -2.55060       -4.66320       -1.00330
N         -2.15060       -5.89180       -0.55420
C         -2.37810       -7.06220       -1.30950
C         -2.25260       -7.04200       -2.69550
C         -2.46210       -8.19750       -3.42060
C         -2.79070       -9.39330       -2.79230
C         -3.04170      -10.63780       -3.58580
C         -2.90370       -9.40200       -1.40690
C         -2.70210       -8.25310       -0.66760
C         -1.43000       -5.97540        0.65040
C         -0.35910       -6.85420        0.78570
C          0.33010       -6.92530        1.98020
C         -0.02060       -6.12740        3.06320
C          0.71080       -6.22740        4.36510
C         -1.09370       -5.25570        2.92060
C         -1.79690       -5.18190        1.73570
C         -1.82080       -3.47080       -0.80670
S         -0.35360       -3.08590        0.01780
C         -0.46070       -1.42070       -0.53220
C         -1.61940       -1.16500       -1.24950
N         -2.02380        0.07650       -1.69350
C         -2.87820        0.18540       -2.80770
C         -2.68900       -0.60770       -3.93610
C         -3.51840       -0.46570       -5.03200
C         -4.55600        0.45850       -5.03580
C         -5.42100        0.63470       -6.24400
C         -4.74940        1.23110       -3.89620
C         -3.92840        1.09980       -2.79450
C         -1.71000        1.23640       -0.96630
C         -1.42510        2.42160       -1.64060
C         -1.10630        3.56420       -0.93430
C         -1.05280        3.56060        0.45560
C         -0.70490        4.81080        1.20460
C         -1.36050        2.38180        1.12090
C         -1.69780        1.23620        0.42550
C         -2.37410       -2.35360       -1.41460
S         -3.85240       -2.72420       -2.22160
C          0.58020       -0.49860       -0.16670
C          1.42940        0.20600       -1.00160
N          1.51100       -0.00440       -2.36650
C          1.95680        1.00500       -3.22460
C          1.62920        2.33940       -2.98070
C          2.07800        3.33210       -3.82260
C          2.86070        3.02220       -4.93180
S          3.37720        4.38200       -5.93340
C          4.33760        3.60860       -7.26510
C          3.18450        1.69580       -5.18300
C          2.74030        0.70030       -4.33540
C          1.34670       -1.31940       -2.84720
C          0.63930       -1.56310       -4.02360
C          0.42890       -2.85620       -4.45170
C          0.93450       -3.93390       -3.72520
S          0.58910       -5.54720       -4.34250
C          1.13160       -6.63730       -2.99430
C          1.68890       -3.69110       -2.58560
C          1.88980       -2.39530       -2.15330
C          2.27590        1.06170       -0.24820
S          3.48060        2.23720       -0.64470
C          3.77690        2.53960        1.05740
C          2.94250        1.80570        1.88310
N          2.84110        1.93610        3.26000
C          2.62510        0.77840        4.01830
C          1.77590        0.79570        5.12390
C          1.54970       -0.35940        5.84010
C          2.16010       -1.55330        5.46460
S          1.78670       -2.99490        6.41870
C          3.24330       -4.04900        6.14390
C          3.00610       -1.57510        4.36480
C          3.24200       -0.41620        3.65450
C          2.99690        3.18640        3.86470
C          2.54370        4.33750        3.21990
C          2.79110        5.58750        3.74460
C          3.48050        5.70980        4.94360
S          3.89560        7.28850        5.63670
C          2.47160        8.29810        5.13390
C          3.89280        4.56650        5.61930
C          3.65450        3.31600        5.08820
C          2.10710        0.95150        1.12180
S          0.90630       -0.21190        1.53750
C          4.72840        3.54020        1.47810
C          5.55380        3.32960        2.59110
F          5.62140        2.09420        3.13330
C          6.30550        4.33220        3.14560
C          6.23570        5.62690        2.61200
C          5.54040        5.81490        1.41140
C          4.81730        4.78670        0.85220
C          6.89980        6.67420        3.33740
C          6.52670        7.97280        3.47300
C          5.22760        8.57800        3.07460
O          4.33970        8.10520        2.39680
C          5.20010        9.90690        3.72190
C          4.19900       10.85490        3.67750
C          4.38510       12.04000        4.38740
C          3.35840       13.11490        4.39260
O          3.48140       14.16700        4.96810
O          2.27010       12.78330        3.68500
C          1.24410       13.76390        3.63280
C          5.55590       12.24510        5.11850
C          6.56610       11.29800        5.15030
C          6.39100       10.11890        4.43860
C          7.25960        8.96260        4.25220
C          8.56050        8.87240        4.66550
C          9.23310        9.87680        5.39570
N          9.83910       10.64950        5.98920
C          9.43340        7.79590        4.39310
N         10.21540        6.97780        4.20030
H         -4.74650       -6.22580       -1.37770
H         -9.83380       -6.52250       -2.91220
H        -13.75880       -6.79730       -4.83890
H        -13.62800       -7.40720       -3.15920
H        -14.05980       -5.69780       -3.47900
H        -10.31480       -3.37640       -5.77160
H         -7.89690       -2.85590       -5.67330
H         -1.99630       -6.12680       -3.20750
H         -2.35760       -8.16540       -4.49510
H         -2.54910      -10.58810       -4.55380
H         -4.11210      -10.75680       -3.75630
H         -2.68890      -11.51740       -3.05170
H         -3.16150      -10.31960       -0.89870
H         -2.80180       -8.27090        0.40780
H         -0.07300       -7.48240       -0.04530
H          1.15960       -7.61200        2.07020
H          0.22360       -6.96120        5.00840
H          1.73820       -6.54990        4.21040
H          0.70360       -5.27310        4.88650
H         -1.38740       -4.63300        3.75250
H         -2.64360       -4.51690        1.64720
H         -1.88910       -1.33180       -3.95560
H         -3.35120       -1.08170       -5.90350
H         -5.58930       -0.31890       -6.73990
H         -4.93100        1.29920       -6.95640
H         -6.37930        1.07350       -5.97600
H         -5.55890        1.94630       -3.86830
H         -4.09630        1.70650       -1.91660
H         -1.45450        2.43750       -2.72020
H         -0.88370        4.47470       -1.47240
H         -0.49540        4.59430        2.24970
H          0.16210        5.29850        0.76110
H         -1.53630        5.51510        1.16270
H         -1.34410        2.35550        2.20110
H         -1.95970        0.33720        0.96380
H          1.00760        2.58990       -2.13610
H          1.82230        4.36320       -3.63250
H          5.20600        3.10360       -6.85230
H          3.70940        2.92290       -7.82620
H          4.65640        4.42450       -7.90630
H          3.79110        1.41990       -6.03020
H          3.01110       -0.32580       -4.53510
H          0.25550       -0.72840       -4.59150
H         -0.14650       -3.05260       -5.34290
H          0.75720       -7.62500       -3.24590
H          2.21640       -6.65730       -2.93610
H          0.69370       -6.30480       -2.05790
H          2.12690       -4.49750       -2.02040
H          2.47260       -2.21850       -1.26090
H          1.29660        1.71850        5.41490
H          0.89110       -0.35080        6.69490
H          4.14370       -3.46590        6.31120
H          3.17360       -4.84690        6.87650
H          3.22730       -4.46840        5.14250
H          3.48780       -2.48770        4.05300
H          3.91860       -0.43070        2.81350
H          2.01220        4.24780        2.28510
H          2.46810        6.45930        3.20070
H          2.51560        8.49450        4.06710
H          2.54890        9.22820        5.68800
H          1.55720        7.77600        5.39830
H          4.41940        4.66770        6.55570
H          4.00180        2.43300        5.60280
H          6.90320        4.12610        4.01980
H          5.56450        6.77410        0.92320
H          4.25520        4.94880       -0.05530
H          7.75560        6.34250        3.91330
H          3.30170       10.68870        3.10270
H          0.44010       13.33130        3.04330
H          1.61630       14.67690        3.16400
H          0.89750       14.00420        4.64000
H          5.65940       13.17300        5.66080
H          7.45970       11.48500        5.72240
