
  xtb     02042208143D
 energy: -269.108445345970 gnorm: 0.000577907481 xtb: 6.4.1 (unknown)
159173  0     0  0            999 V2000
   -6.7879   -0.1442    5.7698 C   0  0  0  0  0  0  0  0  0  0  0  0
   -6.1356    0.7372    6.5681 C   0  0  0  0  0  0  0  0  0  0  0  0
   -6.2973    0.6865    8.0501 C   0  0  0  0  0  0  0  0  0  0  0  0
   -7.1600    0.1108    8.6657 O   0  0  0  0  0  0  0  0  0  0  0  0
   -5.1387    1.4410    8.5810 C   0  0  0  0  0  0  0  0  0  0  0  0
   -4.7264    1.5940    9.8873 C   0  0  0  0  0  0  0  0  0  0  0  0
   -3.5732    2.3409   10.1349 C   0  0  0  0  0  0  0  0  0  0  0  0
   -3.1326    2.4948   11.5479 C   0  0  0  0  0  0  0  0  0  0  0  0
   -3.7251    2.0367   12.4918 O   0  0  0  0  0  0  0  0  0  0  0  0
   -1.9986    3.1986   11.6583 O   0  0  0  0  0  0  0  0  0  0  0  0
   -1.5134    3.3832   12.9807 C   0  0  0  0  0  0  0  0  0  0  0  0
   -2.8629    2.9147    9.0804 C   0  0  0  0  0  0  0  0  0  0  0  0
   -3.2822    2.7673    7.7677 C   0  0  0  0  0  0  0  0  0  0  0  0
   -4.4268    2.0261    7.5147 C   0  0  0  0  0  0  0  0  0  0  0  0
   -5.1211    1.7300    6.2661 C   0  0  0  0  0  0  0  0  0  0  0  0
   -5.0080    2.4473    5.1048 C   0  0  0  0  0  0  0  0  0  0  0  0
   -4.0253    3.4228    4.8562 C   0  0  0  0  0  0  0  0  0  0  0  0
   -3.2328    4.2001    4.5597 N   0  0  0  0  0  0  0  0  0  0  0  0
   -5.9054    2.3339    4.0192 C   0  0  0  0  0  0  0  0  0  0  0  0
   -6.6357    2.3264    3.1341 N   0  0  0  0  0  0  0  0  0  0  0  0
   -6.4604   -0.4767    4.4249 C   0  0  0  0  0  0  0  0  0  0  0  0
   -7.3104   -0.8465    3.4167 C   0  0  0  0  0  0  0  0  0  0  0  0
   -6.6781   -1.0131    2.1671 C   0  0  0  0  0  0  0  0  0  0  0  0
   -7.6851   -1.4494    0.7905 S   0  0  0  0  0  0  0  0  0  0  0  0
   -7.0153   -0.4941   -0.6192 C   0  0  0  0  0  0  0  0  0  0  0  0
   -6.1603   -1.3382   -1.5428 C   0  0  0  0  0  0  0  0  0  0  0  0
   -5.3115   -0.8682    2.2302 C   0  0  0  0  0  0  0  0  0  0  0  0
   -4.8188   -0.4282    3.8466 S   0  0  0  0  0  0  0  0  0  0  0  0
   -4.2468   -0.9348    1.2535 C   0  0  0  0  0  0  0  0  0  0  0  0
   -3.2619   -1.8998    1.1726 C   0  0  0  0  0  0  0  0  0  0  0  0
   -3.2629   -3.0801    1.8874 N   0  0  0  0  0  0  0  0  0  0  0  0
   -2.0728   -3.6504    2.3519 C   0  0  0  0  0  0  0  0  0  0  0  0
   -0.9647   -2.8718    2.6708 C   0  0  0  0  0  0  0  0  0  0  0  0
    0.2074   -3.4588    3.1089 C   0  0  0  0  0  0  0  0  0  0  0  0
    0.2845   -4.8364    3.2510 C   0  0  0  0  0  0  0  0  0  0  0  0
    1.7209   -5.6990    3.8079 S   0  0  0  0  0  0  0  0  0  0  0  0
    3.0021   -4.4141    3.8730 C   0  0  0  0  0  0  0  0  0  0  0  0
   -0.8336   -5.6173    2.9612 C   0  0  0  0  0  0  0  0  0  0  0  0
   -1.9967   -5.0346    2.5144 C   0  0  0  0  0  0  0  0  0  0  0  0
   -4.4961   -3.5930    2.3454 C   0  0  0  0  0  0  0  0  0  0  0  0
   -5.4978   -3.9067    1.4368 C   0  0  0  0  0  0  0  0  0  0  0  0
   -6.7429   -4.3100    1.8775 C   0  0  0  0  0  0  0  0  0  0  0  0
   -7.0012   -4.3867    3.2392 C   0  0  0  0  0  0  0  0  0  0  0  0
   -8.5885   -4.7622    3.9059 S   0  0  0  0  0  0  0  0  0  0  0  0
   -9.7013   -4.4844    2.4977 C   0  0  0  0  0  0  0  0  0  0  0  0
   -5.9729   -4.1496    4.1507 C   0  0  0  0  0  0  0  0  0  0  0  0
   -4.7267   -3.7677    3.7091 C   0  0  0  0  0  0  0  0  0  0  0  0
   -2.2595   -1.5215    0.2394 C   0  0  0  0  0  0  0  0  0  0  0  0
   -0.8464   -2.2875   -0.3970 S   0  0  0  0  0  0  0  0  0  0  0  0
   -0.4997   -0.8701   -1.3776 C   0  0  0  0  0  0  0  0  0  0  0  0
   -1.4747    0.1114   -1.2653 C   0  0  0  0  0  0  0  0  0  0  0  0
   -1.5451    1.2791   -2.0009 N   0  0  0  0  0  0  0  0  0  0  0  0
   -1.1033    1.3093   -3.3311 C   0  0  0  0  0  0  0  0  0  0  0  0
   -1.2767    0.2032   -4.1643 C   0  0  0  0  0  0  0  0  0  0  0  0
   -0.7215    0.1872   -5.4227 C   0  0  0  0  0  0  0  0  0  0  0  0
    0.0084    1.2799   -5.8890 C   0  0  0  0  0  0  0  0  0  0  0  0
    0.7303    1.1237   -7.4883 S   0  0  0  0  0  0  0  0  0  0  0  0
    1.9382    2.4781   -7.5395 C   0  0  0  0  0  0  0  0  0  0  0  0
    0.1182    2.4124   -5.0931 C   0  0  0  0  0  0  0  0  0  0  0  0
   -0.4297    2.4234   -3.8250 C   0  0  0  0  0  0  0  0  0  0  0  0
   -2.0807    2.4279   -1.3967 C   0  0  0  0  0  0  0  0  0  0  0  0
   -1.7943    2.7232   -0.0660 C   0  0  0  0  0  0  0  0  0  0  0  0
   -2.3311    3.8409    0.5435 C   0  0  0  0  0  0  0  0  0  0  0  0
   -3.1533    4.6950   -0.1792 C   0  0  0  0  0  0  0  0  0  0  0  0
   -3.8890    6.1521    0.4842 S   0  0  0  0  0  0  0  0  0  0  0  0
   -3.0483    6.3862    2.0750 C   0  0  0  0  0  0  0  0  0  0  0  0
   -3.4368    4.4059   -1.5145 C   0  0  0  0  0  0  0  0  0  0  0  0
   -2.9125    3.2854   -2.1170 C   0  0  0  0  0  0  0  0  0  0  0  0
   -2.4595   -0.2724   -0.3212 C   0  0  0  0  0  0  0  0  0  0  0  0
   -3.9061    0.4733    0.2502 S   0  0  0  0  0  0  0  0  0  0  0  0
    0.6676   -0.8357   -2.2006 C   0  0  0  0  0  0  0  0  0  0  0  0
    1.4404    0.2632   -2.4895 C   0  0  0  0  0  0  0  0  0  0  0  0
    2.4668    0.0054   -3.4106 C   0  0  0  0  0  0  0  0  0  0  0  0
    3.4039    1.2356   -4.2068 S   0  0  0  0  0  0  0  0  0  0  0  0
    3.3137    2.6600   -3.0668 C   0  0  0  0  0  0  0  0  0  0  0  0
    4.0168    2.3740   -1.7552 C   0  0  0  0  0  0  0  0  0  0  0  0
    2.5212   -1.3314   -3.8043 C   0  0  0  0  0  0  0  0  0  0  0  0
    1.2130   -2.2344   -3.0655 S   0  0  0  0  0  0  0  0  0  0  0  0
    3.3720   -2.0343   -4.6802 C   0  0  0  0  0  0  0  0  0  0  0  0
    4.6978   -1.8096   -4.9354 C   0  0  0  0  0  0  0  0  0  0  0  0
    5.6065   -1.0168   -4.0889 C   0  0  0  0  0  0  0  0  0  0  0  0
    5.3151   -0.3351   -3.1238 O   0  0  0  0  0  0  0  0  0  0  0  0
    6.9670   -1.2929   -4.5856 C   0  0  0  0  0  0  0  0  0  0  0  0
    8.1613   -0.7932   -4.0718 C   0  0  0  0  0  0  0  0  0  0  0  0
    9.2837   -1.2441   -4.7239 C   0  0  0  0  0  0  0  0  0  0  0  0
    9.2248   -2.1321   -5.8057 C   0  0  0  0  0  0  0  0  0  0  0  0
    8.0536   -2.6317   -6.3238 C   0  0  0  0  0  0  0  0  0  0  0  0
    6.8987   -2.1833   -5.6755 C   0  0  0  0  0  0  0  0  0  0  0  0
    5.4947   -2.4921   -5.9348 C   0  0  0  0  0  0  0  0  0  0  0  0
    5.0150   -3.2306   -6.9848 C   0  0  0  0  0  0  0  0  0  0  0  0
    5.8240   -3.8644   -7.9500 C   0  0  0  0  0  0  0  0  0  0  0  0
    6.4244   -4.4114   -8.7618 N   0  0  0  0  0  0  0  0  0  0  0  0
    3.6481   -3.4389   -7.2685 C   0  0  0  0  0  0  0  0  0  0  0  0
    2.5607   -3.6433   -7.5764 N   0  0  0  0  0  0  0  0  0  0  0  0
   10.7255   -2.1745   -5.9561 C   0  0  0  0  0  0  0  0  0  0  0  0
   11.4383   -3.4276   -5.4051 C   0  0  0  0  0  0  0  0  0  0  0  0
   12.8761   -2.9875   -5.2502 C   0  0  0  0  0  0  0  0  0  0  0  0
   12.9321   -2.1443   -4.2272 C   0  0  0  0  0  0  0  0  0  0  0  0
   11.5330   -2.0005   -3.6735 C   0  0  0  0  0  0  0  0  0  0  0  0
   10.9990   -3.4147   -3.9352 C   0  0  0  0  0  0  0  0  0  0  0  0
   10.7908   -1.1819   -4.7512 C   0  0  0  0  0  0  0  0  0  0  0  0
   -7.6109   -0.6905    6.2186 H   0  0  0  0  0  0  0  0  0  0  0  0
   -5.2724    1.1522   10.7068 H   0  0  0  0  0  0  0  0  0  0  0  0
   -1.2695    2.4194   13.4320 H   0  0  0  0  0  0  0  0  0  0  0  0
   -0.6238    4.0015   12.8945 H   0  0  0  0  0  0  0  0  0  0  0  0
   -2.2683    3.8767   13.5959 H   0  0  0  0  0  0  0  0  0  0  0  0
   -1.9720    3.4824    9.2986 H   0  0  0  0  0  0  0  0  0  0  0  0
   -2.7154    3.2124    6.9653 H   0  0  0  0  0  0  0  0  0  0  0  0
   -8.3743   -0.9333    3.5422 H   0  0  0  0  0  0  0  0  0  0  0  0
   -6.4734    0.3516   -0.2016 H   0  0  0  0  0  0  0  0  0  0  0  0
   -7.8981   -0.1264   -1.1421 H   0  0  0  0  0  0  0  0  0  0  0  0
   -6.7462   -2.1543   -1.9599 H   0  0  0  0  0  0  0  0  0  0  0  0
   -5.7876   -0.7224   -2.3589 H   0  0  0  0  0  0  0  0  0  0  0  0
   -5.3100   -1.7597   -1.0119 H   0  0  0  0  0  0  0  0  0  0  0  0
   -1.0209   -1.7959    2.5929 H   0  0  0  0  0  0  0  0  0  0  0  0
    1.0465   -2.8250    3.3464 H   0  0  0  0  0  0  0  0  0  0  0  0
    3.9216   -4.9321    4.1269 H   0  0  0  0  0  0  0  0  0  0  0  0
    2.7664   -3.6868    4.6447 H   0  0  0  0  0  0  0  0  0  0  0  0
    3.0997   -3.9424    2.8996 H   0  0  0  0  0  0  0  0  0  0  0  0
   -0.7715   -6.6877    3.0830 H   0  0  0  0  0  0  0  0  0  0  0  0
   -2.8567   -5.6448    2.2831 H   0  0  0  0  0  0  0  0  0  0  0  0
   -5.3052   -3.8173    0.3782 H   0  0  0  0  0  0  0  0  0  0  0  0
   -7.5041   -4.5431    1.1523 H   0  0  0  0  0  0  0  0  0  0  0  0
  -10.7032   -4.4596    2.9148 H   0  0  0  0  0  0  0  0  0  0  0  0
   -9.4637   -3.5322    2.0317 H   0  0  0  0  0  0  0  0  0  0  0  0
   -9.6215   -5.3019    1.7872 H   0  0  0  0  0  0  0  0  0  0  0  0
   -6.1737   -4.2464    5.2066 H   0  0  0  0  0  0  0  0  0  0  0  0
   -3.9334   -3.5638    4.4131 H   0  0  0  0  0  0  0  0  0  0  0  0
   -1.8314   -0.6525   -3.8097 H   0  0  0  0  0  0  0  0  0  0  0  0
   -0.8343   -0.6772   -6.0584 H   0  0  0  0  0  0  0  0  0  0  0  0
    2.5188    2.3159   -8.4421 H   0  0  0  0  0  0  0  0  0  0  0  0
    2.5824    2.4168   -6.6669 H   0  0  0  0  0  0  0  0  0  0  0  0
    1.4318    3.4373   -7.5984 H   0  0  0  0  0  0  0  0  0  0  0  0
    0.6445    3.2861   -5.4421 H   0  0  0  0  0  0  0  0  0  0  0  0
   -0.3251    3.3006   -3.2016 H   0  0  0  0  0  0  0  0  0  0  0  0
   -1.1423    2.0705    0.4973 H   0  0  0  0  0  0  0  0  0  0  0  0
   -2.1025    4.0329    1.5794 H   0  0  0  0  0  0  0  0  0  0  0  0
   -1.9751    6.4332    1.9156 H   0  0  0  0  0  0  0  0  0  0  0  0
   -3.4072    7.3383    2.4536 H   0  0  0  0  0  0  0  0  0  0  0  0
   -3.3096    5.5940    2.7711 H   0  0  0  0  0  0  0  0  0  0  0  0
   -4.0819    5.0706   -2.0679 H   0  0  0  0  0  0  0  0  0  0  0  0
   -3.1422    3.0621   -3.1482 H   0  0  0  0  0  0  0  0  0  0  0  0
    1.2598    1.2188   -2.0355 H   0  0  0  0  0  0  0  0  0  0  0  0
    3.8223    3.4531   -3.6158 H   0  0  0  0  0  0  0  0  0  0  0  0
    2.2682    2.9372   -2.9369 H   0  0  0  0  0  0  0  0  0  0  0  0
    4.0672    3.2812   -1.1559 H   0  0  0  0  0  0  0  0  0  0  0  0
    3.4920    1.6077   -1.1899 H   0  0  0  0  0  0  0  0  0  0  0  0
    5.0245    2.0145   -1.9463 H   0  0  0  0  0  0  0  0  0  0  0  0
    2.9152   -2.9039   -5.1386 H   0  0  0  0  0  0  0  0  0  0  0  0
    8.1633   -0.1114   -3.2356 H   0  0  0  0  0  0  0  0  0  0  0  0
    8.0241   -3.3159   -7.1553 H   0  0  0  0  0  0  0  0  0  0  0  0
   11.1161   -1.8516   -6.9192 H   0  0  0  0  0  0  0  0  0  0  0  0
   11.2630   -4.3373   -5.9728 H   0  0  0  0  0  0  0  0  0  0  0  0
   13.6683   -3.2814   -5.9135 H   0  0  0  0  0  0  0  0  0  0  0  0
   13.7803   -1.5930   -3.8654 H   0  0  0  0  0  0  0  0  0  0  0  0
   11.4443   -1.6103   -2.6629 H   0  0  0  0  0  0  0  0  0  0  0  0
   11.5185   -4.1668   -3.3436 H   0  0  0  0  0  0  0  0  0  0  0  0
    9.9249   -3.5169   -3.7921 H   0  0  0  0  0  0  0  0  0  0  0  0
   11.2246   -0.1964   -4.9117 H   0  0  0  0  0  0  0  0  0  0  0  0
  1  2  2  0  0  0  0
  2  3  1  0  0  0  0
  3  4  2  0  0  0  0
  3  5  1  0  0  0  0
  5  6  2  0  0  0  0
  6  7  1  0  0  0  0
  7  8  1  0  0  0  0
  8  9  2  0  0  0  0
  8 10  1  0  0  0  0
 10 11  1  0  0  0  0
  7 12  2  0  0  0  0
 12 13  1  0  0  0  0
 13 14  2  0  0  0  0
 14 15  1  0  0  0  0
 15 16  2  0  0  0  0
 16 17  1  0  0  0  0
 17 18  3  0  0  0  0
 16 19  1  0  0  0  0
 19 20  3  0  0  0  0
  1 21  1  0  0  0  0
 21 22  2  0  0  0  0
 22 23  1  0  0  0  0
 23 24  1  0  0  0  0
 24 25  1  0  0  0  0
 25 26  1  0  0  0  0
 23 27  2  0  0  0  0
 27 28  1  0  0  0  0
 27 29  1  0  0  0  0
 29 30  2  0  0  0  0
 30 31  1  0  0  0  0
 31 32  1  0  0  0  0
 32 33  2  0  0  0  0
 33 34  1  0  0  0  0
 34 35  2  0  0  0  0
 35 36  1  0  0  0  0
 36 37  1  0  0  0  0
 35 38  1  0  0  0  0
 38 39  2  0  0  0  0
 31 40  1  0  0  0  0
 40 41  2  0  0  0  0
 41 42  1  0  0  0  0
 42 43  2  0  0  0  0
 43 44  1  0  0  0  0
 44 45  1  0  0  0  0
 43 46  1  0  0  0  0
 46 47  2  0  0  0  0
 30 48  1  0  0  0  0
 48 49  1  0  0  0  0
 49 50  1  0  0  0  0
 50 51  2  0  0  0  0
 51 52  1  0  0  0  0
 52 53  1  0  0  0  0
 53 54  2  0  0  0  0
 54 55  1  0  0  0  0
 55 56  2  0  0  0  0
 56 57  1  0  0  0  0
 57 58  1  0  0  0  0
 56 59  1  0  0  0  0
 59 60  2  0  0  0  0
 52 61  1  0  0  0  0
 61 62  2  0  0  0  0
 62 63  1  0  0  0  0
 63 64  2  0  0  0  0
 64 65  1  0  0  0  0
 65 66  1  0  0  0  0
 64 67  1  0  0  0  0
 67 68  2  0  0  0  0
 51 69  1  0  0  0  0
 69 70  1  0  0  0  0
 50 71  1  0  0  0  0
 71 72  2  0  0  0  0
 72 73  1  0  0  0  0
 73 74  1  0  0  0  0
 74 75  1  0  0  0  0
 75 76  1  0  0  0  0
 73 77  2  0  0  0  0
 77 78  1  0  0  0  0
 77 79  1  0  0  0  0
 79 80  2  0  0  0  0
 80 81  1  0  0  0  0
 81 82  2  0  0  0  0
 81 83  1  0  0  0  0
 83 84  2  0  0  0  0
 84 85  1  0  0  0  0
 85 86  2  0  0  0  0
 86 87  1  0  0  0  0
 87 88  2  0  0  0  0
 88 89  1  0  0  0  0
 89 90  2  0  0  0  0
 90 91  1  0  0  0  0
 91 92  3  0  0  0  0
 90 93  1  0  0  0  0
 93 94  3  0  0  0  0
 86 95  1  0  0  0  0
 95 96  1  0  0  0  0
 96 97  1  0  0  0  0
 97 98  2  0  0  0  0
 98 99  1  0  0  0  0
 99100  1  0  0  0  0
 99101  1  0  0  0  0
 15  2  1  0  0  0  0
 28 21  1  0  0  0  0
 70 29  1  0  0  0  0
 78 71  1  0  0  0  0
 89 80  1  0  0  0  0
101 95  1  0  0  0  0
 14  5  1  0  0  0  0
 39 32  1  0  0  0  0
 47 40  1  0  0  0  0
 69 48  2  0  0  0  0
 88 83  1  0  0  0  0
100 96  1  0  0  0  0
 60 53  1  0  0  0  0
 68 61  1  0  0  0  0
101 85  1  0  0  0  0
  1102  1  0  0  0  0
  6103  1  0  0  0  0
 11104  1  0  0  0  0
 11105  1  0  0  0  0
 11106  1  0  0  0  0
 12107  1  0  0  0  0
 13108  1  0  0  0  0
 22109  1  0  0  0  0
 25110  1  0  0  0  0
 25111  1  0  0  0  0
 26112  1  0  0  0  0
 26113  1  0  0  0  0
 26114  1  0  0  0  0
 33115  1  0  0  0  0
 34116  1  0  0  0  0
 37117  1  0  0  0  0
 37118  1  0  0  0  0
 37119  1  0  0  0  0
 38120  1  0  0  0  0
 39121  1  0  0  0  0
 41122  1  0  0  0  0
 42123  1  0  0  0  0
 45124  1  0  0  0  0
 45125  1  0  0  0  0
 45126  1  0  0  0  0
 46127  1  0  0  0  0
 47128  1  0  0  0  0
 54129  1  0  0  0  0
 55130  1  0  0  0  0
 58131  1  0  0  0  0
 58132  1  0  0  0  0
 58133  1  0  0  0  0
 59134  1  0  0  0  0
 60135  1  0  0  0  0
 62136  1  0  0  0  0
 63137  1  0  0  0  0
 66138  1  0  0  0  0
 66139  1  0  0  0  0
 66140  1  0  0  0  0
 67141  1  0  0  0  0
 68142  1  0  0  0  0
 72143  1  0  0  0  0
 75144  1  0  0  0  0
 75145  1  0  0  0  0
 76146  1  0  0  0  0
 76147  1  0  0  0  0
 76148  1  0  0  0  0
 79149  1  0  0  0  0
 84150  1  0  0  0  0
 87151  1  0  0  0  0
 95152  1  0  0  0  0
 96153  1  0  0  0  0
 97154  1  0  0  0  0
 98155  1  0  0  0  0
 99156  1  0  0  0  0
100157  1  0  0  0  0
100158  1  0  0  0  0
101159  1  0  0  0  0
M  END
