194

C          5.95470        7.14440        1.56870
C          5.61020        8.46520        1.65550
C          4.48700        9.12000        0.96170
O          3.76340        8.65150        0.10720
C          4.41490       10.48680        1.51960
C          3.49360       11.47360        1.23340
C          3.62910       12.68790        1.89980
O          2.80050       13.76940        1.67930
C          1.47370       13.62140        1.45390
O          0.89630       12.57300        1.47110
C          0.85070       14.96800        1.21560
C          4.66990       12.89150        2.80520
C          5.59120       11.89600        3.08110
C          5.46240       10.67330        2.43700
C          6.24720        9.44400        2.51700
C          7.39450        9.28260        3.25100
C          7.96040       10.28850        4.06230
N          8.47340       11.05980        4.74060
C          8.19140        8.11960        3.29460
N          8.90550        7.22300        3.37640
C          5.41260        6.10360        0.79110
C          5.86990        4.80190        0.91150
C          5.22880        3.87970        0.07540
C          5.46300        2.48070       -0.01780
C          6.53330        1.82340        0.69110
C          6.54090        0.55120        1.20570
C          7.74660        0.11750        1.77900
C          8.77380        1.02180        1.73150
S         10.33740        0.73350        2.44980
C         11.29600        2.18270        1.88620
C         11.71900        2.06620        0.43590
Se         8.23190        2.62290        0.91310
C          4.58380        1.77940       -0.83650
C          3.57040        2.41080       -1.60210
C          3.39240        3.81020       -1.57320
C          2.40500        4.46730       -2.39950
C          1.63570        5.55280       -2.08140
C          0.80430        6.04390       -3.10560
C          0.90080        5.38880       -4.29910
S         -0.07330        5.76780       -5.70570
C          1.18290        5.74580       -7.04350
C          1.37690        4.36690       -7.64080
Se         2.09680        3.93910       -4.18240
C          4.21300        4.51120       -0.69500
S          4.13100        6.22310       -0.39170
C          2.75540        1.47500       -2.26720
C          3.10650        0.17110       -2.05580
S          4.53810        0.05230       -1.05060
C          2.31310       -0.98720       -2.35230
C          2.73640       -2.27230       -2.03370
F          4.02880       -2.50670       -1.74380
C          1.84420       -3.33310       -1.85770
F          2.32630       -4.52660       -1.47990
C          0.48270       -3.15670       -2.00670
C          0.06860       -1.96640       -2.67260
N         -1.19400       -1.87120       -3.10000
C         -1.63250       -0.74930       -3.61770
C         -3.05530       -0.76240       -4.08490
C         -3.99590       -0.55810       -2.89460
C         -0.77570        0.38240       -3.66530
N          0.47860        0.27930       -3.29390
C          0.96030       -0.87300       -2.81130
C         -1.19910        1.73400       -4.15400
C         -0.83550        1.91200       -5.62870
C         -0.50510       -3.88540       -1.24650
C         -0.42550       -4.02220        0.13470
N          0.71780       -3.67110        0.88480
C          1.00100       -2.32270        1.07800
C          2.02200       -1.90210        1.93470
C          2.36250       -0.56920        2.05110
C          1.67040        0.39910        1.33860
S          2.05040        2.12850        1.36250
C          3.25250        2.29080        2.71250
C          0.58730        0.00460        0.56200
C          0.24810       -1.32560        0.44480
C          1.57140       -4.71250        1.30520
C          2.96110       -4.60780        1.20760
C          3.77020       -5.64530        1.61000
C          3.22050       -6.82410        2.10870
S          4.36290       -8.07720        2.60190
C          3.30320       -9.43160        3.18350
C          1.84180       -6.94740        2.18020
C          1.03010       -5.90210        1.78080
C         -1.67090       -4.39510        0.67840
S         -2.25900       -4.56820        2.29630
C         -3.88980       -4.85560        1.67930
C         -3.95610       -4.71750        0.26770
N         -5.10600       -4.67690       -0.47250
C         -5.04470       -4.95950       -1.84960
C         -4.38210       -6.09370       -2.30750
C         -4.29970       -6.36070       -3.66020
C         -4.88050       -5.49280       -4.57560
S         -4.82550       -5.71050       -6.32280
C         -3.81780       -7.20240       -6.55060
C         -5.56360       -4.36640       -4.11570
C         -5.64940       -4.10250       -2.76870
C         -6.32000       -4.18250        0.04590
C         -7.51880       -4.79410       -0.30460
C         -8.70860       -4.37600        0.26010
C         -8.71100       -3.35140        1.19650
S        -10.15200       -2.82300        2.06350
C        -11.28920       -4.22440        1.87150
C         -7.51980       -2.68450        1.48710
C         -6.33780       -3.08540        0.90960
C         -2.67730       -4.51180       -0.27810
S         -2.09450       -4.17090       -1.87690
C         -4.98670       -5.20750        2.46310
C         -5.16410       -5.16390        3.82840
C         -4.18500       -4.69640        4.81250
O         -3.00160       -4.47210        4.63780
C         -4.92620       -4.55940        6.08490
C         -4.46010       -4.11010        7.30270
C         -5.36710       -4.06890        8.35840
O         -5.01750       -3.67820        9.63690
C         -4.15740       -2.65810        9.85960
O         -3.67940       -1.97450        9.00070
C         -3.91680       -2.51340       11.33630
C         -6.68520       -4.48470        8.18390
C         -7.14090       -4.93890        6.95700
C         -6.25540       -4.97050        5.89070
C         -6.41940       -5.39280        4.50090
C         -7.57420       -5.90630        3.96080
C         -7.70290       -6.44890        2.66970
N         -7.89640       -6.94400        1.64940
C         -8.80680       -5.98230        4.63810
N         -9.85560       -6.05310        5.10180
H          6.76470        6.81030        2.20640
H          2.70160       11.29130        0.52530
H          0.95950       15.57840        2.10910
H         -0.20160       14.84470        0.97980
H          1.36420       15.46920        0.39910
H          4.74360       13.85080        3.29320
H          6.38000       12.08330        3.79070
H          6.62680        4.54810        1.63570
H          5.66540       -0.07550        1.20920
H          7.86350       -0.85530        2.22390
H         12.16070        2.21380        2.54840
H         10.67900        3.06960        2.06180
H         12.30380        2.93880        0.15310
H         10.84890        2.00900       -0.21820
H         12.32300        1.17430        0.28650
H          1.64090        5.99660       -1.10130
H          0.15100        6.88830       -2.96960
H          0.80480        6.44630       -7.78720
H          2.10640        6.13590       -6.61580
H          2.10960        4.41220       -8.44380
H          1.73830        3.66830       -6.88360
H          0.43920        3.98880       -8.04120
H          1.86950        1.71990       -2.82370
H         -3.25740       -1.74090       -4.52370
H         -3.22480        0.00750       -4.83650
H         -3.80730        0.39760       -2.41000
H         -5.03020       -0.58130       -3.22760
H         -3.84470       -1.35260       -2.16790
H         -0.66360        2.48910       -3.57350
H         -2.26910        1.87830       -4.00960
H         -1.34320        1.17640       -6.24900
H         -1.11910        2.90790       -5.95840
H          0.23900        1.79250       -5.75670
H          2.55150       -2.62330        2.53620
H          3.17090       -0.30130        2.71280
H          2.82900        1.89310        3.62990
H          3.42990        3.35690        2.81720
H          4.18130        1.78990        2.45460
H          0.00730        0.75550        0.04670
H         -0.62710       -1.58040       -0.13110
H          3.41520       -3.72290        0.79030
H          4.84270       -5.55830        1.52830
H          3.98170      -10.21680        3.50210
H          2.70310       -9.09880        4.02540
H          2.67940       -9.79110        2.37030
H          1.37820       -7.84830        2.54860
H         -0.03890       -6.01870        1.85470
H         -3.93400       -6.77270       -1.59750
H         -3.78270       -7.24910       -3.98330
H         -3.73830       -7.33900       -7.62460
H         -4.31570       -8.05990       -6.10750
H         -2.83090       -7.05070       -6.12380
H         -6.01780       -3.70070       -4.83340
H         -6.17290       -3.22650       -2.41650
H         -7.51530       -5.61930       -0.99940
H         -9.62000       -4.87940       -0.01560
H        -12.09040       -4.05060        2.58280
H        -11.69090       -4.25100        0.86270
H        -10.77210       -5.14700        2.11740
H         -7.53720       -1.85470        2.17670
H         -5.41830       -2.57130        1.14620
H         -5.85160       -5.51870        1.89190
H         -3.43400       -3.79970        7.41470
H         -3.40270       -1.57740       11.53100
H         -4.86100       -2.54940       11.87260
H         -3.30050       -3.34340       11.67630
H         -7.35180       -4.44590        9.03130
H         -8.16720       -5.25030        6.85120
