
  xtb     02072216133D
 energy: -381.958768322674 gnorm: 0.000941813101 xtb: 6.4.1 (unknown)
222240  0     0  0            999 V2000
    5.0093    6.9060   -2.2605 C   0  0  0  0  0  0  0  0  0  0  0  0
    6.1608    6.8689   -1.5243 C   0  0  0  0  0  0  0  0  0  0  0  0
    6.4941    5.9016   -0.4678 C   0  0  0  0  0  0  0  0  0  0  0  0
    5.7326    5.2253    0.1984 O   0  0  0  0  0  0  0  0  0  0  0  0
    7.9623    5.9244   -0.3521 C   0  0  0  0  0  0  0  0  0  0  0  0
    8.7621    5.0906    0.4019 C   0  0  0  0  0  0  0  0  0  0  0  0
   10.1363    5.2962    0.3336 C   0  0  0  0  0  0  0  0  0  0  0  0
   11.0636    4.4963    0.9642 O   0  0  0  0  0  0  0  0  0  0  0  0
   10.8080    3.8027    2.0912 C   0  0  0  0  0  0  0  0  0  0  0  0
    9.8108    3.8989    2.7509 O   0  0  0  0  0  0  0  0  0  0  0  0
   11.9738    2.9054    2.4002 C   0  0  0  0  0  0  0  0  0  0  0  0
   10.6654    6.3139   -0.4622 C   0  0  0  0  0  0  0  0  0  0  0  0
    9.8513    7.1477   -1.2100 C   0  0  0  0  0  0  0  0  0  0  0  0
    8.4786    6.9507   -1.1613 C   0  0  0  0  0  0  0  0  0  0  0  0
    7.3683    7.6190   -1.8343 C   0  0  0  0  0  0  0  0  0  0  0  0
    7.4428    8.7712   -2.5667 C   0  0  0  0  0  0  0  0  0  0  0  0
    6.3309    9.4645   -3.0962 C   0  0  0  0  0  0  0  0  0  0  0  0
    5.4804   10.1156   -3.5080 N   0  0  0  0  0  0  0  0  0  0  0  0
    8.6488    9.4555   -2.8270 C   0  0  0  0  0  0  0  0  0  0  0  0
    9.6029   10.0422   -3.0775 N   0  0  0  0  0  0  0  0  0  0  0  0
    3.8517    6.1128   -2.1246 C   0  0  0  0  0  0  0  0  0  0  0  0
    3.4312    5.2355   -0.6834 S   0  0  0  0  0  0  0  0  0  0  0  0
    2.0109    4.5675   -1.4164 C   0  0  0  0  0  0  0  0  0  0  0  0
    1.8440    5.0558   -2.7226 C   0  0  0  0  0  0  0  0  0  0  0  0
    0.7105    4.7536   -3.5838 C   0  0  0  0  0  0  0  0  0  0  0  0
   -0.2817    4.1375   -3.1976 O   0  0  0  0  0  0  0  0  0  0  0  0
    0.8089    5.2773   -4.9330 C   0  0  0  0  0  0  0  0  0  0  0  0
   -0.1224    5.0397   -5.9173 C   0  0  0  0  0  0  0  0  0  0  0  0
   -1.3406    4.1976   -5.8208 C   0  0  0  0  0  0  0  0  0  0  0  0
   -2.0596    4.0157   -7.1486 C   0  0  0  0  0  0  0  0  0  0  0  0
    0.3081    5.8677   -7.3712 S   0  0  0  0  0  0  0  0  0  0  0  0
    1.7435    6.5316   -6.6620 C   0  0  0  0  0  0  0  0  0  0  0  0
    2.6430    7.3912   -7.4723 C   0  0  0  0  0  0  0  0  0  0  0  0
    3.7328    6.5508   -8.1449 C   0  0  0  0  0  0  0  0  0  0  0  0
    1.8859    6.1140   -5.3624 C   0  0  0  0  0  0  0  0  0  0  0  0
    3.0149    6.4441   -4.4944 C   0  0  0  0  0  0  0  0  0  0  0  0
    3.9918    7.0618   -4.8897 O   0  0  0  0  0  0  0  0  0  0  0  0
    2.8931    5.9121   -3.1252 C   0  0  0  0  0  0  0  0  0  0  0  0
    1.3439    3.5131   -0.7401 C   0  0  0  0  0  0  0  0  0  0  0  0
    1.8334    2.8948    0.4192 C   0  0  0  0  0  0  0  0  0  0  0  0
    2.8727    3.4217    1.2010 N   0  0  0  0  0  0  0  0  0  0  0  0
    2.5354    4.4626    2.0777 C   0  0  0  0  0  0  0  0  0  0  0  0
    3.4663    5.4424    2.4349 C   0  0  0  0  0  0  0  0  0  0  0  0
    3.1073    6.4642    3.2825 C   0  0  0  0  0  0  0  0  0  0  0  0
    1.8105    6.5501    3.7889 C   0  0  0  0  0  0  0  0  0  0  0  0
    1.4769    7.9033    4.8717 S   0  0  0  0  0  0  0  0  0  0  0  0
   -0.2852    7.7240    5.2710 C   0  0  0  0  0  0  0  0  0  0  0  0
    0.8768    5.5924    3.4222 C   0  0  0  0  0  0  0  0  0  0  0  0
    1.2381    4.5617    2.5754 C   0  0  0  0  0  0  0  0  0  0  0  0
    4.1423    2.8354    1.1600 C   0  0  0  0  0  0  0  0  0  0  0  0
    4.5878    2.2473   -0.0244 C   0  0  0  0  0  0  0  0  0  0  0  0
    5.8780    1.7789   -0.1306 C   0  0  0  0  0  0  0  0  0  0  0  0
    6.7517    1.8802    0.9458 C   0  0  0  0  0  0  0  0  0  0  0  0
    8.4192    1.3352    0.7082 S   0  0  0  0  0  0  0  0  0  0  0  0
    8.8734    0.7533    2.3692 C   0  0  0  0  0  0  0  0  0  0  0  0
    6.3018    2.4196    2.1421 C   0  0  0  0  0  0  0  0  0  0  0  0
    5.0027    2.8732    2.2533 C   0  0  0  0  0  0  0  0  0  0  0  0
    1.1211    1.7213    0.7217 C   0  0  0  0  0  0  0  0  0  0  0  0
    1.1595    0.5376    1.9941 S   0  0  0  0  0  0  0  0  0  0  0  0
   -0.2254   -0.2863    1.2878 C   0  0  0  0  0  0  0  0  0  0  0  0
   -0.7143    0.3627    0.1731 C   0  0  0  0  0  0  0  0  0  0  0  0
   -1.8463   -0.0074   -0.5544 N   0  0  0  0  0  0  0  0  0  0  0  0
   -3.0441   -0.2730    0.1180 C   0  0  0  0  0  0  0  0  0  0  0  0
   -3.9921   -1.1537   -0.4030 C   0  0  0  0  0  0  0  0  0  0  0  0
   -5.1435   -1.4543    0.2981 C   0  0  0  0  0  0  0  0  0  0  0  0
   -5.3876   -0.8657    1.5312 C   0  0  0  0  0  0  0  0  0  0  0  0
   -6.8158   -1.2134    2.5180 S   0  0  0  0  0  0  0  0  0  0  0  0
   -8.0283   -1.8102    1.3074 C   0  0  0  0  0  0  0  0  0  0  0  0
   -4.4653    0.0407    2.0431 C   0  0  0  0  0  0  0  0  0  0  0  0
   -3.3136    0.3348    1.3462 C   0  0  0  0  0  0  0  0  0  0  0  0
   -1.7627    0.0705   -1.9495 C   0  0  0  0  0  0  0  0  0  0  0  0
   -0.5404   -0.1763   -2.5752 C   0  0  0  0  0  0  0  0  0  0  0  0
   -0.4168   -0.0937   -3.9426 C   0  0  0  0  0  0  0  0  0  0  0  0
   -1.5184    0.2266   -4.7256 C   0  0  0  0  0  0  0  0  0  0  0  0
   -1.2833    0.3315   -6.4779 S   0  0  0  0  0  0  0  0  0  0  0  0
   -2.8768   -0.2719   -7.1102 C   0  0  0  0  0  0  0  0  0  0  0  0
   -2.7351    0.4895   -4.1131 C   0  0  0  0  0  0  0  0  0  0  0  0
   -2.8553    0.4181   -2.7398 C   0  0  0  0  0  0  0  0  0  0  0  0
    0.0695    1.4940   -0.1521 C   0  0  0  0  0  0  0  0  0  0  0  0
   -0.0549    2.6827   -1.3931 S   0  0  0  0  0  0  0  0  0  0  0  0
   -0.7796   -1.5300    1.7695 C   0  0  0  0  0  0  0  0  0  0  0  0
   -0.6844   -2.7211    1.0767 C   0  0  0  0  0  0  0  0  0  0  0  0
    0.2611   -2.8918    0.0564 N   0  0  0  0  0  0  0  0  0  0  0  0
    1.5614   -2.5124    0.4327 C   0  0  0  0  0  0  0  0  0  0  0  0
    2.0063   -2.9109    1.6956 C   0  0  0  0  0  0  0  0  0  0  0  0
    3.2143   -2.4767    2.1922 C   0  0  0  0  0  0  0  0  0  0  0  0
    4.0092   -1.6306    1.4316 C   0  0  0  0  0  0  0  0  0  0  0  0
    5.5345   -0.9989    2.0679 S   0  0  0  0  0  0  0  0  0  0  0  0
    5.0112   -0.5088    3.7431 C   0  0  0  0  0  0  0  0  0  0  0  0
    3.6056   -1.2716    0.1538 C   0  0  0  0  0  0  0  0  0  0  0  0
    2.3916   -1.7049   -0.3424 C   0  0  0  0  0  0  0  0  0  0  0  0
   -0.1365   -3.1686   -1.2481 C   0  0  0  0  0  0  0  0  0  0  0  0
    0.7815   -3.4707   -2.2521 C   0  0  0  0  0  0  0  0  0  0  0  0
    0.3697   -3.6156   -3.5634 C   0  0  0  0  0  0  0  0  0  0  0  0
   -0.9711   -3.4888   -3.8956 C   0  0  0  0  0  0  0  0  0  0  0  0
   -1.5960   -3.5684   -5.5468 S   0  0  0  0  0  0  0  0  0  0  0  0
   -0.1236   -3.2732   -6.5665 C   0  0  0  0  0  0  0  0  0  0  0  0
   -1.9029   -3.3000   -2.8812 C   0  0  0  0  0  0  0  0  0  0  0  0
   -1.4922   -3.1425   -1.5785 C   0  0  0  0  0  0  0  0  0  0  0  0
   -1.5625   -3.6991    1.5996 C   0  0  0  0  0  0  0  0  0  0  0  0
   -2.0497   -5.2730    1.0836 S   0  0  0  0  0  0  0  0  0  0  0  0
   -3.2193   -5.3478    2.4071 C   0  0  0  0  0  0  0  0  0  0  0  0
   -3.2648   -4.1395    3.1498 C   0  0  0  0  0  0  0  0  0  0  0  0
   -4.1831   -3.8233    4.1134 N   0  0  0  0  0  0  0  0  0  0  0  0
   -5.5110   -4.2820    4.0873 C   0  0  0  0  0  0  0  0  0  0  0  0
   -6.1908   -4.5074    5.2828 C   0  0  0  0  0  0  0  0  0  0  0  0
   -7.4728   -5.0127    5.2670 C   0  0  0  0  0  0  0  0  0  0  0  0
   -8.0914   -5.3274    4.0617 C   0  0  0  0  0  0  0  0  0  0  0  0
   -9.7015   -6.0461    4.1380 S   0  0  0  0  0  0  0  0  0  0  0  0
   -9.8052   -6.9755    2.5794 C   0  0  0  0  0  0  0  0  0  0  0  0
   -7.4358   -5.0549    2.8657 C   0  0  0  0  0  0  0  0  0  0  0  0
   -6.1651   -4.5206    2.8793 C   0  0  0  0  0  0  0  0  0  0  0  0
   -3.8106   -2.8898    5.1011 C   0  0  0  0  0  0  0  0  0  0  0  0
   -4.6488   -1.8247    5.4277 C   0  0  0  0  0  0  0  0  0  0  0  0
   -4.2599   -0.9140    6.3824 C   0  0  0  0  0  0  0  0  0  0  0  0
   -3.0328   -1.0460    7.0338 C   0  0  0  0  0  0  0  0  0  0  0  0
   -2.6457    0.1912    8.2263 S   0  0  0  0  0  0  0  0  0  0  0  0
   -1.0067   -0.2865    8.8435 C   0  0  0  0  0  0  0  0  0  0  0  0
   -2.2043   -2.1153    6.7202 C   0  0  0  0  0  0  0  0  0  0  0  0
   -2.5938   -3.0297    5.7611 C   0  0  0  0  0  0  0  0  0  0  0  0
   -2.2825   -3.2411    2.6977 C   0  0  0  0  0  0  0  0  0  0  0  0
   -1.8373   -1.6306    3.1578 S   0  0  0  0  0  0  0  0  0  0  0  0
   -3.9866   -6.4625    2.7380 C   0  0  0  0  0  0  0  0  0  0  0  0
   -4.2471   -7.6153    2.0318 C   0  0  0  0  0  0  0  0  0  0  0  0
   -3.7563   -7.9304    0.6888 C   0  0  0  0  0  0  0  0  0  0  0  0
   -2.9033   -7.3417    0.0503 O   0  0  0  0  0  0  0  0  0  0  0  0
   -4.5114   -9.1257    0.2543 C   0  0  0  0  0  0  0  0  0  0  0  0
   -4.4414   -9.7919   -0.9509 C   0  0  0  0  0  0  0  0  0  0  0  0
   -5.2589  -10.9068   -1.1147 C   0  0  0  0  0  0  0  0  0  0  0  0
   -5.2452  -11.6713   -2.2671 O   0  0  0  0  0  0  0  0  0  0  0  0
   -5.2496  -11.0834   -3.4859 C   0  0  0  0  0  0  0  0  0  0  0  0
   -5.3374   -9.9022   -3.6626 O   0  0  0  0  0  0  0  0  0  0  0  0
   -5.1443  -12.1305   -4.5584 C   0  0  0  0  0  0  0  0  0  0  0  0
   -6.0958  -11.3364   -0.0889 C   0  0  0  0  0  0  0  0  0  0  0  0
   -6.1577  -10.6595    1.1188 C   0  0  0  0  0  0  0  0  0  0  0  0
   -5.3671   -9.5337    1.2918 C   0  0  0  0  0  0  0  0  0  0  0  0
   -5.2066   -8.6193    2.4227 C   0  0  0  0  0  0  0  0  0  0  0  0
   -5.8847   -8.7064    3.6159 C   0  0  0  0  0  0  0  0  0  0  0  0
   -5.6451   -7.9109    4.7524 C   0  0  0  0  0  0  0  0  0  0  0  0
   -5.4879   -7.3263    5.7302 N   0  0  0  0  0  0  0  0  0  0  0  0
   -6.9249   -9.6240    3.8620 C   0  0  0  0  0  0  0  0  0  0  0  0
   -7.8084  -10.3176    4.1022 N   0  0  0  0  0  0  0  0  0  0  0  0
    4.9972    7.5485   -3.1340 H   0  0  0  0  0  0  0  0  0  0  0  0
    8.3218    4.3114    1.0012 H   0  0  0  0  0  0  0  0  0  0  0  0
   11.9494    2.0627    1.7114 H   0  0  0  0  0  0  0  0  0  0  0  0
   11.9014    2.5414    3.4204 H   0  0  0  0  0  0  0  0  0  0  0  0
   12.9073    3.4400    2.2504 H   0  0  0  0  0  0  0  0  0  0  0  0
   11.7372    6.4331   -0.4913 H   0  0  0  0  0  0  0  0  0  0  0  0
   10.2915    7.9193   -1.8202 H   0  0  0  0  0  0  0  0  0  0  0  0
   -2.0110    4.6480   -5.0810 H   0  0  0  0  0  0  0  0  0  0  0  0
   -1.0540    3.2244   -5.4083 H   0  0  0  0  0  0  0  0  0  0  0  0
   -2.3570    4.9772   -7.5623 H   0  0  0  0  0  0  0  0  0  0  0  0
   -1.4134    3.5133   -7.8648 H   0  0  0  0  0  0  0  0  0  0  0  0
   -2.9511    3.4107   -7.0085 H   0  0  0  0  0  0  0  0  0  0  0  0
    3.1200    8.1212   -6.8159 H   0  0  0  0  0  0  0  0  0  0  0  0
    2.0612    7.9140   -8.2340 H   0  0  0  0  0  0  0  0  0  0  0  0
    4.3666    7.1892   -8.7536 H   0  0  0  0  0  0  0  0  0  0  0  0
    4.3482    6.0723   -7.3878 H   0  0  0  0  0  0  0  0  0  0  0  0
    3.2906    5.7855   -8.7796 H   0  0  0  0  0  0  0  0  0  0  0  0
    4.4628    5.4023    2.0267 H   0  0  0  0  0  0  0  0  0  0  0  0
    3.8266    7.2209    3.5562 H   0  0  0  0  0  0  0  0  0  0  0  0
   -0.5229    8.5597    5.9216 H   0  0  0  0  0  0  0  0  0  0  0  0
   -0.4553    6.7887    5.7963 H   0  0  0  0  0  0  0  0  0  0  0  0
   -0.8792    7.7826    4.3637 H   0  0  0  0  0  0  0  0  0  0  0  0
   -0.1357    5.6276    3.7906 H   0  0  0  0  0  0  0  0  0  0  0  0
    0.4981    3.8218    2.3099 H   0  0  0  0  0  0  0  0  0  0  0  0
    3.9212    2.1848   -0.8730 H   0  0  0  0  0  0  0  0  0  0  0  0
    6.2298    1.3466   -1.0553 H   0  0  0  0  0  0  0  0  0  0  0  0
    8.0747    0.1205    2.7425 H   0  0  0  0  0  0  0  0  0  0  0  0
    9.7807    0.1705    2.2465 H   0  0  0  0  0  0  0  0  0  0  0  0
    9.0589    1.5984    3.0257 H   0  0  0  0  0  0  0  0  0  0  0  0
    6.9645    2.5079    2.9889 H   0  0  0  0  0  0  0  0  0  0  0  0
    4.6621    3.2834    3.1919 H   0  0  0  0  0  0  0  0  0  0  0  0
   -3.8295   -1.6104   -1.3663 H   0  0  0  0  0  0  0  0  0  0  0  0
   -5.8427   -2.1559   -0.1296 H   0  0  0  0  0  0  0  0  0  0  0  0
   -8.0852   -1.1115    0.4782 H   0  0  0  0  0  0  0  0  0  0  0  0
   -8.9762   -1.8442    1.8351 H   0  0  0  0  0  0  0  0  0  0  0  0
   -7.7651   -2.8069    0.9671 H   0  0  0  0  0  0  0  0  0  0  0  0
   -4.6578    0.5095    2.9955 H   0  0  0  0  0  0  0  0  0  0  0  0
   -2.6134    1.0475    1.7554 H   0  0  0  0  0  0  0  0  0  0  0  0
    0.3165   -0.4409   -1.9778 H   0  0  0  0  0  0  0  0  0  0  0  0
    0.5358   -0.2806   -4.4149 H   0  0  0  0  0  0  0  0  0  0  0  0
   -2.7198   -0.4893   -8.1618 H   0  0  0  0  0  0  0  0  0  0  0  0
   -3.6432    0.4904   -7.0058 H   0  0  0  0  0  0  0  0  0  0  0  0
   -3.1448   -1.1784   -6.5761 H   0  0  0  0  0  0  0  0  0  0  0  0
   -3.5953    0.7696   -4.7008 H   0  0  0  0  0  0  0  0  0  0  0  0
   -3.8008    0.6573   -2.2773 H   0  0  0  0  0  0  0  0  0  0  0  0
    1.3866   -3.5638    2.2923 H   0  0  0  0  0  0  0  0  0  0  0  0
    3.5359   -2.7967    3.1710 H   0  0  0  0  0  0  0  0  0  0  0  0
    5.0112   -1.3665    4.4096 H   0  0  0  0  0  0  0  0  0  0  0  0
    4.0238   -0.0621    3.6807 H   0  0  0  0  0  0  0  0  0  0  0  0
    5.7298    0.2270    4.0890 H   0  0  0  0  0  0  0  0  0  0  0  0
    4.2363   -0.6238   -0.4349 H   0  0  0  0  0  0  0  0  0  0  0  0
    2.0791   -1.3828   -1.3235 H   0  0  0  0  0  0  0  0  0  0  0  0
    1.8263   -3.5946   -2.0118 H   0  0  0  0  0  0  0  0  0  0  0  0
    1.1099   -3.8299   -4.3180 H   0  0  0  0  0  0  0  0  0  0  0  0
    0.5364   -4.1354   -6.5366 H   0  0  0  0  0  0  0  0  0  0  0  0
   -0.4884   -3.1267   -7.5784 H   0  0  0  0  0  0  0  0  0  0  0  0
    0.3789   -2.3748   -6.2219 H   0  0  0  0  0  0  0  0  0  0  0  0
   -2.9520   -3.2612   -3.1333 H   0  0  0  0  0  0  0  0  0  0  0  0
   -2.2225   -2.9790   -0.8041 H   0  0  0  0  0  0  0  0  0  0  0  0
   -5.7005   -4.3136    6.2234 H   0  0  0  0  0  0  0  0  0  0  0  0
   -7.9921   -5.2057    6.1919 H   0  0  0  0  0  0  0  0  0  0  0  0
  -10.6467   -7.6509    2.6955 H   0  0  0  0  0  0  0  0  0  0  0  0
   -9.9853   -6.3064    1.7431 H   0  0  0  0  0  0  0  0  0  0  0  0
   -8.8928   -7.5469    2.4379 H   0  0  0  0  0  0  0  0  0  0  0  0
   -7.9156   -5.2527    1.9194 H   0  0  0  0  0  0  0  0  0  0  0  0
   -5.6633   -4.3042    1.9474 H   0  0  0  0  0  0  0  0  0  0  0  0
   -5.5933   -1.7117    4.9184 H   0  0  0  0  0  0  0  0  0  0  0  0
   -4.8994   -0.0820    6.6334 H   0  0  0  0  0  0  0  0  0  0  0  0
   -1.0583   -1.2604    9.3213 H   0  0  0  0  0  0  0  0  0  0  0  0
   -0.2874   -0.2798    8.0299 H   0  0  0  0  0  0  0  0  0  0  0  0
   -0.7404    0.4683    9.5769 H   0  0  0  0  0  0  0  0  0  0  0  0
   -1.2572   -2.2533    7.2154 H   0  0  0  0  0  0  0  0  0  0  0  0
   -1.9521   -3.8662    5.5254 H   0  0  0  0  0  0  0  0  0  0  0  0
   -4.4969   -6.3722    3.6881 H   0  0  0  0  0  0  0  0  0  0  0  0
   -3.7789   -9.4489   -1.7295 H   0  0  0  0  0  0  0  0  0  0  0  0
   -5.7356  -13.0018   -4.2927 H   0  0  0  0  0  0  0  0  0  0  0  0
   -5.4726  -11.7154   -5.5063 H   0  0  0  0  0  0  0  0  0  0  0  0
   -4.1030  -12.4363   -4.6451 H   0  0  0  0  0  0  0  0  0  0  0  0
   -6.7024  -12.2136   -0.2519 H   0  0  0  0  0  0  0  0  0  0  0  0
   -6.8170  -11.0148    1.8937 H   0  0  0  0  0  0  0  0  0  0  0  0
  1  2  2  0  0  0  0
  2  3  1  0  0  0  0
  3  4  2  0  0  0  0
  3  5  1  0  0  0  0
  5  6  2  0  0  0  0
  6  7  1  0  0  0  0
  7  8  1  0  0  0  0
  8  9  1  0  0  0  0
  9 10  2  0  0  0  0
  9 11  1  0  0  0  0
  7 12  2  0  0  0  0
 12 13  1  0  0  0  0
 13 14  2  0  0  0  0
 14 15  1  0  0  0  0
 15 16  2  0  0  0  0
 16 17  1  0  0  0  0
 17 18  3  0  0  0  0
 16 19  1  0  0  0  0
 19 20  3  0  0  0  0
  1 21  1  0  0  0  0
 21 22  1  0  0  0  0
 22 23  1  0  0  0  0
 23 24  2  0  0  0  0
 24 25  1  0  0  0  0
 25 26  2  0  0  0  0
 25 27  1  0  0  0  0
 27 28  2  0  0  0  0
 28 29  1  0  0  0  0
 29 30  1  0  0  0  0
 28 31  1  0  0  0  0
 31 32  1  0  0  0  0
 32 33  1  0  0  0  0
 33 34  1  0  0  0  0
 32 35  2  0  0  0  0
 35 36  1  0  0  0  0
 36 37  2  0  0  0  0
 36 38  1  0  0  0  0
 23 39  1  0  0  0  0
 39 40  2  0  0  0  0
 40 41  1  0  0  0  0
 41 42  1  0  0  0  0
 42 43  2  0  0  0  0
 43 44  1  0  0  0  0
 44 45  2  0  0  0  0
 45 46  1  0  0  0  0
 46 47  1  0  0  0  0
 45 48  1  0  0  0  0
 48 49  2  0  0  0  0
 41 50  1  0  0  0  0
 50 51  2  0  0  0  0
 51 52  1  0  0  0  0
 52 53  2  0  0  0  0
 53 54  1  0  0  0  0
 54 55  1  0  0  0  0
 53 56  1  0  0  0  0
 56 57  2  0  0  0  0
 40 58  1  0  0  0  0
 58 59  1  0  0  0  0
 59 60  1  0  0  0  0
 60 61  2  0  0  0  0
 61 62  1  0  0  0  0
 62 63  1  0  0  0  0
 63 64  2  0  0  0  0
 64 65  1  0  0  0  0
 65 66  2  0  0  0  0
 66 67  1  0  0  0  0
 67 68  1  0  0  0  0
 66 69  1  0  0  0  0
 69 70  2  0  0  0  0
 62 71  1  0  0  0  0
 71 72  2  0  0  0  0
 72 73  1  0  0  0  0
 73 74  2  0  0  0  0
 74 75  1  0  0  0  0
 75 76  1  0  0  0  0
 74 77  1  0  0  0  0
 77 78  2  0  0  0  0
 61 79  1  0  0  0  0
 79 80  1  0  0  0  0
 60 81  1  0  0  0  0
 81 82  2  0  0  0  0
 82 83  1  0  0  0  0
 83 84  1  0  0  0  0
 84 85  2  0  0  0  0
 85 86  1  0  0  0  0
 86 87  2  0  0  0  0
 87 88  1  0  0  0  0
 88 89  1  0  0  0  0
 87 90  1  0  0  0  0
 90 91  2  0  0  0  0
 83 92  1  0  0  0  0
 92 93  2  0  0  0  0
 93 94  1  0  0  0  0
 94 95  2  0  0  0  0
 95 96  1  0  0  0  0
 96 97  1  0  0  0  0
 95 98  1  0  0  0  0
 98 99  2  0  0  0  0
 82100  1  0  0  0  0
100101  1  0  0  0  0
101102  1  0  0  0  0
102103  2  0  0  0  0
103104  1  0  0  0  0
104105  1  0  0  0  0
105106  2  0  0  0  0
106107  1  0  0  0  0
107108  2  0  0  0  0
108109  1  0  0  0  0
109110  1  0  0  0  0
108111  1  0  0  0  0
111112  2  0  0  0  0
104113  1  0  0  0  0
113114  2  0  0  0  0
114115  1  0  0  0  0
115116  2  0  0  0  0
116117  1  0  0  0  0
117118  1  0  0  0  0
116119  1  0  0  0  0
119120  2  0  0  0  0
103121  1  0  0  0  0
121122  1  0  0  0  0
102123  1  0  0  0  0
123124  2  0  0  0  0
124125  1  0  0  0  0
125126  2  0  0  0  0
125127  1  0  0  0  0
127128  2  0  0  0  0
128129  1  0  0  0  0
129130  1  0  0  0  0
130131  1  0  0  0  0
131132  2  0  0  0  0
131133  1  0  0  0  0
129134  2  0  0  0  0
134135  1  0  0  0  0
135136  2  0  0  0  0
136137  1  0  0  0  0
137138  2  0  0  0  0
138139  1  0  0  0  0
139140  3  0  0  0  0
138141  1  0  0  0  0
141142  3  0  0  0  0
 15  2  1  0  0  0  0
 38 21  2  0  0  0  0
 80 39  1  0  0  0  0
122 81  1  0  0  0  0
137124  1  0  0  0  0
 14  5  1  0  0  0  0
 38 24  1  0  0  0  0
 49 42  1  0  0  0  0
 57 50  1  0  0  0  0
 79 58  2  0  0  0  0
 91 84  1  0  0  0  0
 99 92  1  0  0  0  0
121100  2  0  0  0  0
136127  1  0  0  0  0
 35 27  1  0  0  0  0
 70 63  1  0  0  0  0
 78 71  1  0  0  0  0
112105  1  0  0  0  0
120113  1  0  0  0  0
  1143  1  0  0  0  0
  6144  1  0  0  0  0
 11145  1  0  0  0  0
 11146  1  0  0  0  0
 11147  1  0  0  0  0
 12148  1  0  0  0  0
 13149  1  0  0  0  0
 29150  1  0  0  0  0
 29151  1  0  0  0  0
 30152  1  0  0  0  0
 30153  1  0  0  0  0
 30154  1  0  0  0  0
 33155  1  0  0  0  0
 33156  1  0  0  0  0
 34157  1  0  0  0  0
 34158  1  0  0  0  0
 34159  1  0  0  0  0
 43160  1  0  0  0  0
 44161  1  0  0  0  0
 47162  1  0  0  0  0
 47163  1  0  0  0  0
 47164  1  0  0  0  0
 48165  1  0  0  0  0
 49166  1  0  0  0  0
 51167  1  0  0  0  0
 52168  1  0  0  0  0
 55169  1  0  0  0  0
 55170  1  0  0  0  0
 55171  1  0  0  0  0
 56172  1  0  0  0  0
 57173  1  0  0  0  0
 64174  1  0  0  0  0
 65175  1  0  0  0  0
 68176  1  0  0  0  0
 68177  1  0  0  0  0
 68178  1  0  0  0  0
 69179  1  0  0  0  0
 70180  1  0  0  0  0
 72181  1  0  0  0  0
 73182  1  0  0  0  0
 76183  1  0  0  0  0
 76184  1  0  0  0  0
 76185  1  0  0  0  0
 77186  1  0  0  0  0
 78187  1  0  0  0  0
 85188  1  0  0  0  0
 86189  1  0  0  0  0
 89190  1  0  0  0  0
 89191  1  0  0  0  0
 89192  1  0  0  0  0
 90193  1  0  0  0  0
 91194  1  0  0  0  0
 93195  1  0  0  0  0
 94196  1  0  0  0  0
 97197  1  0  0  0  0
 97198  1  0  0  0  0
 97199  1  0  0  0  0
 98200  1  0  0  0  0
 99201  1  0  0  0  0
106202  1  0  0  0  0
107203  1  0  0  0  0
110204  1  0  0  0  0
110205  1  0  0  0  0
110206  1  0  0  0  0
111207  1  0  0  0  0
112208  1  0  0  0  0
114209  1  0  0  0  0
115210  1  0  0  0  0
118211  1  0  0  0  0
118212  1  0  0  0  0
118213  1  0  0  0  0
119214  1  0  0  0  0
120215  1  0  0  0  0
123216  1  0  0  0  0
128217  1  0  0  0  0
133218  1  0  0  0  0
133219  1  0  0  0  0
133220  1  0  0  0  0
134221  1  0  0  0  0
135222  1  0  0  0  0
M  END
