
  xtb     02152204443D
 energy: -340.498855423366 gnorm: 0.000970683666 xtb: 6.4.1 (unknown)
194210  0     0  0            999 V2000
    5.9547    7.1444    1.5687 C   0  0  0  0  0  0  0  0  0  0  0  0
    5.6102    8.4652    1.6555 C   0  0  0  0  0  0  0  0  0  0  0  0
    4.4870    9.1200    0.9617 C   0  0  0  0  0  0  0  0  0  0  0  0
    3.7634    8.6515    0.1072 O   0  0  0  0  0  0  0  0  0  0  0  0
    4.4149   10.4868    1.5196 C   0  0  0  0  0  0  0  0  0  0  0  0
    3.4936   11.4736    1.2334 C   0  0  0  0  0  0  0  0  0  0  0  0
    3.6291   12.6879    1.8998 C   0  0  0  0  0  0  0  0  0  0  0  0
    2.8005   13.7694    1.6793 O   0  0  0  0  0  0  0  0  0  0  0  0
    1.4737   13.6214    1.4539 C   0  0  0  0  0  0  0  0  0  0  0  0
    0.8963   12.5730    1.4711 O   0  0  0  0  0  0  0  0  0  0  0  0
    0.8507   14.9680    1.2156 C   0  0  0  0  0  0  0  0  0  0  0  0
    4.6699   12.8915    2.8052 C   0  0  0  0  0  0  0  0  0  0  0  0
    5.5912   11.8960    3.0811 C   0  0  0  0  0  0  0  0  0  0  0  0
    5.4624   10.6733    2.4370 C   0  0  0  0  0  0  0  0  0  0  0  0
    6.2472    9.4440    2.5170 C   0  0  0  0  0  0  0  0  0  0  0  0
    7.3945    9.2826    3.2510 C   0  0  0  0  0  0  0  0  0  0  0  0
    7.9604   10.2885    4.0623 C   0  0  0  0  0  0  0  0  0  0  0  0
    8.4734   11.0598    4.7406 N   0  0  0  0  0  0  0  0  0  0  0  0
    8.1914    8.1196    3.2946 C   0  0  0  0  0  0  0  0  0  0  0  0
    8.9055    7.2230    3.3764 N   0  0  0  0  0  0  0  0  0  0  0  0
    5.4126    6.1036    0.7911 C   0  0  0  0  0  0  0  0  0  0  0  0
    5.8699    4.8019    0.9115 C   0  0  0  0  0  0  0  0  0  0  0  0
    5.2288    3.8797    0.0754 C   0  0  0  0  0  0  0  0  0  0  0  0
    5.4630    2.4807   -0.0178 C   0  0  0  0  0  0  0  0  0  0  0  0
    6.5333    1.8234    0.6911 C   0  0  0  0  0  0  0  0  0  0  0  0
    6.5409    0.5512    1.2057 C   0  0  0  0  0  0  0  0  0  0  0  0
    7.7466    0.1175    1.7790 C   0  0  0  0  0  0  0  0  0  0  0  0
    8.7738    1.0218    1.7315 C   0  0  0  0  0  0  0  0  0  0  0  0
   10.3374    0.7335    2.4498 S   0  0  0  0  0  0  0  0  0  0  0  0
   11.2960    2.1827    1.8862 C   0  0  0  0  0  0  0  0  0  0  0  0
   11.7190    2.0662    0.4359 C   0  0  0  0  0  0  0  0  0  0  0  0
    8.2319    2.6229    0.9131 Se  0  0  0  0  0  2  0  0  0  0  0  0
    4.5838    1.7794   -0.8365 C   0  0  0  0  0  0  0  0  0  0  0  0
    3.5704    2.4108   -1.6021 C   0  0  0  0  0  0  0  0  0  0  0  0
    3.3924    3.8102   -1.5732 C   0  0  0  0  0  0  0  0  0  0  0  0
    2.4050    4.4673   -2.3995 C   0  0  0  0  0  0  0  0  0  0  0  0
    1.6357    5.5528   -2.0814 C   0  0  0  0  0  0  0  0  0  0  0  0
    0.8043    6.0439   -3.1056 C   0  0  0  0  0  0  0  0  0  0  0  0
    0.9008    5.3888   -4.2991 C   0  0  0  0  0  0  0  0  0  0  0  0
   -0.0733    5.7678   -5.7057 S   0  0  0  0  0  0  0  0  0  0  0  0
    1.1829    5.7458   -7.0435 C   0  0  0  0  0  0  0  0  0  0  0  0
    1.3769    4.3669   -7.6408 C   0  0  0  0  0  0  0  0  0  0  0  0
    2.0968    3.9391   -4.1824 Se  0  0  0  0  0  2  0  0  0  0  0  0
    4.2130    4.5112   -0.6950 C   0  0  0  0  0  0  0  0  0  0  0  0
    4.1310    6.2231   -0.3917 S   0  0  0  0  0  0  0  0  0  0  0  0
    2.7554    1.4750   -2.2672 C   0  0  0  0  0  0  0  0  0  0  0  0
    3.1065    0.1711   -2.0558 C   0  0  0  0  0  0  0  0  0  0  0  0
    4.5381    0.0523   -1.0506 S   0  0  0  0  0  0  0  0  0  0  0  0
    2.3131   -0.9872   -2.3523 C   0  0  0  0  0  0  0  0  0  0  0  0
    2.7364   -2.2723   -2.0337 C   0  0  0  0  0  0  0  0  0  0  0  0
    4.0288   -2.5067   -1.7438 F   0  0  0  0  0  0  0  0  0  0  0  0
    1.8442   -3.3331   -1.8577 C   0  0  0  0  0  0  0  0  0  0  0  0
    2.3263   -4.5266   -1.4799 F   0  0  0  0  0  0  0  0  0  0  0  0
    0.4827   -3.1567   -2.0067 C   0  0  0  0  0  0  0  0  0  0  0  0
    0.0686   -1.9664   -2.6726 C   0  0  0  0  0  0  0  0  0  0  0  0
   -1.1940   -1.8712   -3.1000 N   0  0  0  0  0  0  0  0  0  0  0  0
   -1.6325   -0.7493   -3.6177 C   0  0  0  0  0  0  0  0  0  0  0  0
   -3.0553   -0.7624   -4.0849 C   0  0  0  0  0  0  0  0  0  0  0  0
   -3.9959   -0.5581   -2.8946 C   0  0  0  0  0  0  0  0  0  0  0  0
   -0.7757    0.3824   -3.6653 C   0  0  0  0  0  0  0  0  0  0  0  0
    0.4786    0.2793   -3.2939 N   0  0  0  0  0  0  0  0  0  0  0  0
    0.9603   -0.8730   -2.8113 C   0  0  0  0  0  0  0  0  0  0  0  0
   -1.1991    1.7340   -4.1540 C   0  0  0  0  0  0  0  0  0  0  0  0
   -0.8355    1.9120   -5.6287 C   0  0  0  0  0  0  0  0  0  0  0  0
   -0.5051   -3.8854   -1.2465 C   0  0  0  0  0  0  0  0  0  0  0  0
   -0.4255   -4.0222    0.1347 C   0  0  0  0  0  0  0  0  0  0  0  0
    0.7178   -3.6711    0.8848 N   0  0  0  0  0  0  0  0  0  0  0  0
    1.0010   -2.3227    1.0780 C   0  0  0  0  0  0  0  0  0  0  0  0
    2.0220   -1.9021    1.9347 C   0  0  0  0  0  0  0  0  0  0  0  0
    2.3625   -0.5692    2.0511 C   0  0  0  0  0  0  0  0  0  0  0  0
    1.6704    0.3991    1.3386 C   0  0  0  0  0  0  0  0  0  0  0  0
    2.0504    2.1285    1.3625 S   0  0  0  0  0  0  0  0  0  0  0  0
    3.2525    2.2908    2.7125 C   0  0  0  0  0  0  0  0  0  0  0  0
    0.5873    0.0046    0.5620 C   0  0  0  0  0  0  0  0  0  0  0  0
    0.2481   -1.3256    0.4448 C   0  0  0  0  0  0  0  0  0  0  0  0
    1.5714   -4.7125    1.3052 C   0  0  0  0  0  0  0  0  0  0  0  0
    2.9611   -4.6078    1.2076 C   0  0  0  0  0  0  0  0  0  0  0  0
    3.7702   -5.6453    1.6100 C   0  0  0  0  0  0  0  0  0  0  0  0
    3.2205   -6.8241    2.1087 C   0  0  0  0  0  0  0  0  0  0  0  0
    4.3629   -8.0772    2.6019 S   0  0  0  0  0  0  0  0  0  0  0  0
    3.3032   -9.4316    3.1835 C   0  0  0  0  0  0  0  0  0  0  0  0
    1.8418   -6.9474    2.1802 C   0  0  0  0  0  0  0  0  0  0  0  0
    1.0301   -5.9021    1.7808 C   0  0  0  0  0  0  0  0  0  0  0  0
   -1.6709   -4.3951    0.6784 C   0  0  0  0  0  0  0  0  0  0  0  0
   -2.2590   -4.5682    2.2963 S   0  0  0  0  0  0  0  0  0  0  0  0
   -3.8898   -4.8556    1.6793 C   0  0  0  0  0  0  0  0  0  0  0  0
   -3.9561   -4.7175    0.2677 C   0  0  0  0  0  0  0  0  0  0  0  0
   -5.1060   -4.6769   -0.4725 N   0  0  0  0  0  0  0  0  0  0  0  0
   -5.0447   -4.9595   -1.8496 C   0  0  0  0  0  0  0  0  0  0  0  0
   -4.3821   -6.0937   -2.3075 C   0  0  0  0  0  0  0  0  0  0  0  0
   -4.2997   -6.3607   -3.6602 C   0  0  0  0  0  0  0  0  0  0  0  0
   -4.8805   -5.4928   -4.5756 C   0  0  0  0  0  0  0  0  0  0  0  0
   -4.8255   -5.7105   -6.3228 S   0  0  0  0  0  0  0  0  0  0  0  0
   -3.8178   -7.2024   -6.5506 C   0  0  0  0  0  0  0  0  0  0  0  0
   -5.5636   -4.3664   -4.1157 C   0  0  0  0  0  0  0  0  0  0  0  0
   -5.6494   -4.1025   -2.7687 C   0  0  0  0  0  0  0  0  0  0  0  0
   -6.3200   -4.1825    0.0459 C   0  0  0  0  0  0  0  0  0  0  0  0
   -7.5188   -4.7941   -0.3046 C   0  0  0  0  0  0  0  0  0  0  0  0
   -8.7086   -4.3760    0.2601 C   0  0  0  0  0  0  0  0  0  0  0  0
   -8.7110   -3.3514    1.1965 C   0  0  0  0  0  0  0  0  0  0  0  0
  -10.1520   -2.8230    2.0635 S   0  0  0  0  0  0  0  0  0  0  0  0
  -11.2892   -4.2244    1.8715 C   0  0  0  0  0  0  0  0  0  0  0  0
   -7.5198   -2.6845    1.4871 C   0  0  0  0  0  0  0  0  0  0  0  0
   -6.3378   -3.0854    0.9096 C   0  0  0  0  0  0  0  0  0  0  0  0
   -2.6773   -4.5118   -0.2781 C   0  0  0  0  0  0  0  0  0  0  0  0
   -2.0945   -4.1709   -1.8769 S   0  0  0  0  0  0  0  0  0  0  0  0
   -4.9867   -5.2075    2.4631 C   0  0  0  0  0  0  0  0  0  0  0  0
   -5.1641   -5.1639    3.8284 C   0  0  0  0  0  0  0  0  0  0  0  0
   -4.1850   -4.6964    4.8125 C   0  0  0  0  0  0  0  0  0  0  0  0
   -3.0016   -4.4721    4.6378 O   0  0  0  0  0  0  0  0  0  0  0  0
   -4.9262   -4.5594    6.0849 C   0  0  0  0  0  0  0  0  0  0  0  0
   -4.4601   -4.1101    7.3027 C   0  0  0  0  0  0  0  0  0  0  0  0
   -5.3671   -4.0689    8.3584 C   0  0  0  0  0  0  0  0  0  0  0  0
   -5.0175   -3.6782    9.6369 O   0  0  0  0  0  0  0  0  0  0  0  0
   -4.1574   -2.6581    9.8596 C   0  0  0  0  0  0  0  0  0  0  0  0
   -3.6794   -1.9745    9.0007 O   0  0  0  0  0  0  0  0  0  0  0  0
   -3.9168   -2.5134   11.3363 C   0  0  0  0  0  0  0  0  0  0  0  0
   -6.6852   -4.4847    8.1839 C   0  0  0  0  0  0  0  0  0  0  0  0
   -7.1409   -4.9389    6.9570 C   0  0  0  0  0  0  0  0  0  0  0  0
   -6.2554   -4.9705    5.8907 C   0  0  0  0  0  0  0  0  0  0  0  0
   -6.4194   -5.3928    4.5009 C   0  0  0  0  0  0  0  0  0  0  0  0
   -7.5742   -5.9063    3.9608 C   0  0  0  0  0  0  0  0  0  0  0  0
   -7.7029   -6.4489    2.6697 C   0  0  0  0  0  0  0  0  0  0  0  0
   -7.8964   -6.9440    1.6494 N   0  0  0  0  0  0  0  0  0  0  0  0
   -8.8068   -5.9823    4.6381 C   0  0  0  0  0  0  0  0  0  0  0  0
   -9.8556   -6.0531    5.1018 N   0  0  0  0  0  0  0  0  0  0  0  0
    6.7647    6.8103    2.2064 H   0  0  0  0  0  0  0  0  0  0  0  0
    2.7016   11.2913    0.5253 H   0  0  0  0  0  0  0  0  0  0  0  0
    0.9595   15.5784    2.1091 H   0  0  0  0  0  0  0  0  0  0  0  0
   -0.2016   14.8447    0.9798 H   0  0  0  0  0  0  0  0  0  0  0  0
    1.3642   15.4692    0.3991 H   0  0  0  0  0  0  0  0  0  0  0  0
    4.7436   13.8508    3.2932 H   0  0  0  0  0  0  0  0  0  0  0  0
    6.3800   12.0833    3.7907 H   0  0  0  0  0  0  0  0  0  0  0  0
    6.6268    4.5481    1.6357 H   0  0  0  0  0  0  0  0  0  0  0  0
    5.6654   -0.0755    1.2092 H   0  0  0  0  0  0  0  0  0  0  0  0
    7.8635   -0.8553    2.2239 H   0  0  0  0  0  0  0  0  0  0  0  0
   12.1607    2.2138    2.5484 H   0  0  0  0  0  0  0  0  0  0  0  0
   10.6790    3.0696    2.0618 H   0  0  0  0  0  0  0  0  0  0  0  0
   12.3038    2.9388    0.1531 H   0  0  0  0  0  0  0  0  0  0  0  0
   10.8489    2.0090   -0.2182 H   0  0  0  0  0  0  0  0  0  0  0  0
   12.3230    1.1743    0.2865 H   0  0  0  0  0  0  0  0  0  0  0  0
    1.6409    5.9966   -1.1013 H   0  0  0  0  0  0  0  0  0  0  0  0
    0.1510    6.8883   -2.9696 H   0  0  0  0  0  0  0  0  0  0  0  0
    0.8048    6.4463   -7.7872 H   0  0  0  0  0  0  0  0  0  0  0  0
    2.1064    6.1359   -6.6158 H   0  0  0  0  0  0  0  0  0  0  0  0
    2.1096    4.4122   -8.4438 H   0  0  0  0  0  0  0  0  0  0  0  0
    1.7383    3.6683   -6.8836 H   0  0  0  0  0  0  0  0  0  0  0  0
    0.4392    3.9888   -8.0412 H   0  0  0  0  0  0  0  0  0  0  0  0
    1.8695    1.7199   -2.8237 H   0  0  0  0  0  0  0  0  0  0  0  0
   -3.2574   -1.7409   -4.5237 H   0  0  0  0  0  0  0  0  0  0  0  0
   -3.2248    0.0075   -4.8365 H   0  0  0  0  0  0  0  0  0  0  0  0
   -3.8073    0.3976   -2.4100 H   0  0  0  0  0  0  0  0  0  0  0  0
   -5.0302   -0.5813   -3.2276 H   0  0  0  0  0  0  0  0  0  0  0  0
   -3.8447   -1.3526   -2.1679 H   0  0  0  0  0  0  0  0  0  0  0  0
   -0.6636    2.4891   -3.5735 H   0  0  0  0  0  0  0  0  0  0  0  0
   -2.2691    1.8783   -4.0096 H   0  0  0  0  0  0  0  0  0  0  0  0
   -1.3432    1.1764   -6.2490 H   0  0  0  0  0  0  0  0  0  0  0  0
   -1.1191    2.9079   -5.9584 H   0  0  0  0  0  0  0  0  0  0  0  0
    0.2390    1.7925   -5.7567 H   0  0  0  0  0  0  0  0  0  0  0  0
    2.5515   -2.6233    2.5362 H   0  0  0  0  0  0  0  0  0  0  0  0
    3.1709   -0.3013    2.7128 H   0  0  0  0  0  0  0  0  0  0  0  0
    2.8290    1.8931    3.6299 H   0  0  0  0  0  0  0  0  0  0  0  0
    3.4299    3.3569    2.8172 H   0  0  0  0  0  0  0  0  0  0  0  0
    4.1813    1.7899    2.4546 H   0  0  0  0  0  0  0  0  0  0  0  0
    0.0073    0.7555    0.0467 H   0  0  0  0  0  0  0  0  0  0  0  0
   -0.6271   -1.5804   -0.1311 H   0  0  0  0  0  0  0  0  0  0  0  0
    3.4152   -3.7229    0.7903 H   0  0  0  0  0  0  0  0  0  0  0  0
    4.8427   -5.5583    1.5283 H   0  0  0  0  0  0  0  0  0  0  0  0
    3.9817  -10.2168    3.5021 H   0  0  0  0  0  0  0  0  0  0  0  0
    2.7031   -9.0988    4.0254 H   0  0  0  0  0  0  0  0  0  0  0  0
    2.6794   -9.7911    2.3703 H   0  0  0  0  0  0  0  0  0  0  0  0
    1.3782   -7.8483    2.5486 H   0  0  0  0  0  0  0  0  0  0  0  0
   -0.0389   -6.0187    1.8547 H   0  0  0  0  0  0  0  0  0  0  0  0
   -3.9340   -6.7727   -1.5975 H   0  0  0  0  0  0  0  0  0  0  0  0
   -3.7827   -7.2491   -3.9833 H   0  0  0  0  0  0  0  0  0  0  0  0
   -3.7383   -7.3390   -7.6246 H   0  0  0  0  0  0  0  0  0  0  0  0
   -4.3157   -8.0599   -6.1075 H   0  0  0  0  0  0  0  0  0  0  0  0
   -2.8309   -7.0507   -6.1238 H   0  0  0  0  0  0  0  0  0  0  0  0
   -6.0178   -3.7007   -4.8334 H   0  0  0  0  0  0  0  0  0  0  0  0
   -6.1729   -3.2265   -2.4165 H   0  0  0  0  0  0  0  0  0  0  0  0
   -7.5153   -5.6193   -0.9994 H   0  0  0  0  0  0  0  0  0  0  0  0
   -9.6200   -4.8794   -0.0156 H   0  0  0  0  0  0  0  0  0  0  0  0
  -12.0904   -4.0506    2.5828 H   0  0  0  0  0  0  0  0  0  0  0  0
  -11.6909   -4.2510    0.8627 H   0  0  0  0  0  0  0  0  0  0  0  0
  -10.7721   -5.1470    2.1174 H   0  0  0  0  0  0  0  0  0  0  0  0
   -7.5372   -1.8547    2.1767 H   0  0  0  0  0  0  0  0  0  0  0  0
   -5.4183   -2.5713    1.1462 H   0  0  0  0  0  0  0  0  0  0  0  0
   -5.8516   -5.5187    1.8919 H   0  0  0  0  0  0  0  0  0  0  0  0
   -3.4340   -3.7997    7.4147 H   0  0  0  0  0  0  0  0  0  0  0  0
   -3.4027   -1.5774   11.5310 H   0  0  0  0  0  0  0  0  0  0  0  0
   -4.8610   -2.5494   11.8726 H   0  0  0  0  0  0  0  0  0  0  0  0
   -3.3005   -3.3434   11.6763 H   0  0  0  0  0  0  0  0  0  0  0  0
   -7.3518   -4.4459    9.0313 H   0  0  0  0  0  0  0  0  0  0  0  0
   -8.1672   -5.2503    6.8512 H   0  0  0  0  0  0  0  0  0  0  0  0
  1  2  2  0  0  0  0
  2  3  1  0  0  0  0
  3  4  2  0  0  0  0
  3  5  1  0  0  0  0
  5  6  2  0  0  0  0
  6  7  1  0  0  0  0
  7  8  1  0  0  0  0
  8  9  1  0  0  0  0
  9 10  2  0  0  0  0
  9 11  1  0  0  0  0
  7 12  2  0  0  0  0
 12 13  1  0  0  0  0
 13 14  2  0  0  0  0
 14 15  1  0  0  0  0
 15 16  2  0  0  0  0
 16 17  1  0  0  0  0
 17 18  3  0  0  0  0
 16 19  1  0  0  0  0
 19 20  3  0  0  0  0
  1 21  1  0  0  0  0
 21 22  2  0  0  0  0
 22 23  1  0  0  0  0
 23 24  2  0  0  0  0
 24 25  1  0  0  0  0
 25 26  2  0  0  0  0
 26 27  1  0  0  0  0
 27 28  2  0  0  0  0
 28 29  1  0  0  0  0
 29 30  1  0  0  0  0
 30 31  1  0  0  0  0
 28 32  1  0  0  0  0
 24 33  1  0  0  0  0
 33 34  2  0  0  0  0
 34 35  1  0  0  0  0
 35 36  1  0  0  0  0
 36 37  2  0  0  0  0
 37 38  1  0  0  0  0
 38 39  2  0  0  0  0
 39 40  1  0  0  0  0
 40 41  1  0  0  0  0
 41 42  1  0  0  0  0
 39 43  1  0  0  0  0
 35 44  2  0  0  0  0
 44 45  1  0  0  0  0
 34 46  1  0  0  0  0
 46 47  2  0  0  0  0
 47 48  1  0  0  0  0
 47 49  1  0  0  0  0
 49 50  2  0  0  0  0
 50 51  1  0  0  0  0
 50 52  1  0  0  0  0
 52 53  1  0  0  0  0
 52 54  2  0  0  0  0
 54 55  1  0  0  0  0
 55 56  2  0  0  0  0
 56 57  1  0  0  0  0
 57 58  1  0  0  0  0
 58 59  1  0  0  0  0
 57 60  2  0  0  0  0
 60 61  1  0  0  0  0
 61 62  2  0  0  0  0
 60 63  1  0  0  0  0
 63 64  1  0  0  0  0
 54 65  1  0  0  0  0
 65 66  2  0  0  0  0
 66 67  1  0  0  0  0
 67 68  1  0  0  0  0
 68 69  2  0  0  0  0
 69 70  1  0  0  0  0
 70 71  2  0  0  0  0
 71 72  1  0  0  0  0
 72 73  1  0  0  0  0
 71 74  1  0  0  0  0
 74 75  2  0  0  0  0
 67 76  1  0  0  0  0
 76 77  2  0  0  0  0
 77 78  1  0  0  0  0
 78 79  2  0  0  0  0
 79 80  1  0  0  0  0
 80 81  1  0  0  0  0
 79 82  1  0  0  0  0
 82 83  2  0  0  0  0
 66 84  1  0  0  0  0
 84 85  1  0  0  0  0
 85 86  1  0  0  0  0
 86 87  2  0  0  0  0
 87 88  1  0  0  0  0
 88 89  1  0  0  0  0
 89 90  2  0  0  0  0
 90 91  1  0  0  0  0
 91 92  2  0  0  0  0
 92 93  1  0  0  0  0
 93 94  1  0  0  0  0
 92 95  1  0  0  0  0
 95 96  2  0  0  0  0
 88 97  1  0  0  0  0
 97 98  2  0  0  0  0
 98 99  1  0  0  0  0
 99100  2  0  0  0  0
100101  1  0  0  0  0
101102  1  0  0  0  0
100103  1  0  0  0  0
103104  2  0  0  0  0
 87105  1  0  0  0  0
105106  1  0  0  0  0
 86107  1  0  0  0  0
107108  2  0  0  0  0
108109  1  0  0  0  0
109110  2  0  0  0  0
109111  1  0  0  0  0
111112  2  0  0  0  0
112113  1  0  0  0  0
113114  1  0  0  0  0
114115  1  0  0  0  0
115116  2  0  0  0  0
115117  1  0  0  0  0
113118  2  0  0  0  0
118119  1  0  0  0  0
119120  2  0  0  0  0
120121  1  0  0  0  0
121122  2  0  0  0  0
122123  1  0  0  0  0
123124  3  0  0  0  0
122125  1  0  0  0  0
125126  3  0  0  0  0
 15  2  1  0  0  0  0
 45 21  1  0  0  0  0
 62 49  1  0  0  0  0
106 65  1  0  0  0  0
121108  1  0  0  0  0
 14  5  1  0  0  0  0
 44 23  1  0  0  0  0
 62 55  1  0  0  0  0
 75 68  1  0  0  0  0
 83 76  1  0  0  0  0
105 84  2  0  0  0  0
120111  1  0  0  0  0
 32 25  1  0  0  0  0
 48 33  1  0  0  0  0
 96 89  1  0  0  0  0
104 97  1  0  0  0  0
 43 36  1  0  0  0  0
  1127  1  0  0  0  0
  6128  1  0  0  0  0
 11129  1  0  0  0  0
 11130  1  0  0  0  0
 11131  1  0  0  0  0
 12132  1  0  0  0  0
 13133  1  0  0  0  0
 22134  1  0  0  0  0
 26135  1  0  0  0  0
 27136  1  0  0  0  0
 30137  1  0  0  0  0
 30138  1  0  0  0  0
 31139  1  0  0  0  0
 31140  1  0  0  0  0
 31141  1  0  0  0  0
 37142  1  0  0  0  0
 38143  1  0  0  0  0
 41144  1  0  0  0  0
 41145  1  0  0  0  0
 42146  1  0  0  0  0
 42147  1  0  0  0  0
 42148  1  0  0  0  0
 46149  1  0  0  0  0
 58150  1  0  0  0  0
 58151  1  0  0  0  0
 59152  1  0  0  0  0
 59153  1  0  0  0  0
 59154  1  0  0  0  0
 63155  1  0  0  0  0
 63156  1  0  0  0  0
 64157  1  0  0  0  0
 64158  1  0  0  0  0
 64159  1  0  0  0  0
 69160  1  0  0  0  0
 70161  1  0  0  0  0
 73162  1  0  0  0  0
 73163  1  0  0  0  0
 73164  1  0  0  0  0
 74165  1  0  0  0  0
 75166  1  0  0  0  0
 77167  1  0  0  0  0
 78168  1  0  0  0  0
 81169  1  0  0  0  0
 81170  1  0  0  0  0
 81171  1  0  0  0  0
 82172  1  0  0  0  0
 83173  1  0  0  0  0
 90174  1  0  0  0  0
 91175  1  0  0  0  0
 94176  1  0  0  0  0
 94177  1  0  0  0  0
 94178  1  0  0  0  0
 95179  1  0  0  0  0
 96180  1  0  0  0  0
 98181  1  0  0  0  0
 99182  1  0  0  0  0
102183  1  0  0  0  0
102184  1  0  0  0  0
102185  1  0  0  0  0
103186  1  0  0  0  0
104187  1  0  0  0  0
107188  1  0  0  0  0
112189  1  0  0  0  0
117190  1  0  0  0  0
117191  1  0  0  0  0
117192  1  0  0  0  0
118193  1  0  0  0  0
119194  1  0  0  0  0
M  END
