
  xtb     02152221403D
 energy: -370.768526614849 gnorm: 0.000880188334 xtb: 6.4.1 (unknown)
220238  0     0  0            999 V2000
   -4.9399   -6.3190   -0.7802 C   0  0  0  0  0  0  0  0  0  0  0  0
   -5.1095   -7.5356   -1.4062 C   0  0  0  0  0  0  0  0  0  0  0  0
   -4.1112   -8.2379   -2.2109 C   0  0  0  0  0  0  0  0  0  0  0  0
   -2.9443   -7.9351   -2.3981 O   0  0  0  0  0  0  0  0  0  0  0  0
   -4.8118   -9.3868   -2.8183 C   0  0  0  0  0  0  0  0  0  0  0  0
   -4.3042  -10.3620   -3.6458 C   0  0  0  0  0  0  0  0  0  0  0  0
   -5.1771  -11.3521   -4.0990 C   0  0  0  0  0  0  0  0  0  0  0  0
   -4.6310  -12.2760   -4.9675 O   0  0  0  0  0  0  0  0  0  0  0  0
   -5.0409  -13.5620   -5.0271 C   0  0  0  0  0  0  0  0  0  0  0  0
   -5.8838  -14.0440   -4.3255 O   0  0  0  0  0  0  0  0  0  0  0  0
   -4.2622  -14.2866   -6.0895 C   0  0  0  0  0  0  0  0  0  0  0  0
   -6.5168  -11.3431   -3.7256 C   0  0  0  0  0  0  0  0  0  0  0  0
   -7.0137  -10.3595   -2.8799 C   0  0  0  0  0  0  0  0  0  0  0  0
   -6.1600   -9.3713   -2.4195 C   0  0  0  0  0  0  0  0  0  0  0  0
   -6.3674   -8.2362   -1.5211 C   0  0  0  0  0  0  0  0  0  0  0  0
   -7.5570   -7.9204   -0.9112 C   0  0  0  0  0  0  0  0  0  0  0  0
   -8.7782   -8.5780   -1.1618 C   0  0  0  0  0  0  0  0  0  0  0  0
   -9.8173   -9.0385   -1.3264 N   0  0  0  0  0  0  0  0  0  0  0  0
   -7.7474   -6.9209    0.0606 C   0  0  0  0  0  0  0  0  0  0  0  0
   -8.0043   -6.1542    0.8791 N   0  0  0  0  0  0  0  0  0  0  0  0
   -3.8030   -5.5256   -0.6465 C   0  0  0  0  0  0  0  0  0  0  0  0
   -3.8163   -4.2087   -0.1196 C   0  0  0  0  0  0  0  0  0  0  0  0
   -4.9189   -3.4590    0.1839 N   0  0  0  0  0  0  0  0  0  0  0  0
   -6.1426   -3.5619   -0.5001 C   0  0  0  0  0  0  0  0  0  0  0  0
   -6.1832   -3.8130   -1.8728 C   0  0  0  0  0  0  0  0  0  0  0  0
   -7.3927   -3.9943   -2.5027 C   0  0  0  0  0  0  0  0  0  0  0  0
   -8.5842   -3.9057   -1.7829 C   0  0  0  0  0  0  0  0  0  0  0  0
  -10.0788   -4.2464   -2.6547 S   0  0  0  0  0  0  0  0  0  0  0  0
  -11.2244   -4.7046   -1.3222 C   0  0  0  0  0  0  0  0  0  0  0  0
   -8.5474   -3.5638   -0.4382 C   0  0  0  0  0  0  0  0  0  0  0  0
   -7.3335   -3.4012    0.2002 C   0  0  0  0  0  0  0  0  0  0  0  0
   -4.7565   -2.4092    1.1155 C   0  0  0  0  0  0  0  0  0  0  0  0
   -5.1136   -1.1072    0.7837 C   0  0  0  0  0  0  0  0  0  0  0  0
   -4.8358   -0.0642    1.6458 C   0  0  0  0  0  0  0  0  0  0  0  0
   -4.2005   -0.3117    2.8567 C   0  0  0  0  0  0  0  0  0  0  0  0
   -3.7004    0.9457    3.9851 S   0  0  0  0  0  0  0  0  0  0  0  0
   -4.0453    2.4923    3.1024 C   0  0  0  0  0  0  0  0  0  0  0  0
   -3.9134   -1.6261    3.2239 C   0  0  0  0  0  0  0  0  0  0  0  0
   -4.1876   -2.6652    2.3634 C   0  0  0  0  0  0  0  0  0  0  0  0
   -2.5048   -3.7306    0.0435 C   0  0  0  0  0  0  0  0  0  0  0  0
   -1.8500   -2.2268    0.5868 S   0  0  0  0  0  0  0  0  0  0  0  0
   -0.2176   -2.8074    0.2711 C   0  0  0  0  0  0  0  0  0  0  0  0
   -0.1874   -4.1172   -0.1721 C   0  0  0  0  0  0  0  0  0  0  0  0
    0.9370   -4.9007   -0.3660 N   0  0  0  0  0  0  0  0  0  0  0  0
    2.0188   -4.8981    0.5146 C   0  0  0  0  0  0  0  0  0  0  0  0
    1.9517   -4.2846    1.7637 C   0  0  0  0  0  0  0  0  0  0  0  0
    3.0515   -4.2394    2.5986 C   0  0  0  0  0  0  0  0  0  0  0  0
    4.2367   -4.8476    2.2189 C   0  0  0  0  0  0  0  0  0  0  0  0
    5.7207   -4.8059    3.1795 S   0  0  0  0  0  0  0  0  0  0  0  0
    5.2532   -3.8792    4.6675 C   0  0  0  0  0  0  0  0  0  0  0  0
    4.2914   -5.5279    1.0051 C   0  0  0  0  0  0  0  0  0  0  0  0
    3.2070   -5.5415    0.1591 C   0  0  0  0  0  0  0  0  0  0  0  0
    0.8036   -5.8988   -1.3573 C   0  0  0  0  0  0  0  0  0  0  0  0
    0.3852   -5.5247   -2.6306 C   0  0  0  0  0  0  0  0  0  0  0  0
    0.1231   -6.4817   -3.5906 C   0  0  0  0  0  0  0  0  0  0  0  0
    0.2759   -7.8270   -3.2857 C   0  0  0  0  0  0  0  0  0  0  0  0
   -0.0990   -9.1104   -4.4370 S   0  0  0  0  0  0  0  0  0  0  0  0
   -1.4382   -8.3571   -5.4092 C   0  0  0  0  0  0  0  0  0  0  0  0
    0.7446   -8.2011   -2.0302 C   0  0  0  0  0  0  0  0  0  0  0  0
    1.0013   -7.2474   -1.0700 C   0  0  0  0  0  0  0  0  0  0  0  0
   -1.5095   -4.6184   -0.3401 C   0  0  0  0  0  0  0  0  0  0  0  0
   -2.1591   -6.0743   -1.0005 S   0  0  0  0  0  0  0  0  0  0  0  0
    0.7961   -1.8149    0.4773 C   0  0  0  0  0  0  0  0  0  0  0  0
    1.8278   -1.4044   -0.3399 C   0  0  0  0  0  0  0  0  0  0  0  0
    2.2673   -2.0858   -1.4918 N   0  0  0  0  0  0  0  0  0  0  0  0
    3.5022   -2.7419   -1.4394 C   0  0  0  0  0  0  0  0  0  0  0  0
    3.8137   -3.7116   -2.3969 C   0  0  0  0  0  0  0  0  0  0  0  0
    5.0183   -4.3750   -2.3573 C   0  0  0  0  0  0  0  0  0  0  0  0
    5.9438   -4.1078   -1.3509 C   0  0  0  0  0  0  0  0  0  0  0  0
    7.4491   -5.0315   -1.3855 S   0  0  0  0  0  0  0  0  0  0  0  0
    8.2678   -4.5866    0.1722 C   0  0  0  0  0  0  0  0  0  0  0  0
    5.6303   -3.1707   -0.3801 C   0  0  0  0  0  0  0  0  0  0  0  0
    4.4219   -2.5021   -0.4225 C   0  0  0  0  0  0  0  0  0  0  0  0
    1.6751   -1.7378   -2.7162 C   0  0  0  0  0  0  0  0  0  0  0  0
    0.2911   -1.5865   -2.8145 C   0  0  0  0  0  0  0  0  0  0  0  0
   -0.2944   -1.2548   -4.0168 C   0  0  0  0  0  0  0  0  0  0  0  0
    0.4824   -1.0582   -5.1551 C   0  0  0  0  0  0  0  0  0  0  0  0
   -0.3838   -0.6632   -6.6445 S   0  0  0  0  0  0  0  0  0  0  0  0
    0.9373   -0.3434   -7.8471 C   0  0  0  0  0  0  0  0  0  0  0  0
    1.8618   -1.1769   -5.0588 C   0  0  0  0  0  0  0  0  0  0  0  0
    2.4481   -1.5029   -3.8518 C   0  0  0  0  0  0  0  0  0  0  0  0
    2.3692   -0.1747    0.1108 C   0  0  0  0  0  0  0  0  0  0  0  0
    3.5347    0.9552   -0.4883 S   0  0  0  0  0  0  0  0  0  0  0  0
    3.2132    2.0627    0.8410 C   0  0  0  0  0  0  0  0  0  0  0  0
    2.2647    1.5571    1.7049 C   0  0  0  0  0  0  0  0  0  0  0  0
    1.8645    2.0847    2.9527 N   0  0  0  0  0  0  0  0  0  0  0  0
    2.2133    1.2382    4.0240 C   0  0  0  0  0  0  0  0  0  0  0  0
    1.2659    0.7254    4.9087 C   0  0  0  0  0  0  0  0  0  0  0  0
    1.6513   -0.1509    5.9003 C   0  0  0  0  0  0  0  0  0  0  0  0
    2.9832   -0.5370    6.0261 C   0  0  0  0  0  0  0  0  0  0  0  0
    3.3759   -1.7063    7.2967 S   0  0  0  0  0  0  0  0  0  0  0  0
    5.1240   -1.3529    7.6489 C   0  0  0  0  0  0  0  0  0  0  0  0
    3.9284   -0.0335    5.1429 C   0  0  0  0  0  0  0  0  0  0  0  0
    3.5438    0.8473    4.1517 C   0  0  0  0  0  0  0  0  0  0  0  0
    0.7989    2.9720    3.0411 C   0  0  0  0  0  0  0  0  0  0  0  0
    0.0035    3.2653    1.9296 C   0  0  0  0  0  0  0  0  0  0  0  0
   -0.9924    4.2121    2.0160 C   0  0  0  0  0  0  0  0  0  0  0  0
   -1.2312    4.8841    3.2118 C   0  0  0  0  0  0  0  0  0  0  0  0
   -2.5447    6.0722    3.1983 S   0  0  0  0  0  0  0  0  0  0  0  0
   -2.5405    6.7484    4.8828 C   0  0  0  0  0  0  0  0  0  0  0  0
   -0.4488    4.5958    4.3210 C   0  0  0  0  0  0  0  0  0  0  0  0
    0.5586    3.6558    4.2331 C   0  0  0  0  0  0  0  0  0  0  0  0
    1.7888    0.3000    1.2737 C   0  0  0  0  0  0  0  0  0  0  0  0
    0.5359   -0.7364    1.8390 S   0  0  0  0  0  0  0  0  0  0  0  0
    3.8860    3.3436    0.8664 C   0  0  0  0  0  0  0  0  0  0  0  0
    3.2814    4.4311    1.4903 C   0  0  0  0  0  0  0  0  0  0  0  0
    3.9149    5.6596    1.4369 C   0  0  0  0  0  0  0  0  0  0  0  0
    3.4999    6.8641    1.9400 N   0  0  0  0  0  0  0  0  0  0  0  0
    2.2436    7.1131    2.6003 C   0  0  0  0  0  0  0  0  0  0  0  0
    1.1539    7.5133    1.6082 C   0  0  0  0  0  0  0  0  0  0  0  0
    4.4027    7.8241    1.5556 C   0  0  0  0  0  0  0  0  0  0  0  0
    5.4679    7.2126    0.8403 C   0  0  0  0  0  0  0  0  0  0  0  0
    5.1536    5.8229    0.7641 C   0  0  0  0  0  0  0  0  0  0  0  0
    5.7577    4.7216    0.1613 C   0  0  0  0  0  0  0  0  0  0  0  0
    5.1237    3.5033    0.2138 C   0  0  0  0  0  0  0  0  0  0  0  0
    6.5240    7.9926    0.3727 C   0  0  0  0  0  0  0  0  0  0  0  0
    6.4862    9.3488    0.5813 C   0  0  0  0  0  0  0  0  0  0  0  0
    5.3923    9.9687    1.2275 C   0  0  0  0  0  0  0  0  0  0  0  0
    4.3614    9.1899    1.7571 C   0  0  0  0  0  0  0  0  0  0  0  0
    5.3934   11.4009    1.3163 C   0  0  0  0  0  0  0  0  0  0  0  0
    4.3296   12.2498    1.2882 C   0  0  0  0  0  0  0  0  0  0  0  0
    2.9389   11.9239    0.8736 C   0  0  0  0  0  0  0  0  0  0  0  0
    2.4116   10.8405    0.7526 O   0  0  0  0  0  0  0  0  0  0  0  0
    2.3069   13.2294    0.5783 C   0  0  0  0  0  0  0  0  0  0  0  0
    1.0401   13.4565    0.0779 C   0  0  0  0  0  0  0  0  0  0  0  0
    0.6577   14.7797   -0.1194 C   0  0  0  0  0  0  0  0  0  0  0  0
   -0.5916   15.1538   -0.5690 O   0  0  0  0  0  0  0  0  0  0  0  0
   -1.2880   14.4211   -1.4698 C   0  0  0  0  0  0  0  0  0  0  0  0
   -0.8814   13.4246   -1.9940 O   0  0  0  0  0  0  0  0  0  0  0  0
   -2.6205   15.0686   -1.7204 C   0  0  0  0  0  0  0  0  0  0  0  0
    1.5263   15.8267    0.1916 C   0  0  0  0  0  0  0  0  0  0  0  0
    2.7923   15.5882    0.6958 C   0  0  0  0  0  0  0  0  0  0  0  0
    3.1929   14.2730    0.8893 C   0  0  0  0  0  0  0  0  0  0  0  0
    4.4347   13.6989    1.3904 C   0  0  0  0  0  0  0  0  0  0  0  0
    5.4773   14.3978    1.9359 C   0  0  0  0  0  0  0  0  0  0  0  0
    6.6239   13.8162    2.5194 C   0  0  0  0  0  0  0  0  0  0  0  0
    7.5721   13.4224    3.0337 N   0  0  0  0  0  0  0  0  0  0  0  0
    5.5222   15.8052    2.0257 C   0  0  0  0  0  0  0  0  0  0  0  0
    5.6183   16.9451    2.1205 N   0  0  0  0  0  0  0  0  0  0  0  0
   -5.8299   -5.8943   -0.3342 H   0  0  0  0  0  0  0  0  0  0  0  0
   -3.2643  -10.3716   -3.9315 H   0  0  0  0  0  0  0  0  0  0  0  0
   -3.1972  -14.1787   -5.8998 H   0  0  0  0  0  0  0  0  0  0  0  0
   -4.5392  -15.3359   -6.0916 H   0  0  0  0  0  0  0  0  0  0  0  0
   -4.4794  -13.8439   -7.0591 H   0  0  0  0  0  0  0  0  0  0  0  0
   -7.1799  -12.1124   -4.0861 H   0  0  0  0  0  0  0  0  0  0  0  0
   -8.0548  -10.3824   -2.6023 H   0  0  0  0  0  0  0  0  0  0  0  0
   -5.2627   -3.8935   -2.4317 H   0  0  0  0  0  0  0  0  0  0  0  0
   -7.4317   -4.2138   -3.5586 H   0  0  0  0  0  0  0  0  0  0  0  0
  -11.5773   -3.8179   -0.8034 H   0  0  0  0  0  0  0  0  0  0  0  0
  -12.0579   -5.2028   -1.8074 H   0  0  0  0  0  0  0  0  0  0  0  0
  -10.7272   -5.3893   -0.6417 H   0  0  0  0  0  0  0  0  0  0  0  0
   -9.4549   -3.4497    0.1306 H   0  0  0  0  0  0  0  0  0  0  0  0
   -7.3065   -3.1752    1.2549 H   0  0  0  0  0  0  0  0  0  0  0  0
   -5.5838   -0.9101   -0.1684 H   0  0  0  0  0  0  0  0  0  0  0  0
   -5.1011    0.9378    1.3511 H   0  0  0  0  0  0  0  0  0  0  0  0
   -3.6708    3.2856    3.7409 H   0  0  0  0  0  0  0  0  0  0  0  0
   -5.1147    2.6132    2.9577 H   0  0  0  0  0  0  0  0  0  0  0  0
   -3.5097    2.5036    2.1581 H   0  0  0  0  0  0  0  0  0  0  0  0
   -3.4543   -1.8160    4.1816 H   0  0  0  0  0  0  0  0  0  0  0  0
   -3.9438   -3.6806    2.6386 H   0  0  0  0  0  0  0  0  0  0  0  0
    1.0298   -3.8468    2.1116 H   0  0  0  0  0  0  0  0  0  0  0  0
    2.9548   -3.7337    3.5463 H   0  0  0  0  0  0  0  0  0  0  0  0
    4.9329   -2.8778    4.3929 H   0  0  0  0  0  0  0  0  0  0  0  0
    4.4715   -4.4051    5.2079 H   0  0  0  0  0  0  0  0  0  0  0  0
    6.1530   -3.8346    5.2738 H   0  0  0  0  0  0  0  0  0  0  0  0
    5.1981   -6.0409    0.7244 H   0  0  0  0  0  0  0  0  0  0  0  0
    3.2829   -6.0472   -0.7897 H   0  0  0  0  0  0  0  0  0  0  0  0
    0.2482   -4.4767   -2.8593 H   0  0  0  0  0  0  0  0  0  0  0  0
   -0.2077   -6.1685   -4.5679 H   0  0  0  0  0  0  0  0  0  0  0  0
   -2.1323   -7.8860   -4.7197 H   0  0  0  0  0  0  0  0  0  0  0  0
   -1.0391   -7.6424   -6.1231 H   0  0  0  0  0  0  0  0  0  0  0  0
   -1.9225   -9.1697   -5.9421 H   0  0  0  0  0  0  0  0  0  0  0  0
    0.8720   -9.2488   -1.8061 H   0  0  0  0  0  0  0  0  0  0  0  0
    1.3230   -7.5431   -0.0826 H   0  0  0  0  0  0  0  0  0  0  0  0
    3.0955   -3.9534   -3.1658 H   0  0  0  0  0  0  0  0  0  0  0  0
    5.2504   -5.1231   -3.1000 H   0  0  0  0  0  0  0  0  0  0  0  0
    8.5619   -3.5410    0.1531 H   0  0  0  0  0  0  0  0  0  0  0  0
    9.1512   -5.2151    0.2261 H   0  0  0  0  0  0  0  0  0  0  0  0
    7.6113   -4.7973    1.0122 H   0  0  0  0  0  0  0  0  0  0  0  0
    6.3138   -2.9492    0.4230 H   0  0  0  0  0  0  0  0  0  0  0  0
    4.2032   -1.7947    0.3615 H   0  0  0  0  0  0  0  0  0  0  0  0
   -0.3319   -1.7280   -1.9462 H   0  0  0  0  0  0  0  0  0  0  0  0
   -1.3663   -1.1477   -4.0869 H   0  0  0  0  0  0  0  0  0  0  0  0
    1.5647    0.4721   -7.4991 H   0  0  0  0  0  0  0  0  0  0  0  0
    1.5179   -1.2461   -8.0145 H   0  0  0  0  0  0  0  0  0  0  0  0
    0.4330   -0.0553   -8.7643 H   0  0  0  0  0  0  0  0  0  0  0  0
    2.4982   -1.0079   -5.9124 H   0  0  0  0  0  0  0  0  0  0  0  0
    3.5237   -1.5688   -3.7888 H   0  0  0  0  0  0  0  0  0  0  0  0
    0.2275    1.0027    4.8058 H   0  0  0  0  0  0  0  0  0  0  0  0
    0.9193   -0.5578    6.5807 H   0  0  0  0  0  0  0  0  0  0  0  0
    5.3424   -1.8522    8.5876 H   0  0  0  0  0  0  0  0  0  0  0  0
    5.2591   -0.2813    7.7564 H   0  0  0  0  0  0  0  0  0  0  0  0
    5.7617   -1.7526    6.8661 H   0  0  0  0  0  0  0  0  0  0  0  0
    4.9657   -0.3212    5.2175 H   0  0  0  0  0  0  0  0  0  0  0  0
    4.2788    1.2362    3.4621 H   0  0  0  0  0  0  0  0  0  0  0  0
    0.1770    2.7516    0.9957 H   0  0  0  0  0  0  0  0  0  0  0  0
   -1.6003    4.4426    1.1542 H   0  0  0  0  0  0  0  0  0  0  0  0
   -3.3377    7.4851    4.9020 H   0  0  0  0  0  0  0  0  0  0  0  0
   -2.7489    5.9622    5.6028 H   0  0  0  0  0  0  0  0  0  0  0  0
   -1.5890    7.2303    5.0885 H   0  0  0  0  0  0  0  0  0  0  0  0
   -0.6029    5.1016    5.2604 H   0  0  0  0  0  0  0  0  0  0  0  0
    1.1760    3.4528    5.0953 H   0  0  0  0  0  0  0  0  0  0  0  0
    2.3194    4.3304    1.9585 H   0  0  0  0  0  0  0  0  0  0  0  0
    2.3933    7.9098    3.3342 H   0  0  0  0  0  0  0  0  0  0  0  0
    1.9522    6.2055    3.1365 H   0  0  0  0  0  0  0  0  0  0  0  0
    1.4224    8.4398    1.1064 H   0  0  0  0  0  0  0  0  0  0  0  0
    0.2099    7.6549    2.1272 H   0  0  0  0  0  0  0  0  0  0  0  0
    1.0224    6.7333    0.8618 H   0  0  0  0  0  0  0  0  0  0  0  0
    6.7014    4.8288   -0.3513 H   0  0  0  0  0  0  0  0  0  0  0  0
    5.5722    2.6420   -0.2594 H   0  0  0  0  0  0  0  0  0  0  0  0
    7.3517    7.5354   -0.1477 H   0  0  0  0  0  0  0  0  0  0  0  0
    7.2866    9.9724    0.2118 H   0  0  0  0  0  0  0  0  0  0  0  0
    3.5676    9.6487    2.3198 H   0  0  0  0  0  0  0  0  0  0  0  0
    6.3805   11.8502    1.3292 H   0  0  0  0  0  0  0  0  0  0  0  0
    0.3890   12.6287   -0.1516 H   0  0  0  0  0  0  0  0  0  0  0  0
   -3.1767   15.1264   -0.7877 H   0  0  0  0  0  0  0  0  0  0  0  0
   -2.4698   16.0812   -2.0868 H   0  0  0  0  0  0  0  0  0  0  0  0
   -3.1752   14.4877   -2.4504 H   0  0  0  0  0  0  0  0  0  0  0  0
    1.1868   16.8376    0.0287 H   0  0  0  0  0  0  0  0  0  0  0  0
    3.4441   16.4171    0.9178 H   0  0  0  0  0  0  0  0  0  0  0  0
  1  2  2  0  0  0  0
  2  3  1  0  0  0  0
  3  4  2  0  0  0  0
  3  5  1  0  0  0  0
  5  6  2  0  0  0  0
  6  7  1  0  0  0  0
  7  8  1  0  0  0  0
  8  9  1  0  0  0  0
  9 10  2  0  0  0  0
  9 11  1  0  0  0  0
  7 12  2  0  0  0  0
 12 13  1  0  0  0  0
 13 14  2  0  0  0  0
 14 15  1  0  0  0  0
 15 16  2  0  0  0  0
 16 17  1  0  0  0  0
 17 18  3  0  0  0  0
 16 19  1  0  0  0  0
 19 20  3  0  0  0  0
  1 21  1  0  0  0  0
 21 22  2  0  0  0  0
 22 23  1  0  0  0  0
 23 24  1  0  0  0  0
 24 25  2  0  0  0  0
 25 26  1  0  0  0  0
 26 27  2  0  0  0  0
 27 28  1  0  0  0  0
 28 29  1  0  0  0  0
 27 30  1  0  0  0  0
 30 31  2  0  0  0  0
 23 32  1  0  0  0  0
 32 33  2  0  0  0  0
 33 34  1  0  0  0  0
 34 35  2  0  0  0  0
 35 36  1  0  0  0  0
 36 37  1  0  0  0  0
 35 38  1  0  0  0  0
 38 39  2  0  0  0  0
 22 40  1  0  0  0  0
 40 41  1  0  0  0  0
 41 42  1  0  0  0  0
 42 43  2  0  0  0  0
 43 44  1  0  0  0  0
 44 45  1  0  0  0  0
 45 46  2  0  0  0  0
 46 47  1  0  0  0  0
 47 48  2  0  0  0  0
 48 49  1  0  0  0  0
 49 50  1  0  0  0  0
 48 51  1  0  0  0  0
 51 52  2  0  0  0  0
 44 53  1  0  0  0  0
 53 54  2  0  0  0  0
 54 55  1  0  0  0  0
 55 56  2  0  0  0  0
 56 57  1  0  0  0  0
 57 58  1  0  0  0  0
 56 59  1  0  0  0  0
 59 60  2  0  0  0  0
 43 61  1  0  0  0  0
 61 62  1  0  0  0  0
 42 63  1  0  0  0  0
 63 64  2  0  0  0  0
 64 65  1  0  0  0  0
 65 66  1  0  0  0  0
 66 67  2  0  0  0  0
 67 68  1  0  0  0  0
 68 69  2  0  0  0  0
 69 70  1  0  0  0  0
 70 71  1  0  0  0  0
 69 72  1  0  0  0  0
 72 73  2  0  0  0  0
 65 74  1  0  0  0  0
 74 75  2  0  0  0  0
 75 76  1  0  0  0  0
 76 77  2  0  0  0  0
 77 78  1  0  0  0  0
 78 79  1  0  0  0  0
 77 80  1  0  0  0  0
 80 81  2  0  0  0  0
 64 82  1  0  0  0  0
 82 83  1  0  0  0  0
 83 84  1  0  0  0  0
 84 85  2  0  0  0  0
 85 86  1  0  0  0  0
 86 87  1  0  0  0  0
 87 88  2  0  0  0  0
 88 89  1  0  0  0  0
 89 90  2  0  0  0  0
 90 91  1  0  0  0  0
 91 92  1  0  0  0  0
 90 93  1  0  0  0  0
 93 94  2  0  0  0  0
 86 95  1  0  0  0  0
 95 96  2  0  0  0  0
 96 97  1  0  0  0  0
 97 98  2  0  0  0  0
 98 99  1  0  0  0  0
 99100  1  0  0  0  0
 98101  1  0  0  0  0
101102  2  0  0  0  0
 85103  1  0  0  0  0
103104  1  0  0  0  0
 84105  1  0  0  0  0
105106  2  0  0  0  0
106107  1  0  0  0  0
107108  1  0  0  0  0
108109  1  0  0  0  0
109110  1  0  0  0  0
108111  1  0  0  0  0
111112  2  0  0  0  0
112113  1  0  0  0  0
113114  1  0  0  0  0
114115  2  0  0  0  0
112116  1  0  0  0  0
116117  2  0  0  0  0
117118  1  0  0  0  0
118119  2  0  0  0  0
118120  1  0  0  0  0
120121  2  0  0  0  0
121122  1  0  0  0  0
122123  2  0  0  0  0
122124  1  0  0  0  0
124125  2  0  0  0  0
125126  1  0  0  0  0
126127  1  0  0  0  0
127128  1  0  0  0  0
128129  2  0  0  0  0
128130  1  0  0  0  0
126131  2  0  0  0  0
131132  1  0  0  0  0
132133  2  0  0  0  0
133134  1  0  0  0  0
134135  2  0  0  0  0
135136  1  0  0  0  0
136137  3  0  0  0  0
135138  1  0  0  0  0
138139  3  0  0  0  0
 15  2  1  0  0  0  0
 62 21  1  0  0  0  0
104 63  1  0  0  0  0
115105  1  0  0  0  0
134121  1  0  0  0  0
 14  5  1  0  0  0  0
 31 24  1  0  0  0  0
 39 32  1  0  0  0  0
 61 40  2  0  0  0  0
 73 66  1  0  0  0  0
 81 74  1  0  0  0  0
103 82  2  0  0  0  0
113107  2  0  0  0  0
133124  1  0  0  0  0
 52 45  1  0  0  0  0
 60 53  1  0  0  0  0
 94 87  1  0  0  0  0
102 95  1  0  0  0  0
119111  1  0  0  0  0
  1140  1  0  0  0  0
  6141  1  0  0  0  0
 11142  1  0  0  0  0
 11143  1  0  0  0  0
 11144  1  0  0  0  0
 12145  1  0  0  0  0
 13146  1  0  0  0  0
 25147  1  0  0  0  0
 26148  1  0  0  0  0
 29149  1  0  0  0  0
 29150  1  0  0  0  0
 29151  1  0  0  0  0
 30152  1  0  0  0  0
 31153  1  0  0  0  0
 33154  1  0  0  0  0
 34155  1  0  0  0  0
 37156  1  0  0  0  0
 37157  1  0  0  0  0
 37158  1  0  0  0  0
 38159  1  0  0  0  0
 39160  1  0  0  0  0
 46161  1  0  0  0  0
 47162  1  0  0  0  0
 50163  1  0  0  0  0
 50164  1  0  0  0  0
 50165  1  0  0  0  0
 51166  1  0  0  0  0
 52167  1  0  0  0  0
 54168  1  0  0  0  0
 55169  1  0  0  0  0
 58170  1  0  0  0  0
 58171  1  0  0  0  0
 58172  1  0  0  0  0
 59173  1  0  0  0  0
 60174  1  0  0  0  0
 67175  1  0  0  0  0
 68176  1  0  0  0  0
 71177  1  0  0  0  0
 71178  1  0  0  0  0
 71179  1  0  0  0  0
 72180  1  0  0  0  0
 73181  1  0  0  0  0
 75182  1  0  0  0  0
 76183  1  0  0  0  0
 79184  1  0  0  0  0
 79185  1  0  0  0  0
 79186  1  0  0  0  0
 80187  1  0  0  0  0
 81188  1  0  0  0  0
 88189  1  0  0  0  0
 89190  1  0  0  0  0
 92191  1  0  0  0  0
 92192  1  0  0  0  0
 92193  1  0  0  0  0
 93194  1  0  0  0  0
 94195  1  0  0  0  0
 96196  1  0  0  0  0
 97197  1  0  0  0  0
100198  1  0  0  0  0
100199  1  0  0  0  0
100200  1  0  0  0  0
101201  1  0  0  0  0
102202  1  0  0  0  0
106203  1  0  0  0  0
109204  1  0  0  0  0
109205  1  0  0  0  0
110206  1  0  0  0  0
110207  1  0  0  0  0
110208  1  0  0  0  0
114209  1  0  0  0  0
115210  1  0  0  0  0
116211  1  0  0  0  0
117212  1  0  0  0  0
119213  1  0  0  0  0
120214  1  0  0  0  0
125215  1  0  0  0  0
130216  1  0  0  0  0
130217  1  0  0  0  0
130218  1  0  0  0  0
131219  1  0  0  0  0
132220  1  0  0  0  0
M  END
