142

C          3.78320        2.96460       -6.40060
C          4.71570        3.95410       -6.23650
C          5.34510        4.30300       -4.94070
O          5.23330        3.73470       -3.87540
C          6.29030        5.39910       -5.24680
C          7.07260        6.11220       -4.36240
C          7.89320        7.10440       -4.88960
O          8.74500        7.87910       -4.12570
C          8.46320        8.24090       -2.85610
O          7.44470        7.98300       -2.27920
C          9.61440        9.02550       -2.29020
C          7.93750        7.33410       -6.26420
C          7.15880        6.60120       -7.14410
C          6.31550        5.62540       -6.63190
C          5.36630        4.71820       -7.27580
C          5.11000        4.66190       -8.62350
C          5.77760        5.44460       -9.58750
N          6.28950        6.04520      -10.42190
C          4.16040        3.82420       -9.23940
N          3.40830        3.18550       -9.82870
C          2.97530        2.43560       -5.36630
C          2.52690        1.09550       -5.39760
C          1.70060        0.51120       -4.36200
N          1.51740       -0.79570       -4.55520
S          2.28490       -1.24290       -5.89440
N          2.88310        0.19210       -6.31030
C          1.22560        1.26390       -3.26550
C          1.72670        2.58560       -3.20560
N          1.43500        3.46410       -2.24480
S          2.07480        4.88780       -2.62590
N          2.74310        4.47230       -4.02000
C          2.53480        3.17500       -4.24540
C          0.33790        0.80120       -2.26340
C         -0.67830       -0.17220       -2.30880
N         -1.19680       -0.73810       -3.44730
C         -1.79430       -2.00130       -3.35430
C         -1.20740       -2.98790       -2.56500
C         -1.84080       -4.19690       -2.36750
C         -3.07360       -4.43770       -2.96130
S         -3.99770       -5.91190       -2.68890
C         -3.34050       -6.50020       -1.09980
C         -3.62400       -3.48310       -3.81620
C         -2.99360       -2.27530       -4.01210
C         -1.15750       -0.04910       -4.66430
C         -1.29050        1.34170       -4.69610
C         -1.02980        2.03690       -5.85230
C         -0.64020        1.36030       -7.01050
S         -0.13040        2.33890       -8.37800
C          0.91470        1.19820       -9.32690
C         -0.65610       -0.03070       -7.01880
C         -0.91910       -0.72880       -5.85660
C         -1.23020       -0.37230       -1.02000
S         -2.41230       -1.45620       -0.34960
C         -2.25880       -0.68350        1.21600
C         -1.25810        0.29790        1.23650
N         -0.74480        0.91370        2.35260
C         -0.68120        0.26540        3.58740
C         -0.84530        0.98100        4.77340
C         -0.90150        0.31840        5.98190
C         -0.77690       -1.06760        6.03430
S         -0.95060       -1.86060        7.60330
C          0.16300       -3.28810        7.44430
C         -0.54610       -1.77870        4.86180
C         -0.49040       -1.11580        3.65590
C         -0.20420        2.19820        2.15900
C          1.09300        2.50220        2.55770
C          1.66890        3.70060        2.18400
C          0.95200        4.60920        1.41380
S          1.63790        6.10710        0.78720
C          3.42250        5.76720        0.77510
C         -0.38060        4.34690        1.10130
C         -0.95360        3.15080        1.46720
C         -0.71200        0.47680       -0.05200
S          0.46680        1.56470       -0.69160
C         -3.06650       -1.08650        2.30510
C         -3.48390       -0.18820        3.31490
C         -4.04440       -0.64120        4.56510
N         -4.36560        0.37800        5.35800
S         -4.05120        1.75740        4.59790
N         -3.44900        1.14330        3.24130
C         -4.15380       -2.01610        4.88870
C         -3.96540       -2.88730        3.79030
N         -4.23150       -4.18970        3.76470
S         -3.85050       -4.78180        2.32560
N         -3.34110       -3.42020        1.63320
C         -3.46190       -2.42550        2.51180
C         -4.45690       -2.40220        6.20880
C         -4.06940       -3.55930        6.83560
C         -2.96710       -4.43080        6.41320
O         -2.26930       -4.35440        5.42140
C         -2.73570       -5.35490        7.55440
C         -1.76470       -6.32960        7.69120
Cl        -0.75500       -6.77660        6.38480
C         -1.61910       -6.95980        8.93370
Cl        -0.45110       -8.19480        9.13600
C         -2.39350       -6.54950       10.01660
Cl        -2.12720       -7.25630       11.55200
C         -3.37910       -5.55860        9.87400
Cl        -4.17300       -4.99160       11.28400
C         -3.59730       -5.01310        8.61590
C         -4.54960       -4.02230        8.12060
C         -5.79660       -3.74500        8.61520
C         -6.45960       -4.42490        9.65870
N         -7.12100       -4.96770       10.42380
C         -6.68800       -2.83260        8.00450
N         -7.47770       -2.12080        7.57200
H          3.64920        2.50980       -7.37370
H          7.02630        5.90390       -3.30610
H          9.32120        9.47340       -1.34590
H          9.92350        9.79200       -2.99550
H         10.45550        8.35390       -2.12930
H          8.59940        8.10180       -6.63370
H          7.21920        6.80200       -8.20100
H         -0.24700       -2.79890       -2.10980
H         -1.36800       -4.94180       -1.74900
H         -2.37720       -6.98140       -1.24270
H         -3.26810       -5.66230       -0.41230
H         -4.05900       -7.22590       -0.73210
H         -4.56620       -3.69190       -4.29850
H         -3.43970       -1.52350       -4.64570
H         -1.56410        1.87510       -3.79810
H         -1.09370        3.11380       -5.87110
H          1.52610        1.82800       -9.96640
H          1.55290        0.64740       -8.64220
H          0.30240        0.53170       -9.92700
H         -0.43660       -0.57650       -7.92250
H         -0.87910       -1.80770       -5.85430
H         -0.95730        2.05470        4.73300
H         -1.06040        0.86740        6.89690
H         -0.23010       -3.99750        6.72470
H          0.20560       -3.74360        8.42870
H          1.14730       -2.93810        7.14890
H         -0.43990       -2.85050        4.87730
H         -0.31200       -1.67670        2.75070
H          1.66010        1.78110        3.12760
H          2.68500        3.90790        2.47840
H          3.82780        5.82460        1.78100
H          3.59730        4.79090        0.33340
H          3.86980        6.54040        0.15800
H         -0.94430        5.07930        0.54540
H         -1.97620        2.92400        1.20650
H         -4.96620       -1.64480        6.79210
