
  xtb     02102222473D
 energy: -284.602326998104 gnorm: 0.000572972876 xtb: 6.4.1 (unknown)
142157  0     0  0            999 V2000
    3.7832    2.9646   -6.4006 C   0  0  0  0  0  0  0  0  0  0  0  0
    4.7157    3.9541   -6.2365 C   0  0  0  0  0  0  0  0  0  0  0  0
    5.3451    4.3030   -4.9407 C   0  0  0  0  0  0  0  0  0  0  0  0
    5.2333    3.7347   -3.8754 O   0  0  0  0  0  0  0  0  0  0  0  0
    6.2903    5.3991   -5.2468 C   0  0  0  0  0  0  0  0  0  0  0  0
    7.0726    6.1122   -4.3624 C   0  0  0  0  0  0  0  0  0  0  0  0
    7.8932    7.1044   -4.8896 C   0  0  0  0  0  0  0  0  0  0  0  0
    8.7450    7.8791   -4.1257 O   0  0  0  0  0  0  0  0  0  0  0  0
    8.4632    8.2409   -2.8561 C   0  0  0  0  0  0  0  0  0  0  0  0
    7.4447    7.9830   -2.2792 O   0  0  0  0  0  0  0  0  0  0  0  0
    9.6144    9.0255   -2.2902 C   0  0  0  0  0  0  0  0  0  0  0  0
    7.9375    7.3341   -6.2642 C   0  0  0  0  0  0  0  0  0  0  0  0
    7.1588    6.6012   -7.1441 C   0  0  0  0  0  0  0  0  0  0  0  0
    6.3155    5.6254   -6.6319 C   0  0  0  0  0  0  0  0  0  0  0  0
    5.3663    4.7182   -7.2758 C   0  0  0  0  0  0  0  0  0  0  0  0
    5.1100    4.6619   -8.6235 C   0  0  0  0  0  0  0  0  0  0  0  0
    5.7776    5.4446   -9.5875 C   0  0  0  0  0  0  0  0  0  0  0  0
    6.2895    6.0452  -10.4219 N   0  0  0  0  0  0  0  0  0  0  0  0
    4.1604    3.8242   -9.2394 C   0  0  0  0  0  0  0  0  0  0  0  0
    3.4083    3.1855   -9.8287 N   0  0  0  0  0  0  0  0  0  0  0  0
    2.9753    2.4356   -5.3663 C   0  0  0  0  0  0  0  0  0  0  0  0
    2.5269    1.0955   -5.3976 C   0  0  0  0  0  0  0  0  0  0  0  0
    1.7006    0.5112   -4.3620 C   0  0  0  0  0  0  0  0  0  0  0  0
    1.5174   -0.7957   -4.5552 N   0  0  0  0  0  0  0  0  0  0  0  0
    2.2849   -1.2429   -5.8944 S   0  0  0  0  0  4  0  0  0  0  0  0
    2.8831    0.1921   -6.3103 N   0  0  0  0  0  0  0  0  0  0  0  0
    1.2256    1.2639   -3.2655 C   0  0  0  0  0  0  0  0  0  0  0  0
    1.7267    2.5856   -3.2056 C   0  0  0  0  0  0  0  0  0  0  0  0
    1.4350    3.4641   -2.2448 N   0  0  0  0  0  0  0  0  0  0  0  0
    2.0748    4.8878   -2.6259 S   0  0  0  0  0  0  0  0  0  0  0  0
    2.7431    4.4723   -4.0200 N   0  0  0  0  0  0  0  0  0  0  0  0
    2.5348    3.1750   -4.2454 C   0  0  0  0  0  0  0  0  0  0  0  0
    0.3379    0.8012   -2.2634 C   0  0  0  0  0  0  0  0  0  0  0  0
   -0.6783   -0.1722   -2.3088 C   0  0  0  0  0  0  0  0  0  0  0  0
   -1.1968   -0.7381   -3.4473 N   0  0  0  0  0  0  0  0  0  0  0  0
   -1.7943   -2.0013   -3.3543 C   0  0  0  0  0  0  0  0  0  0  0  0
   -1.2074   -2.9879   -2.5650 C   0  0  0  0  0  0  0  0  0  0  0  0
   -1.8408   -4.1969   -2.3675 C   0  0  0  0  0  0  0  0  0  0  0  0
   -3.0736   -4.4377   -2.9613 C   0  0  0  0  0  0  0  0  0  0  0  0
   -3.9977   -5.9119   -2.6889 S   0  0  0  0  0  0  0  0  0  0  0  0
   -3.3405   -6.5002   -1.0998 C   0  0  0  0  0  0  0  0  0  0  0  0
   -3.6240   -3.4831   -3.8162 C   0  0  0  0  0  0  0  0  0  0  0  0
   -2.9936   -2.2753   -4.0121 C   0  0  0  0  0  0  0  0  0  0  0  0
   -1.1575   -0.0491   -4.6643 C   0  0  0  0  0  0  0  0  0  0  0  0
   -1.2905    1.3417   -4.6961 C   0  0  0  0  0  0  0  0  0  0  0  0
   -1.0298    2.0369   -5.8523 C   0  0  0  0  0  0  0  0  0  0  0  0
   -0.6402    1.3603   -7.0105 C   0  0  0  0  0  0  0  0  0  0  0  0
   -0.1304    2.3389   -8.3780 S   0  0  0  0  0  0  0  0  0  0  0  0
    0.9147    1.1982   -9.3269 C   0  0  0  0  0  0  0  0  0  0  0  0
   -0.6561   -0.0307   -7.0188 C   0  0  0  0  0  0  0  0  0  0  0  0
   -0.9191   -0.7288   -5.8566 C   0  0  0  0  0  0  0  0  0  0  0  0
   -1.2302   -0.3723   -1.0200 C   0  0  0  0  0  0  0  0  0  0  0  0
   -2.4123   -1.4562   -0.3496 S   0  0  0  0  0  0  0  0  0  0  0  0
   -2.2588   -0.6835    1.2160 C   0  0  0  0  0  0  0  0  0  0  0  0
   -1.2581    0.2979    1.2365 C   0  0  0  0  0  0  0  0  0  0  0  0
   -0.7448    0.9137    2.3526 N   0  0  0  0  0  0  0  0  0  0  0  0
   -0.6812    0.2654    3.5874 C   0  0  0  0  0  0  0  0  0  0  0  0
   -0.8453    0.9810    4.7734 C   0  0  0  0  0  0  0  0  0  0  0  0
   -0.9015    0.3184    5.9819 C   0  0  0  0  0  0  0  0  0  0  0  0
   -0.7769   -1.0676    6.0343 C   0  0  0  0  0  0  0  0  0  0  0  0
   -0.9506   -1.8606    7.6033 S   0  0  0  0  0  0  0  0  0  0  0  0
    0.1630   -3.2881    7.4443 C   0  0  0  0  0  0  0  0  0  0  0  0
   -0.5461   -1.7787    4.8618 C   0  0  0  0  0  0  0  0  0  0  0  0
   -0.4904   -1.1158    3.6559 C   0  0  0  0  0  0  0  0  0  0  0  0
   -0.2042    2.1982    2.1590 C   0  0  0  0  0  0  0  0  0  0  0  0
    1.0930    2.5022    2.5577 C   0  0  0  0  0  0  0  0  0  0  0  0
    1.6689    3.7006    2.1840 C   0  0  0  0  0  0  0  0  0  0  0  0
    0.9520    4.6092    1.4138 C   0  0  0  0  0  0  0  0  0  0  0  0
    1.6379    6.1071    0.7872 S   0  0  0  0  0  0  0  0  0  0  0  0
    3.4225    5.7672    0.7751 C   0  0  0  0  0  0  0  0  0  0  0  0
   -0.3806    4.3469    1.1013 C   0  0  0  0  0  0  0  0  0  0  0  0
   -0.9536    3.1508    1.4672 C   0  0  0  0  0  0  0  0  0  0  0  0
   -0.7120    0.4768   -0.0520 C   0  0  0  0  0  0  0  0  0  0  0  0
    0.4668    1.5647   -0.6916 S   0  0  0  0  0  0  0  0  0  0  0  0
   -3.0665   -1.0865    2.3051 C   0  0  0  0  0  0  0  0  0  0  0  0
   -3.4839   -0.1882    3.3149 C   0  0  0  0  0  0  0  0  0  0  0  0
   -4.0444   -0.6412    4.5651 C   0  0  0  0  0  0  0  0  0  0  0  0
   -4.3656    0.3780    5.3580 N   0  0  0  0  0  0  0  0  0  0  0  0
   -4.0512    1.7574    4.5979 S   0  0  0  0  0  4  0  0  0  0  0  0
   -3.4490    1.1433    3.2413 N   0  0  0  0  0  0  0  0  0  0  0  0
   -4.1538   -2.0161    4.8887 C   0  0  0  0  0  0  0  0  0  0  0  0
   -3.9654   -2.8873    3.7903 C   0  0  0  0  0  0  0  0  0  0  0  0
   -4.2315   -4.1897    3.7647 N   0  0  0  0  0  0  0  0  0  0  0  0
   -3.8505   -4.7818    2.3256 S   0  0  0  0  0  0  0  0  0  0  0  0
   -3.3411   -3.4202    1.6332 N   0  0  0  0  0  0  0  0  0  0  0  0
   -3.4619   -2.4255    2.5118 C   0  0  0  0  0  0  0  0  0  0  0  0
   -4.4569   -2.4022    6.2088 C   0  0  0  0  0  0  0  0  0  0  0  0
   -4.0694   -3.5593    6.8356 C   0  0  0  0  0  0  0  0  0  0  0  0
   -2.9671   -4.4308    6.4132 C   0  0  0  0  0  0  0  0  0  0  0  0
   -2.2693   -4.3544    5.4214 O   0  0  0  0  0  0  0  0  0  0  0  0
   -2.7357   -5.3549    7.5544 C   0  0  0  0  0  0  0  0  0  0  0  0
   -1.7647   -6.3296    7.6912 C   0  0  0  0  0  0  0  0  0  0  0  0
   -0.7550   -6.7766    6.3848 Cl  0  0  0  0  0  0  0  0  0  0  0  0
   -1.6191   -6.9598    8.9337 C   0  0  0  0  0  0  0  0  0  0  0  0
   -0.4511   -8.1948    9.1360 Cl  0  0  0  0  0  0  0  0  0  0  0  0
   -2.3935   -6.5495   10.0166 C   0  0  0  0  0  0  0  0  0  0  0  0
   -2.1272   -7.2563   11.5520 Cl  0  0  0  0  0  0  0  0  0  0  0  0
   -3.3791   -5.5586    9.8740 C   0  0  0  0  0  0  0  0  0  0  0  0
   -4.1730   -4.9916   11.2840 Cl  0  0  0  0  0  0  0  0  0  0  0  0
   -3.5973   -5.0131    8.6159 C   0  0  0  0  0  0  0  0  0  0  0  0
   -4.5496   -4.0223    8.1206 C   0  0  0  0  0  0  0  0  0  0  0  0
   -5.7966   -3.7450    8.6152 C   0  0  0  0  0  0  0  0  0  0  0  0
   -6.4596   -4.4249    9.6587 C   0  0  0  0  0  0  0  0  0  0  0  0
   -7.1210   -4.9677   10.4238 N   0  0  0  0  0  0  0  0  0  0  0  0
   -6.6880   -2.8326    8.0045 C   0  0  0  0  0  0  0  0  0  0  0  0
   -7.4777   -2.1208    7.5720 N   0  0  0  0  0  0  0  0  0  0  0  0
    3.6492    2.5098   -7.3737 H   0  0  0  0  0  0  0  0  0  0  0  0
    7.0263    5.9039   -3.3061 H   0  0  0  0  0  0  0  0  0  0  0  0
    9.3212    9.4734   -1.3459 H   0  0  0  0  0  0  0  0  0  0  0  0
    9.9235    9.7920   -2.9955 H   0  0  0  0  0  0  0  0  0  0  0  0
   10.4555    8.3539   -2.1293 H   0  0  0  0  0  0  0  0  0  0  0  0
    8.5994    8.1018   -6.6337 H   0  0  0  0  0  0  0  0  0  0  0  0
    7.2192    6.8020   -8.2010 H   0  0  0  0  0  0  0  0  0  0  0  0
   -0.2470   -2.7989   -2.1098 H   0  0  0  0  0  0  0  0  0  0  0  0
   -1.3680   -4.9418   -1.7490 H   0  0  0  0  0  0  0  0  0  0  0  0
   -2.3772   -6.9814   -1.2427 H   0  0  0  0  0  0  0  0  0  0  0  0
   -3.2681   -5.6623   -0.4123 H   0  0  0  0  0  0  0  0  0  0  0  0
   -4.0590   -7.2259   -0.7321 H   0  0  0  0  0  0  0  0  0  0  0  0
   -4.5662   -3.6919   -4.2985 H   0  0  0  0  0  0  0  0  0  0  0  0
   -3.4397   -1.5235   -4.6457 H   0  0  0  0  0  0  0  0  0  0  0  0
   -1.5641    1.8751   -3.7981 H   0  0  0  0  0  0  0  0  0  0  0  0
   -1.0937    3.1138   -5.8711 H   0  0  0  0  0  0  0  0  0  0  0  0
    1.5261    1.8280   -9.9664 H   0  0  0  0  0  0  0  0  0  0  0  0
    1.5529    0.6474   -8.6422 H   0  0  0  0  0  0  0  0  0  0  0  0
    0.3024    0.5317   -9.9270 H   0  0  0  0  0  0  0  0  0  0  0  0
   -0.4366   -0.5765   -7.9225 H   0  0  0  0  0  0  0  0  0  0  0  0
   -0.8791   -1.8077   -5.8543 H   0  0  0  0  0  0  0  0  0  0  0  0
   -0.9573    2.0547    4.7330 H   0  0  0  0  0  0  0  0  0  0  0  0
   -1.0604    0.8674    6.8969 H   0  0  0  0  0  0  0  0  0  0  0  0
   -0.2301   -3.9975    6.7247 H   0  0  0  0  0  0  0  0  0  0  0  0
    0.2056   -3.7436    8.4287 H   0  0  0  0  0  0  0  0  0  0  0  0
    1.1473   -2.9381    7.1489 H   0  0  0  0  0  0  0  0  0  0  0  0
   -0.4399   -2.8505    4.8773 H   0  0  0  0  0  0  0  0  0  0  0  0
   -0.3120   -1.6767    2.7507 H   0  0  0  0  0  0  0  0  0  0  0  0
    1.6601    1.7811    3.1276 H   0  0  0  0  0  0  0  0  0  0  0  0
    2.6850    3.9079    2.4784 H   0  0  0  0  0  0  0  0  0  0  0  0
    3.8278    5.8246    1.7810 H   0  0  0  0  0  0  0  0  0  0  0  0
    3.5973    4.7909    0.3334 H   0  0  0  0  0  0  0  0  0  0  0  0
    3.8698    6.5404    0.1580 H   0  0  0  0  0  0  0  0  0  0  0  0
   -0.9443    5.0793    0.5454 H   0  0  0  0  0  0  0  0  0  0  0  0
   -1.9762    2.9240    1.2065 H   0  0  0  0  0  0  0  0  0  0  0  0
   -4.9662   -1.6448    6.7921 H   0  0  0  0  0  0  0  0  0  0  0  0
  1  2  2  0  0  0  0
  2  3  1  0  0  0  0
  3  4  2  0  0  0  0
  3  5  1  0  0  0  0
  5  6  2  0  0  0  0
  6  7  1  0  0  0  0
  7  8  1  0  0  0  0
  8  9  1  0  0  0  0
  9 10  2  0  0  0  0
  9 11  1  0  0  0  0
  7 12  2  0  0  0  0
 12 13  1  0  0  0  0
 13 14  2  0  0  0  0
 14 15  1  0  0  0  0
 15 16  2  0  0  0  0
 16 17  1  0  0  0  0
 17 18  3  0  0  0  0
 16 19  1  0  0  0  0
 19 20  3  0  0  0  0
  1 21  1  0  0  0  0
 21 22  2  0  0  0  0
 22 23  1  0  0  0  0
 23 24  1  0  0  0  0
 24 25  2  0  0  0  0
 25 26  2  0  0  0  0
 23 27  2  0  0  0  0
 27 28  1  0  0  0  0
 28 29  2  0  0  0  0
 29 30  1  0  0  0  0
 30 31  1  0  0  0  0
 31 32  2  0  0  0  0
 27 33  1  0  0  0  0
 33 34  2  0  0  0  0
 34 35  1  0  0  0  0
 35 36  1  0  0  0  0
 36 37  2  0  0  0  0
 37 38  1  0  0  0  0
 38 39  2  0  0  0  0
 39 40  1  0  0  0  0
 40 41  1  0  0  0  0
 39 42  1  0  0  0  0
 42 43  2  0  0  0  0
 35 44  1  0  0  0  0
 44 45  2  0  0  0  0
 45 46  1  0  0  0  0
 46 47  2  0  0  0  0
 47 48  1  0  0  0  0
 48 49  1  0  0  0  0
 47 50  1  0  0  0  0
 50 51  2  0  0  0  0
 34 52  1  0  0  0  0
 52 53  1  0  0  0  0
 53 54  1  0  0  0  0
 54 55  2  0  0  0  0
 55 56  1  0  0  0  0
 56 57  1  0  0  0  0
 57 58  2  0  0  0  0
 58 59  1  0  0  0  0
 59 60  2  0  0  0  0
 60 61  1  0  0  0  0
 61 62  1  0  0  0  0
 60 63  1  0  0  0  0
 63 64  2  0  0  0  0
 56 65  1  0  0  0  0
 65 66  2  0  0  0  0
 66 67  1  0  0  0  0
 67 68  2  0  0  0  0
 68 69  1  0  0  0  0
 69 70  1  0  0  0  0
 68 71  1  0  0  0  0
 71 72  2  0  0  0  0
 55 73  1  0  0  0  0
 73 74  1  0  0  0  0
 54 75  1  0  0  0  0
 75 76  2  0  0  0  0
 76 77  1  0  0  0  0
 77 78  1  0  0  0  0
 78 79  2  0  0  0  0
 79 80  2  0  0  0  0
 77 81  2  0  0  0  0
 81 82  1  0  0  0  0
 82 83  2  0  0  0  0
 83 84  1  0  0  0  0
 84 85  1  0  0  0  0
 85 86  2  0  0  0  0
 81 87  1  0  0  0  0
 87 88  2  0  0  0  0
 88 89  1  0  0  0  0
 89 90  2  0  0  0  0
 89 91  1  0  0  0  0
 91 92  2  0  0  0  0
 92 93  1  0  0  0  0
 92 94  1  0  0  0  0
 94 95  1  0  0  0  0
 94 96  2  0  0  0  0
 96 97  1  0  0  0  0
 96 98  1  0  0  0  0
 98 99  1  0  0  0  0
 98100  2  0  0  0  0
100101  1  0  0  0  0
101102  2  0  0  0  0
102103  1  0  0  0  0
103104  3  0  0  0  0
102105  1  0  0  0  0
105106  3  0  0  0  0
 15  2  1  0  0  0  0
 32 21  1  0  0  0  0
 74 33  1  0  0  0  0
 86 75  1  0  0  0  0
101 88  1  0  0  0  0
 14  5  1  0  0  0  0
 26 22  1  0  0  0  0
 32 28  1  0  0  0  0
 43 36  1  0  0  0  0
 51 44  1  0  0  0  0
 73 52  2  0  0  0  0
 80 76  1  0  0  0  0
 86 82  1  0  0  0  0
100 91  1  0  0  0  0
 64 57  1  0  0  0  0
 72 65  1  0  0  0  0
  1107  1  0  0  0  0
  6108  1  0  0  0  0
 11109  1  0  0  0  0
 11110  1  0  0  0  0
 11111  1  0  0  0  0
 12112  1  0  0  0  0
 13113  1  0  0  0  0
 37114  1  0  0  0  0
 38115  1  0  0  0  0
 41116  1  0  0  0  0
 41117  1  0  0  0  0
 41118  1  0  0  0  0
 42119  1  0  0  0  0
 43120  1  0  0  0  0
 45121  1  0  0  0  0
 46122  1  0  0  0  0
 49123  1  0  0  0  0
 49124  1  0  0  0  0
 49125  1  0  0  0  0
 50126  1  0  0  0  0
 51127  1  0  0  0  0
 58128  1  0  0  0  0
 59129  1  0  0  0  0
 62130  1  0  0  0  0
 62131  1  0  0  0  0
 62132  1  0  0  0  0
 63133  1  0  0  0  0
 64134  1  0  0  0  0
 66135  1  0  0  0  0
 67136  1  0  0  0  0
 70137  1  0  0  0  0
 70138  1  0  0  0  0
 70139  1  0  0  0  0
 71140  1  0  0  0  0
 72141  1  0  0  0  0
 87142  1  0  0  0  0
M  END
