220

C          4.84940       -7.18580        1.83830
C          5.25060       -8.21220        1.00830
C          4.83580       -8.42300       -0.37750
O          4.16960       -7.68100       -1.08540
C          5.39410       -9.72080       -0.78580
C          5.26110      -10.37170       -1.97720
C          5.88980      -11.62610       -2.14730
C          5.79190      -12.34580       -3.35360
C          6.40840      -13.55970       -3.49560
C          7.14890      -14.10480       -2.43700
C          7.26300      -13.42970       -1.25160
C          6.64180      -12.17790       -1.07130
C          6.76040      -11.47610        0.15240
C          6.14620      -10.26150        0.29520
C          6.10450       -9.30970        1.40340
C          6.80300       -9.44150        2.58060
C          6.89770       -8.46700        3.59060
N          7.05930       -7.70800        4.43960
C          7.57540      -10.57140        2.91490
N          8.20900      -11.46770        3.25400
C          4.04060       -6.07980        1.58690
C          3.75480       -5.08610        2.55960
N          4.05150       -5.17790        3.89640
C          4.44010       -4.02140        4.59080
C          3.99370       -3.78540        5.88760
C          4.41780       -2.67320        6.58670
C          5.29360       -1.77110        5.99500
S          5.90600       -0.31890        6.78800
C          5.28030       -0.45170        8.48730
C          5.72380       -1.99190        4.68590
C          5.30490       -3.10370        3.99240
C          3.87770       -6.38060        4.60280
C          2.84040       -7.24830        4.26850
C          2.66730       -8.43550        4.95050
C          3.52300       -8.76980        5.99340
S          3.40320      -10.25390        6.93720
C          2.07350      -11.18740        6.12580
C          4.54500       -7.89080        6.34720
C          4.72730       -6.71220        5.65930
C          3.09860       -3.98630        1.97940
S          2.46400       -2.49810        2.59600
C          1.82060       -2.09860        1.01580
C          2.04630       -3.09260        0.07430
N          1.53720       -3.12730       -1.20940
C          0.34410       -2.47190       -1.53930
C         -0.74570       -2.47370       -0.66770
C         -1.85550       -1.70400       -0.94100
C         -1.90450       -0.92860       -2.09490
S         -3.29660        0.13110       -2.32900
C         -2.53700        1.53240       -3.20660
C         -0.87200       -1.01310       -3.01960
C          0.24060       -1.77920       -2.74380
C          2.21550       -3.86560       -2.19010
C          1.50300       -4.63530       -3.10860
C          2.17320       -5.43440       -4.00870
C          3.56290       -5.48340       -4.00370
S          4.36870       -6.59940       -5.11350
C          5.76100       -7.15640       -4.08310
C          4.27780       -4.66660       -3.13980
C          3.60830       -3.86020       -2.24120
C          2.80160       -4.15550        0.63340
S          3.37020       -5.66220        0.00880
C          1.06800       -0.87980        0.81300
C          0.04900       -0.48820        1.65830
F         -0.21090       -1.19680        2.77450
C         -0.76840        0.61290        1.38530
F         -1.71950        0.92040        2.28540
C         -0.61540        1.38520        0.25070
C          0.43120        1.01350       -0.64010
N          0.56370        1.64390       -1.82090
C          1.57910        1.35690       -2.59880
C          1.61440        2.04290       -3.93270
C          2.48490        3.30240       -3.93320
C          2.57660        0.43390       -2.16660
N          2.38870       -0.27640       -1.08330
C          1.30260       -0.05850       -0.32590
C          3.86550        0.19580       -2.89600
C          3.73460       -0.84130       -4.01440
C         -1.43460        2.55180       -0.00160
C         -0.97670        3.81370       -0.34420
N          0.35010        4.19670       -0.42740
C          1.29230        3.60580        0.42420
C          0.94130        3.28520        1.73350
C          1.78060        2.53360        2.52880
C          2.99700        2.08820        2.02780
S          4.06910        0.99850        2.90650
C          3.08780        0.53610        4.35880
C          3.40080        2.50370        0.76010
C          2.56470        3.26110       -0.03080
C          0.67470        5.23990       -1.30100
C          1.55560        6.24860       -0.91880
C          1.75330        7.34070       -1.73850
C          1.07370        7.44160       -2.94500
S          1.21430        8.88810       -3.96130
C          0.91370       10.17540       -2.70860
C          0.25760        6.40290       -3.36840
C          0.06120        5.30820       -2.55370
C         -2.05380        4.71920       -0.49920
S         -2.14120        6.38990       -0.90590
C         -3.90170        6.35730       -0.74890
C         -4.36260        5.08200       -0.33650
N         -5.66480        4.71740       -0.10820
C         -6.03430        3.40250       -0.46710
C         -6.62310        2.54500        0.45430
C         -6.95410        1.25390        0.09360
C         -6.70310        0.80480       -1.19710
S         -7.07330       -0.81920       -1.76340
C         -7.42330       -1.73570       -0.23470
C         -6.13800        1.67360       -2.12970
C         -5.80180        2.95770       -1.76750
C         -6.56890        5.49290        0.62700
C         -7.93750        5.36710        0.38710
C         -8.83990        6.09450        1.12960
C         -8.39640        6.96740        2.11910
S         -9.61280        7.86560        3.02060
C         -8.70970        9.37610        3.47290
C         -7.03370        7.08240        2.37090
C         -6.12850        6.35310        1.63100
C         -3.29940        4.16070       -0.25330
S         -3.17370        2.49250        0.20360
C         -4.72530        7.41890       -1.13560
C         -4.40420        8.52790       -1.88900
C         -3.09030        8.87290       -2.44600
O         -1.99000        8.54190       -2.03410
C         -3.35310        9.76850       -3.58330
C         -2.48680       10.23290       -4.52870
C         -2.98080       11.07020       -5.55540
C         -2.13830       11.56990       -6.56690
C         -2.63410       12.38060       -7.55230
C         -3.99330       12.72530       -7.56750
C         -4.83870       12.25330       -6.59980
C         -4.36230       11.41640       -5.57140
C         -5.23470       10.92020       -4.57280
C         -4.73760       10.10260       -3.59540
C         -5.37050        9.44090       -2.45850
C         -6.62030        9.72630       -1.96500
C         -7.53670       10.58850       -2.59690
N         -8.32920       11.26620       -3.07870
C         -7.07570        9.31340       -0.70140
N         -7.46430        9.10070        0.35920
H          5.22300       -7.23380        2.85330
H          4.68120       -9.94000       -2.77960
H          5.21920      -11.92030       -4.16500
H          6.32830      -14.10530       -4.42400
H          7.62930      -15.06330       -2.56450
H          7.83300      -13.84580       -0.43380
H          7.33600      -11.92410        0.94650
H          3.30900       -4.47860        6.35250
H          4.05260       -2.52040        7.58900
H          4.19620       -0.38430        8.49540
H          5.62340       -1.37930        8.93570
H          5.70430        0.39390        9.01980
H          6.39350       -1.28170        4.22640
H          5.66080       -3.27860        2.98850
H          2.16430       -6.99160        3.46620
H          1.85450       -9.08360        4.66530
H          1.13020      -10.65720        6.22090
H          2.32650      -11.36360        5.08450
H          2.01770      -12.13300        6.65600
H          5.20820       -8.15400        7.15570
H          5.53620       -6.05170        5.92620
H         -0.70690       -3.06570        0.23460
H         -2.68910       -1.68110       -0.25610
H         -2.47090        1.32250       -4.27060
H         -3.19540        2.37910       -3.04000
H         -1.55580        1.72580       -2.77850
H         -0.92200       -0.46760       -3.94850
H          1.05160       -1.82480       -3.45400
H          0.42340       -4.62570       -3.08830
H          1.62570       -6.05320       -4.70240
H          6.09360       -8.10220       -4.49950
H          5.39840       -7.29170       -3.06860
H          6.57460       -6.43750       -4.11840
H          5.35600       -4.65720       -3.15720
H          4.16220       -3.22380       -1.56700
H          0.59320        2.33080       -4.18780
H          1.98250        1.35180       -4.69110
H          3.51360        3.07950       -3.66170
H          2.09070        4.03510       -3.23490
H          2.48280        3.74600       -4.92580
H          4.58830       -0.17120       -2.16580
H          4.23480        1.13140       -3.31460
H          4.69310       -0.96140       -4.51360
H          3.00090       -0.53890       -4.75790
H          3.44090       -1.80470       -3.60660
H         -0.01150        3.61030        2.12500
H          1.46750        2.29550        3.53190
H          2.97750        1.38940        5.02170
H          3.65300       -0.24620        4.85320
H          2.12480        0.14410        4.04630
H          4.36850        2.19840        0.39290
H          2.87660        3.55860       -1.02010
H          2.05860        6.18460        0.03490
H          2.42110        8.12730       -1.42250
H          1.78640       10.29970       -2.07470
H          0.72020       11.09660       -3.24950
H          0.04410        9.88250       -2.12770
H         -0.23730        6.47100       -4.32460
H         -0.58740        4.50350       -2.86730
H         -6.81320        2.89140        1.45910
H         -7.40300        0.60820        0.83030
H         -7.50620       -2.77690       -0.53020
H         -8.36090       -1.40320        0.20110
H         -6.59720       -1.61180        0.45880
H         -5.96590        1.32150       -3.13450
H         -5.36250        3.63420       -2.48710
H         -8.28350        4.70450       -0.39250
H         -9.89820        6.00790        0.93930
H         -9.46470       10.11700        3.71590
H         -8.13060        9.69400        2.61210
H         -8.07800        9.19840        4.33880
H         -6.67100        7.73530        3.14770
H         -5.07130        6.44000        1.83420
H         -5.77860        7.28040       -0.91220
H         -1.44310        9.95640       -4.50940
H         -1.09280       11.29770       -6.54900
H         -1.98190       12.75960       -8.32500
H         -4.36910       13.36650       -8.35090
H         -5.88650       12.51610       -6.60830
H         -6.27810       11.19070       -4.61610
