
  xtb     02072213243D
 energy: -346.896917741062 gnorm: 0.000653263126 xtb: 6.4.1 (unknown)
208226  0     0  0            999 V2000
    7.5897   -2.5925    4.3924 C   0  0  0  0  0  0  0  0  0  0  0  0
    7.8995   -1.5861    5.2753 C   0  0  0  0  0  0  0  0  0  0  0  0
    7.0957   -0.3820    5.4924 C   0  0  0  0  0  0  0  0  0  0  0  0
    6.0911   -0.0411    4.8852 O   0  0  0  0  0  0  0  0  0  0  0  0
    7.7237    0.3421    6.6050 C   0  0  0  0  0  0  0  0  0  0  0  0
    7.3195    1.4956    7.2109 C   0  0  0  0  0  0  0  0  0  0  0  0
    8.0742    2.0028    8.2920 C   0  0  0  0  0  0  0  0  0  0  0  0
    7.6937    3.1768    8.9702 C   0  0  0  0  0  0  0  0  0  0  0  0
    8.4420    3.6532   10.0128 C   0  0  0  0  0  0  0  0  0  0  0  0
    9.6011    2.9764   10.4197 C   0  0  0  0  0  0  0  0  0  0  0  0
    9.9936    1.8291    9.7842 C   0  0  0  0  0  0  0  0  0  0  0  0
    9.2456    1.3088    8.7093 C   0  0  0  0  0  0  0  0  0  0  0  0
    9.6405    0.1166    8.0565 C   0  0  0  0  0  0  0  0  0  0  0  0
    8.8876   -0.3666    7.0203 C   0  0  0  0  0  0  0  0  0  0  0  0
    9.0241   -1.5604    6.1888 C   0  0  0  0  0  0  0  0  0  0  0  0
   10.0460   -2.4724    6.2790 C   0  0  0  0  0  0  0  0  0  0  0  0
   11.1146   -2.3712    7.1931 C   0  0  0  0  0  0  0  0  0  0  0  0
   12.0119   -2.3498    7.9094 N   0  0  0  0  0  0  0  0  0  0  0  0
   10.1880   -3.6314    5.4898 C   0  0  0  0  0  0  0  0  0  0  0  0
   10.3741   -4.5970    4.8952 N   0  0  0  0  0  0  0  0  0  0  0  0
    6.5035   -2.7166    3.5173 C   0  0  0  0  0  0  0  0  0  0  0  0
    6.2708   -3.8758    2.7766 C   0  0  0  0  0  0  0  0  0  0  0  0
    5.1178   -3.8384    2.0176 C   0  0  0  0  0  0  0  0  0  0  0  0
    4.5998   -5.2103    1.0232 S   0  0  0  0  0  0  0  0  0  0  0  0
    3.4824   -6.0405    2.2188 C   0  0  0  0  0  0  0  0  0  0  0  0
    4.2454   -6.7273    3.3325 C   0  0  0  0  0  0  0  0  0  0  0  0
    4.4375   -2.6170    2.1114 C   0  0  0  0  0  0  0  0  0  0  0  0
    5.2466   -1.5389    3.2072 S   0  0  0  0  0  0  0  0  0  0  0  0
    3.2541   -2.2440    1.4383 C   0  0  0  0  0  0  0  0  0  0  0  0
    2.6447   -0.9908    1.3545 C   0  0  0  0  0  0  0  0  0  0  0  0
    3.1034    0.2423    1.8165 N   0  0  0  0  0  0  0  0  0  0  0  0
    3.0753    1.2282    0.8041 C   0  0  0  0  0  0  0  0  0  0  0  0
    3.7146    0.9543   -0.4037 C   0  0  0  0  0  0  0  0  0  0  0  0
    3.5998    1.8242   -1.4645 C   0  0  0  0  0  0  0  0  0  0  0  0
    2.8269    2.9763   -1.3440 C   0  0  0  0  0  0  0  0  0  0  0  0
    2.6514    4.0029   -2.7747 S   0  0  0  0  0  0  0  0  0  0  0  0
    1.0354    4.7899   -2.5196 C   0  0  0  0  0  0  0  0  0  0  0  0
    2.2301    3.2782   -0.1267 C   0  0  0  0  0  0  0  0  0  0  0  0
    2.3564    2.4116    0.9404 C   0  0  0  0  0  0  0  0  0  0  0  0
    3.2187    0.5864    3.1548 C   0  0  0  0  0  0  0  0  0  0  0  0
    3.8769    1.7642    3.5163 C   0  0  0  0  0  0  0  0  0  0  0  0
    4.0056    2.1094    4.8405 C   0  0  0  0  0  0  0  0  0  0  0  0
    3.5030    1.2777    5.8347 C   0  0  0  0  0  0  0  0  0  0  0  0
    3.7378    1.7607    7.5243 S   0  0  0  0  0  0  0  0  0  0  0  0
    4.0825    0.1573    8.3089 C   0  0  0  0  0  0  0  0  0  0  0  0
    2.8372    0.1130    5.4860 C   0  0  0  0  0  0  0  0  0  0  0  0
    2.6938   -0.2295    4.1567 C   0  0  0  0  0  0  0  0  0  0  0  0
    1.4866   -1.0462    0.5475 C   0  0  0  0  0  0  0  0  0  0  0  0
    0.2472    0.0987    0.1992 S   0  0  0  0  0  0  0  0  0  0  0  0
   -0.6446   -1.1128   -0.7278 C   0  0  0  0  0  0  0  0  0  0  0  0
    0.0017   -2.3377   -0.7574 C   0  0  0  0  0  0  0  0  0  0  0  0
   -0.4111   -3.4894   -1.3918 N   0  0  0  0  0  0  0  0  0  0  0  0
    0.5716   -4.4635   -1.6787 C   0  0  0  0  0  0  0  0  0  0  0  0
    1.7608   -4.1014   -2.3107 C   0  0  0  0  0  0  0  0  0  0  0  0
    2.7421   -5.0406   -2.5357 C   0  0  0  0  0  0  0  0  0  0  0  0
    2.5623   -6.3602   -2.1282 C   0  0  0  0  0  0  0  0  0  0  0  0
    3.8917   -7.4724   -2.4444 S   0  0  0  0  0  0  0  0  0  0  0  0
    3.5275   -8.8864   -1.3643 C   0  0  0  0  0  0  0  0  0  0  0  0
    1.3688   -6.7297   -1.5206 C   0  0  0  0  0  0  0  0  0  0  0  0
    0.3834   -5.7878   -1.2975 C   0  0  0  0  0  0  0  0  0  0  0  0
   -1.7539   -3.8080   -1.6164 C   0  0  0  0  0  0  0  0  0  0  0  0
   -2.0950   -4.5738   -2.7332 C   0  0  0  0  0  0  0  0  0  0  0  0
   -3.4015   -4.9390   -2.9570 C   0  0  0  0  0  0  0  0  0  0  0  0
   -4.4065   -4.5422   -2.0763 C   0  0  0  0  0  0  0  0  0  0  0  0
   -6.0503   -5.0410   -2.4902 S   0  0  0  0  0  0  0  0  0  0  0  0
   -7.0725   -4.3340   -1.1673 C   0  0  0  0  0  0  0  0  0  0  0  0
   -4.0750   -3.7832   -0.9634 C   0  0  0  0  0  0  0  0  0  0  0  0
   -2.7590   -3.4257   -0.7332 C   0  0  0  0  0  0  0  0  0  0  0  0
    1.2044   -2.2817   -0.0005 C   0  0  0  0  0  0  0  0  0  0  0  0
    2.3831   -3.4495    0.4841 S   0  0  0  0  0  0  0  0  0  0  0  0
   -1.9083   -0.6345   -1.2085 C   0  0  0  0  0  0  0  0  0  0  0  0
   -2.4392   -0.5527   -2.4821 C   0  0  0  0  0  0  0  0  0  0  0  0
   -1.8877   -1.1397   -3.6124 N   0  0  0  0  0  0  0  0  0  0  0  0
   -0.5247   -0.9119   -3.8665 C   0  0  0  0  0  0  0  0  0  0  0  0
    0.2783   -1.9092   -4.4124 C   0  0  0  0  0  0  0  0  0  0  0  0
    1.6043   -1.6519   -4.6975 C   0  0  0  0  0  0  0  0  0  0  0  0
    2.1477   -0.3991   -4.4359 C   0  0  0  0  0  0  0  0  0  0  0  0
    3.8531   -0.1234   -4.8285 S   0  0  0  0  0  0  0  0  0  0  0  0
    3.8048    1.5663   -5.5043 C   0  0  0  0  0  0  0  0  0  0  0  0
    1.3569    0.5905   -3.8670 C   0  0  0  0  0  0  0  0  0  0  0  0
    0.0315    0.3356   -3.5865 C   0  0  0  0  0  0  0  0  0  0  0  0
   -2.7420   -1.6891   -4.5702 C   0  0  0  0  0  0  0  0  0  0  0  0
   -3.9969   -2.1581   -4.1872 C   0  0  0  0  0  0  0  0  0  0  0  0
   -4.8567   -2.7310   -5.1016 C   0  0  0  0  0  0  0  0  0  0  0  0
   -4.4707   -2.8649   -6.4264 C   0  0  0  0  0  0  0  0  0  0  0  0
   -5.4666   -3.6304   -7.6672 S   0  0  0  0  0  0  0  0  0  0  0  0
   -6.8414   -4.3523   -6.7254 C   0  0  0  0  0  0  0  0  0  0  0  0
   -3.2303   -2.3711   -6.8246 C   0  0  0  0  0  0  0  0  0  0  0  0
   -2.3805   -1.7823   -5.9152 C   0  0  0  0  0  0  0  0  0  0  0  0
   -3.5535    0.3178   -2.5109 C   0  0  0  0  0  0  0  0  0  0  0  0
   -4.4572    1.0085   -3.8075 S   0  0  0  0  0  0  0  0  0  0  0  0
   -5.2242    2.1454   -2.6925 C   0  0  0  0  0  0  0  0  0  0  0  0
   -4.8860    1.8824   -1.3554 C   0  0  0  0  0  0  0  0  0  0  0  0
   -5.3548    2.5627   -0.2650 N   0  0  0  0  0  0  0  0  0  0  0  0
   -4.5149    2.7296    0.8541 C   0  0  0  0  0  0  0  0  0  0  0  0
   -4.9983    2.4847    2.1383 C   0  0  0  0  0  0  0  0  0  0  0  0
   -4.1480    2.5569    3.2186 C   0  0  0  0  0  0  0  0  0  0  0  0
   -2.8010    2.8670    3.0382 C   0  0  0  0  0  0  0  0  0  0  0  0
   -1.7799    2.8426    4.4780 S   0  0  0  0  0  0  0  0  0  0  0  0
   -0.1102    2.6595    3.7883 C   0  0  0  0  0  0  0  0  0  0  0  0
   -2.3335    3.1751    1.7671 C   0  0  0  0  0  0  0  0  0  0  0  0
   -3.1869    3.1112    0.6823 C   0  0  0  0  0  0  0  0  0  0  0  0
   -6.6834    3.0053   -0.1945 C   0  0  0  0  0  0  0  0  0  0  0  0
   -6.9842    4.2178    0.4189 C   0  0  0  0  0  0  0  0  0  0  0  0
   -8.2902    4.6579    0.5046 C   0  0  0  0  0  0  0  0  0  0  0  0
   -9.3208    3.8914   -0.0259 C   0  0  0  0  0  0  0  0  0  0  0  0
  -11.0214    4.3424    0.0302 S   0  0  0  0  0  0  0  0  0  0  0  0
  -10.9987    6.0563    0.6265 C   0  0  0  0  0  0  0  0  0  0  0  0
   -9.0229    2.6712   -0.6328 C   0  0  0  0  0  0  0  0  0  0  0  0
   -7.7222    2.2307   -0.7150 C   0  0  0  0  0  0  0  0  0  0  0  0
   -3.8827    0.8849   -1.2915 C   0  0  0  0  0  0  0  0  0  0  0  0
   -2.8399    0.3054   -0.0447 S   0  0  0  0  0  0  0  0  0  0  0  0
   -5.9757    3.2219   -3.1965 C   0  0  0  0  0  0  0  0  0  0  0  0
   -5.7913    3.8564   -4.3953 C   0  0  0  0  0  0  0  0  0  0  0  0
   -6.8850    4.6734   -4.9727 C   0  0  0  0  0  0  0  0  0  0  0  0
   -7.9052    5.0179   -4.4144 O   0  0  0  0  0  0  0  0  0  0  0  0
   -6.4778    4.9352   -6.3672 C   0  0  0  0  0  0  0  0  0  0  0  0
   -7.1717    5.5496   -7.3677 C   0  0  0  0  0  0  0  0  0  0  0  0
   -6.5801    5.6664   -8.6470 C   0  0  0  0  0  0  0  0  0  0  0  0
   -7.2488    6.2926   -9.7166 C   0  0  0  0  0  0  0  0  0  0  0  0
   -6.6606    6.3917  -10.9486 C   0  0  0  0  0  0  0  0  0  0  0  0
   -5.3774    5.8689  -11.1642 C   0  0  0  0  0  0  0  0  0  0  0  0
   -4.7008    5.2541  -10.1458 C   0  0  0  0  0  0  0  0  0  0  0  0
   -5.2761    5.1365   -8.8648 C   0  0  0  0  0  0  0  0  0  0  0  0
   -4.5762    4.5123   -7.8056 C   0  0  0  0  0  0  0  0  0  0  0  0
   -5.1652    4.4187   -6.5748 C   0  0  0  0  0  0  0  0  0  0  0  0
   -4.6781    3.8761   -5.3104 C   0  0  0  0  0  0  0  0  0  0  0  0
   -3.3506    3.6946   -4.9966 C   0  0  0  0  0  0  0  0  0  0  0  0
   -2.8538    3.4819   -3.6988 C   0  0  0  0  0  0  0  0  0  0  0  0
   -2.3592    3.3814   -2.6642 N   0  0  0  0  0  0  0  0  0  0  0  0
   -2.2945    3.8121   -5.9199 C   0  0  0  0  0  0  0  0  0  0  0  0
   -1.3801    3.8785   -6.6127 N   0  0  0  0  0  0  0  0  0  0  0  0
    8.2526   -3.4491    4.3702 H   0  0  0  0  0  0  0  0  0  0  0  0
    6.4312    2.0114    6.8793 H   0  0  0  0  0  0  0  0  0  0  0  0
    6.7971    3.6885    8.6524 H   0  0  0  0  0  0  0  0  0  0  0  0
    8.1449    4.5538   10.5291 H   0  0  0  0  0  0  0  0  0  0  0  0
   10.1822    3.3671   11.2417 H   0  0  0  0  0  0  0  0  0  0  0  0
   10.8839    1.3033   10.0969 H   0  0  0  0  0  0  0  0  0  0  0  0
   10.5295   -0.3863    8.4021 H   0  0  0  0  0  0  0  0  0  0  0  0
    6.9281   -4.7268    2.8074 H   0  0  0  0  0  0  0  0  0  0  0  0
    2.9243   -6.7545    1.6145 H   0  0  0  0  0  0  0  0  0  0  0  0
    2.7927   -5.2896    2.6027 H   0  0  0  0  0  0  0  0  0  0  0  0
    4.7968   -5.9989    3.9238 H   0  0  0  0  0  0  0  0  0  0  0  0
    4.9511   -7.4455    2.9222 H   0  0  0  0  0  0  0  0  0  0  0  0
    3.5526   -7.2515    3.9881 H   0  0  0  0  0  0  0  0  0  0  0  0
    4.2882    0.0456   -0.5097 H   0  0  0  0  0  0  0  0  0  0  0  0
    4.0985    1.6036   -2.3946 H   0  0  0  0  0  0  0  0  0  0  0  0
    1.1168    5.6000   -1.8004 H   0  0  0  0  0  0  0  0  0  0  0  0
    0.3129    4.0456   -2.1982 H   0  0  0  0  0  0  0  0  0  0  0  0
    0.7472    5.1877   -3.4880 H   0  0  0  0  0  0  0  0  0  0  0  0
    1.6517    4.1809   -0.0079 H   0  0  0  0  0  0  0  0  0  0  0  0
    1.8784    2.6374    1.8808 H   0  0  0  0  0  0  0  0  0  0  0  0
    4.3127    2.3889    2.7521 H   0  0  0  0  0  0  0  0  0  0  0  0
    4.5209    3.0162    5.1176 H   0  0  0  0  0  0  0  0  0  0  0  0
    3.1552   -0.3565    8.5460 H   0  0  0  0  0  0  0  0  0  0  0  0
    4.6285    0.3718    9.2224 H   0  0  0  0  0  0  0  0  0  0  0  0
    4.6948   -0.4334    7.6344 H   0  0  0  0  0  0  0  0  0  0  0  0
    2.4263   -0.5336    6.2463 H   0  0  0  0  0  0  0  0  0  0  0  0
    2.1680   -1.1342    3.8876 H   0  0  0  0  0  0  0  0  0  0  0  0
    1.9146   -3.0763   -2.6111 H   0  0  0  0  0  0  0  0  0  0  0  0
    3.6659   -4.7585   -3.0155 H   0  0  0  0  0  0  0  0  0  0  0  0
    2.6713   -9.4418   -1.7362 H   0  0  0  0  0  0  0  0  0  0  0  0
    4.4124   -9.5141   -1.3959 H   0  0  0  0  0  0  0  0  0  0  0  0
    3.3617   -8.5325   -0.3515 H   0  0  0  0  0  0  0  0  0  0  0  0
    1.1960   -7.7474   -1.2090 H   0  0  0  0  0  0  0  0  0  0  0  0
   -0.5383   -6.0782   -0.8143 H   0  0  0  0  0  0  0  0  0  0  0  0
   -1.3234   -4.8853   -3.4208 H   0  0  0  0  0  0  0  0  0  0  0  0
   -3.6615   -5.5284   -3.8225 H   0  0  0  0  0  0  0  0  0  0  0  0
   -8.0938   -4.6160   -1.4039 H   0  0  0  0  0  0  0  0  0  0  0  0
   -6.9803   -3.2516   -1.1641 H   0  0  0  0  0  0  0  0  0  0  0  0
   -6.7867   -4.7579   -0.2091 H   0  0  0  0  0  0  0  0  0  0  0  0
   -4.8258   -3.4689   -0.2558 H   0  0  0  0  0  0  0  0  0  0  0  0
   -2.5134   -2.8664    0.1568 H   0  0  0  0  0  0  0  0  0  0  0  0
   -0.1450   -2.8798   -4.6219 H   0  0  0  0  0  0  0  0  0  0  0  0
    2.2272   -2.4195   -5.1311 H   0  0  0  0  0  0  0  0  0  0  0  0
    4.7386    1.6976   -6.0416 H   0  0  0  0  0  0  0  0  0  0  0  0
    2.9647    1.6482   -6.1864 H   0  0  0  0  0  0  0  0  0  0  0  0
    3.7296    2.3047   -4.7113 H   0  0  0  0  0  0  0  0  0  0  0  0
    1.7645    1.5659   -3.6609 H   0  0  0  0  0  0  0  0  0  0  0  0
   -0.5857    1.1163   -3.1650 H   0  0  0  0  0  0  0  0  0  0  0  0
   -4.3023   -2.0851   -3.1550 H   0  0  0  0  0  0  0  0  0  0  0  0
   -5.8161   -3.0820   -4.7596 H   0  0  0  0  0  0  0  0  0  0  0  0
   -7.4747   -3.5656   -6.3255 H   0  0  0  0  0  0  0  0  0  0  0  0
   -6.4549   -4.9868   -5.9331 H   0  0  0  0  0  0  0  0  0  0  0  0
   -7.4026   -4.9482   -7.4384 H   0  0  0  0  0  0  0  0  0  0  0  0
   -2.9415   -2.4517   -7.8613 H   0  0  0  0  0  0  0  0  0  0  0  0
   -1.4326   -1.3889   -6.2483 H   0  0  0  0  0  0  0  0  0  0  0  0
   -6.0339    2.2121    2.2778 H   0  0  0  0  0  0  0  0  0  0  0  0
   -4.5095    2.3465    4.2132 H   0  0  0  0  0  0  0  0  0  0  0  0
   -0.1217    1.8775    3.0342 H   0  0  0  0  0  0  0  0  0  0  0  0
    0.5315    2.3711    4.6158 H   0  0  0  0  0  0  0  0  0  0  0  0
    0.2281    3.6070    3.3777 H   0  0  0  0  0  0  0  0  0  0  0  0
   -1.3061    3.4578    1.6056 H   0  0  0  0  0  0  0  0  0  0  0  0
   -2.8217    3.3441   -0.3072 H   0  0  0  0  0  0  0  0  0  0  0  0
   -6.1853    4.8193    0.8263 H   0  0  0  0  0  0  0  0  0  0  0  0
   -8.4890    5.6028    0.9832 H   0  0  0  0  0  0  0  0  0  0  0  0
  -12.0279    6.3975    0.5719 H   0  0  0  0  0  0  0  0  0  0  0  0
  -10.6547    6.0931    1.6562 H   0  0  0  0  0  0  0  0  0  0  0  0
  -10.3740    6.6607   -0.0241 H   0  0  0  0  0  0  0  0  0  0  0  0
   -9.8276    2.0762   -1.0361 H   0  0  0  0  0  0  0  0  0  0  0  0
   -7.4990    1.2840   -1.1842 H   0  0  0  0  0  0  0  0  0  0  0  0
   -6.8102    3.5850   -2.6059 H   0  0  0  0  0  0  0  0  0  0  0  0
   -8.1610    5.9440   -7.1886 H   0  0  0  0  0  0  0  0  0  0  0  0
   -8.2373    6.6933   -9.5449 H   0  0  0  0  0  0  0  0  0  0  0  0
   -7.1814    6.8730  -11.7630 H   0  0  0  0  0  0  0  0  0  0  0  0
   -4.9267    5.9558  -12.1416 H   0  0  0  0  0  0  0  0  0  0  0  0
   -3.7111    4.8520  -10.3059 H   0  0  0  0  0  0  0  0  0  0  0  0
   -3.5927    4.1121   -7.9981 H   0  0  0  0  0  0  0  0  0  0  0  0
  1  2  2  0  0  0  0
  2  3  1  0  0  0  0
  3  4  2  0  0  0  0
  3  5  1  0  0  0  0
  5  6  2  0  0  0  0
  6  7  1  0  0  0  0
  7  8  2  0  0  0  0
  8  9  1  0  0  0  0
  9 10  2  0  0  0  0
 10 11  1  0  0  0  0
 11 12  2  0  0  0  0
 12 13  1  0  0  0  0
 13 14  2  0  0  0  0
 14 15  1  0  0  0  0
 15 16  2  0  0  0  0
 16 17  1  0  0  0  0
 17 18  3  0  0  0  0
 16 19  1  0  0  0  0
 19 20  3  0  0  0  0
  1 21  1  0  0  0  0
 21 22  2  0  0  0  0
 22 23  1  0  0  0  0
 23 24  1  0  0  0  0
 24 25  1  0  0  0  0
 25 26  1  0  0  0  0
 23 27  2  0  0  0  0
 27 28  1  0  0  0  0
 27 29  1  0  0  0  0
 29 30  2  0  0  0  0
 30 31  1  0  0  0  0
 31 32  1  0  0  0  0
 32 33  2  0  0  0  0
 33 34  1  0  0  0  0
 34 35  2  0  0  0  0
 35 36  1  0  0  0  0
 36 37  1  0  0  0  0
 35 38  1  0  0  0  0
 38 39  2  0  0  0  0
 31 40  1  0  0  0  0
 40 41  2  0  0  0  0
 41 42  1  0  0  0  0
 42 43  2  0  0  0  0
 43 44  1  0  0  0  0
 44 45  1  0  0  0  0
 43 46  1  0  0  0  0
 46 47  2  0  0  0  0
 30 48  1  0  0  0  0
 48 49  1  0  0  0  0
 49 50  1  0  0  0  0
 50 51  2  0  0  0  0
 51 52  1  0  0  0  0
 52 53  1  0  0  0  0
 53 54  2  0  0  0  0
 54 55  1  0  0  0  0
 55 56  2  0  0  0  0
 56 57  1  0  0  0  0
 57 58  1  0  0  0  0
 56 59  1  0  0  0  0
 59 60  2  0  0  0  0
 52 61  1  0  0  0  0
 61 62  2  0  0  0  0
 62 63  1  0  0  0  0
 63 64  2  0  0  0  0
 64 65  1  0  0  0  0
 65 66  1  0  0  0  0
 64 67  1  0  0  0  0
 67 68  2  0  0  0  0
 51 69  1  0  0  0  0
 69 70  1  0  0  0  0
 50 71  1  0  0  0  0
 71 72  2  0  0  0  0
 72 73  1  0  0  0  0
 73 74  1  0  0  0  0
 74 75  2  0  0  0  0
 75 76  1  0  0  0  0
 76 77  2  0  0  0  0
 77 78  1  0  0  0  0
 78 79  1  0  0  0  0
 77 80  1  0  0  0  0
 80 81  2  0  0  0  0
 73 82  1  0  0  0  0
 82 83  2  0  0  0  0
 83 84  1  0  0  0  0
 84 85  2  0  0  0  0
 85 86  1  0  0  0  0
 86 87  1  0  0  0  0
 85 88  1  0  0  0  0
 88 89  2  0  0  0  0
 72 90  1  0  0  0  0
 90 91  1  0  0  0  0
 91 92  1  0  0  0  0
 92 93  2  0  0  0  0
 93 94  1  0  0  0  0
 94 95  1  0  0  0  0
 95 96  2  0  0  0  0
 96 97  1  0  0  0  0
 97 98  2  0  0  0  0
 98 99  1  0  0  0  0
 99100  1  0  0  0  0
 98101  1  0  0  0  0
101102  2  0  0  0  0
 94103  1  0  0  0  0
103104  2  0  0  0  0
104105  1  0  0  0  0
105106  2  0  0  0  0
106107  1  0  0  0  0
107108  1  0  0  0  0
106109  1  0  0  0  0
109110  2  0  0  0  0
 93111  1  0  0  0  0
111112  1  0  0  0  0
 92113  1  0  0  0  0
113114  2  0  0  0  0
114115  1  0  0  0  0
115116  2  0  0  0  0
115117  1  0  0  0  0
117118  2  0  0  0  0
118119  1  0  0  0  0
119120  2  0  0  0  0
120121  1  0  0  0  0
121122  2  0  0  0  0
122123  1  0  0  0  0
123124  2  0  0  0  0
124125  1  0  0  0  0
125126  2  0  0  0  0
126127  1  0  0  0  0
127128  2  0  0  0  0
128129  1  0  0  0  0
129130  3  0  0  0  0
128131  1  0  0  0  0
131132  3  0  0  0  0
 15  2  1  0  0  0  0
 28 21  1  0  0  0  0
 70 29  1  0  0  0  0
112 71  1  0  0  0  0
127114  1  0  0  0  0
 14  5  1  0  0  0  0
 39 32  1  0  0  0  0
 47 40  1  0  0  0  0
 69 48  2  0  0  0  0
 81 74  1  0  0  0  0
 89 82  1  0  0  0  0
111 90  2  0  0  0  0
126117  1  0  0  0  0
 12  7  1  0  0  0  0
 60 53  1  0  0  0  0
 68 61  1  0  0  0  0
102 95  1  0  0  0  0
110103  1  0  0  0  0
124119  1  0  0  0  0
  1133  1  0  0  0  0
  6134  1  0  0  0  0
  8135  1  0  0  0  0
  9136  1  0  0  0  0
 10137  1  0  0  0  0
 11138  1  0  0  0  0
 13139  1  0  0  0  0
 22140  1  0  0  0  0
 25141  1  0  0  0  0
 25142  1  0  0  0  0
 26143  1  0  0  0  0
 26144  1  0  0  0  0
 26145  1  0  0  0  0
 33146  1  0  0  0  0
 34147  1  0  0  0  0
 37148  1  0  0  0  0
 37149  1  0  0  0  0
 37150  1  0  0  0  0
 38151  1  0  0  0  0
 39152  1  0  0  0  0
 41153  1  0  0  0  0
 42154  1  0  0  0  0
 45155  1  0  0  0  0
 45156  1  0  0  0  0
 45157  1  0  0  0  0
 46158  1  0  0  0  0
 47159  1  0  0  0  0
 54160  1  0  0  0  0
 55161  1  0  0  0  0
 58162  1  0  0  0  0
 58163  1  0  0  0  0
 58164  1  0  0  0  0
 59165  1  0  0  0  0
 60166  1  0  0  0  0
 62167  1  0  0  0  0
 63168  1  0  0  0  0
 66169  1  0  0  0  0
 66170  1  0  0  0  0
 66171  1  0  0  0  0
 67172  1  0  0  0  0
 68173  1  0  0  0  0
 75174  1  0  0  0  0
 76175  1  0  0  0  0
 79176  1  0  0  0  0
 79177  1  0  0  0  0
 79178  1  0  0  0  0
 80179  1  0  0  0  0
 81180  1  0  0  0  0
 83181  1  0  0  0  0
 84182  1  0  0  0  0
 87183  1  0  0  0  0
 87184  1  0  0  0  0
 87185  1  0  0  0  0
 88186  1  0  0  0  0
 89187  1  0  0  0  0
 96188  1  0  0  0  0
 97189  1  0  0  0  0
100190  1  0  0  0  0
100191  1  0  0  0  0
100192  1  0  0  0  0
101193  1  0  0  0  0
102194  1  0  0  0  0
104195  1  0  0  0  0
105196  1  0  0  0  0
108197  1  0  0  0  0
108198  1  0  0  0  0
108199  1  0  0  0  0
109200  1  0  0  0  0
110201  1  0  0  0  0
113202  1  0  0  0  0
118203  1  0  0  0  0
120204  1  0  0  0  0
121205  1  0  0  0  0
122206  1  0  0  0  0
123207  1  0  0  0  0
125208  1  0  0  0  0
M  END
