208

C          7.58970       -2.59250        4.39240
C          7.89950       -1.58610        5.27530
C          7.09570       -0.38200        5.49240
O          6.09110       -0.04110        4.88520
C          7.72370        0.34210        6.60500
C          7.31950        1.49560        7.21090
C          8.07420        2.00280        8.29200
C          7.69370        3.17680        8.97020
C          8.44200        3.65320       10.01280
C          9.60110        2.97640       10.41970
C          9.99360        1.82910        9.78420
C          9.24560        1.30880        8.70930
C          9.64050        0.11660        8.05650
C          8.88760       -0.36660        7.02030
C          9.02410       -1.56040        6.18880
C         10.04600       -2.47240        6.27900
C         11.11460       -2.37120        7.19310
N         12.01190       -2.34980        7.90940
C         10.18800       -3.63140        5.48980
N         10.37410       -4.59700        4.89520
C          6.50350       -2.71660        3.51730
C          6.27080       -3.87580        2.77660
C          5.11780       -3.83840        2.01760
S          4.59980       -5.21030        1.02320
C          3.48240       -6.04050        2.21880
C          4.24540       -6.72730        3.33250
C          4.43750       -2.61700        2.11140
S          5.24660       -1.53890        3.20720
C          3.25410       -2.24400        1.43830
C          2.64470       -0.99080        1.35450
N          3.10340        0.24230        1.81650
C          3.07530        1.22820        0.80410
C          3.71460        0.95430       -0.40370
C          3.59980        1.82420       -1.46450
C          2.82690        2.97630       -1.34400
S          2.65140        4.00290       -2.77470
C          1.03540        4.78990       -2.51960
C          2.23010        3.27820       -0.12670
C          2.35640        2.41160        0.94040
C          3.21870        0.58640        3.15480
C          3.87690        1.76420        3.51630
C          4.00560        2.10940        4.84050
C          3.50300        1.27770        5.83470
S          3.73780        1.76070        7.52430
C          4.08250        0.15730        8.30890
C          2.83720        0.11300        5.48600
C          2.69380       -0.22950        4.15670
C          1.48660       -1.04620        0.54750
S          0.24720        0.09870        0.19920
C         -0.64460       -1.11280       -0.72780
C          0.00170       -2.33770       -0.75740
N         -0.41110       -3.48940       -1.39180
C          0.57160       -4.46350       -1.67870
C          1.76080       -4.10140       -2.31070
C          2.74210       -5.04060       -2.53570
C          2.56230       -6.36020       -2.12820
S          3.89170       -7.47240       -2.44440
C          3.52750       -8.88640       -1.36430
C          1.36880       -6.72970       -1.52060
C          0.38340       -5.78780       -1.29750
C         -1.75390       -3.80800       -1.61640
C         -2.09500       -4.57380       -2.73320
C         -3.40150       -4.93900       -2.95700
C         -4.40650       -4.54220       -2.07630
S         -6.05030       -5.04100       -2.49020
C         -7.07250       -4.33400       -1.16730
C         -4.07500       -3.78320       -0.96340
C         -2.75900       -3.42570       -0.73320
C          1.20440       -2.28170       -0.00050
S          2.38310       -3.44950        0.48410
C         -1.90830       -0.63450       -1.20850
C         -2.43920       -0.55270       -2.48210
N         -1.88770       -1.13970       -3.61240
C         -0.52470       -0.91190       -3.86650
C          0.27830       -1.90920       -4.41240
C          1.60430       -1.65190       -4.69750
C          2.14770       -0.39910       -4.43590
S          3.85310       -0.12340       -4.82850
C          3.80480        1.56630       -5.50430
C          1.35690        0.59050       -3.86700
C          0.03150        0.33560       -3.58650
C         -2.74200       -1.68910       -4.57020
C         -3.99690       -2.15810       -4.18720
C         -4.85670       -2.73100       -5.10160
C         -4.47070       -2.86490       -6.42640
S         -5.46660       -3.63040       -7.66720
C         -6.84140       -4.35230       -6.72540
C         -3.23030       -2.37110       -6.82460
C         -2.38050       -1.78230       -5.91520
C         -3.55350        0.31780       -2.51090
S         -4.45720        1.00850       -3.80750
C         -5.22420        2.14540       -2.69250
C         -4.88600        1.88240       -1.35540
N         -5.35480        2.56270       -0.26500
C         -4.51490        2.72960        0.85410
C         -4.99830        2.48470        2.13830
C         -4.14800        2.55690        3.21860
C         -2.80100        2.86700        3.03820
S         -1.77990        2.84260        4.47800
C         -0.11020        2.65950        3.78830
C         -2.33350        3.17510        1.76710
C         -3.18690        3.11120        0.68230
C         -6.68340        3.00530       -0.19450
C         -6.98420        4.21780        0.41890
C         -8.29020        4.65790        0.50460
C         -9.32080        3.89140       -0.02590
S        -11.02140        4.34240        0.03020
C        -10.99870        6.05630        0.62650
C         -9.02290        2.67120       -0.63280
C         -7.72220        2.23070       -0.71500
C         -3.88270        0.88490       -1.29150
S         -2.83990        0.30540       -0.04470
C         -5.97570        3.22190       -3.19650
C         -5.79130        3.85640       -4.39530
C         -6.88500        4.67340       -4.97270
O         -7.90520        5.01790       -4.41440
C         -6.47780        4.93520       -6.36720
C         -7.17170        5.54960       -7.36770
C         -6.58010        5.66640       -8.64700
C         -7.24880        6.29260       -9.71660
C         -6.66060        6.39170      -10.94860
C         -5.37740        5.86890      -11.16420
C         -4.70080        5.25410      -10.14580
C         -5.27610        5.13650       -8.86480
C         -4.57620        4.51230       -7.80560
C         -5.16520        4.41870       -6.57480
C         -4.67810        3.87610       -5.31040
C         -3.35060        3.69460       -4.99660
C         -2.85380        3.48190       -3.69880
N         -2.35920        3.38140       -2.66420
C         -2.29450        3.81210       -5.91990
N         -1.38010        3.87850       -6.61270
H          8.25260       -3.44910        4.37020
H          6.43120        2.01140        6.87930
H          6.79710        3.68850        8.65240
H          8.14490        4.55380       10.52910
H         10.18220        3.36710       11.24170
H         10.88390        1.30330       10.09690
H         10.52950       -0.38630        8.40210
H          6.92810       -4.72680        2.80740
H          2.92430       -6.75450        1.61450
H          2.79270       -5.28960        2.60270
H          4.79680       -5.99890        3.92380
H          4.95110       -7.44550        2.92220
H          3.55260       -7.25150        3.98810
H          4.28820        0.04560       -0.50970
H          4.09850        1.60360       -2.39460
H          1.11680        5.60000       -1.80040
H          0.31290        4.04560       -2.19820
H          0.74720        5.18770       -3.48800
H          1.65170        4.18090       -0.00790
H          1.87840        2.63740        1.88080
H          4.31270        2.38890        2.75210
H          4.52090        3.01620        5.11760
H          3.15520       -0.35650        8.54600
H          4.62850        0.37180        9.22240
H          4.69480       -0.43340        7.63440
H          2.42630       -0.53360        6.24630
H          2.16800       -1.13420        3.88760
H          1.91460       -3.07630       -2.61110
H          3.66590       -4.75850       -3.01550
H          2.67130       -9.44180       -1.73620
H          4.41240       -9.51410       -1.39590
H          3.36170       -8.53250       -0.35150
H          1.19600       -7.74740       -1.20900
H         -0.53830       -6.07820       -0.81430
H         -1.32340       -4.88530       -3.42080
H         -3.66150       -5.52840       -3.82250
H         -8.09380       -4.61600       -1.40390
H         -6.98030       -3.25160       -1.16410
H         -6.78670       -4.75790       -0.20910
H         -4.82580       -3.46890       -0.25580
H         -2.51340       -2.86640        0.15680
H         -0.14500       -2.87980       -4.62190
H          2.22720       -2.41950       -5.13110
H          4.73860        1.69760       -6.04160
H          2.96470        1.64820       -6.18640
H          3.72960        2.30470       -4.71130
H          1.76450        1.56590       -3.66090
H         -0.58570        1.11630       -3.16500
H         -4.30230       -2.08510       -3.15500
H         -5.81610       -3.08200       -4.75960
H         -7.47470       -3.56560       -6.32550
H         -6.45490       -4.98680       -5.93310
H         -7.40260       -4.94820       -7.43840
H         -2.94150       -2.45170       -7.86130
H         -1.43260       -1.38890       -6.24830
H         -6.03390        2.21210        2.27780
H         -4.50950        2.34650        4.21320
H         -0.12170        1.87750        3.03420
H          0.53150        2.37110        4.61580
H          0.22810        3.60700        3.37770
H         -1.30610        3.45780        1.60560
H         -2.82170        3.34410       -0.30720
H         -6.18530        4.81930        0.82630
H         -8.48900        5.60280        0.98320
H        -12.02790        6.39750        0.57190
H        -10.65470        6.09310        1.65620
H        -10.37400        6.66070       -0.02410
H         -9.82760        2.07620       -1.03610
H         -7.49900        1.28400       -1.18420
H         -6.81020        3.58500       -2.60590
H         -8.16100        5.94400       -7.18860
H         -8.23730        6.69330       -9.54490
H         -7.18140        6.87300      -11.76300
H         -4.92670        5.95580      -12.14160
H         -3.71110        4.85200      -10.30590
H         -3.59270        4.11210       -7.99810
