
  xtb     02142203553D
 energy: -343.691230150998 gnorm: 0.000370017336 xtb: 6.4.1 (unknown)
210226  0     0  0            999 V2000
    5.6645   -5.4622    3.2916 C   0  0  0  0  0  0  0  0  0  0  0  0
    5.7910   -6.8299    3.4659 C   0  0  0  0  0  0  0  0  0  0  0  0
    4.7598   -7.7904    3.1809 C   0  0  0  0  0  0  0  0  0  0  0  0
    3.6377   -7.4989    2.7792 O   0  0  0  0  0  0  0  0  0  0  0  0
    5.0680   -9.1230    3.4145 N   0  0  0  0  0  0  0  0  0  0  0  0
    4.0494  -10.1024    3.0499 C   0  0  0  0  0  0  0  0  0  0  0  0
    4.2711  -10.6283    1.6385 C   0  0  0  0  0  0  0  0  0  0  0  0
    6.2574   -9.5550    3.9311 C   0  0  0  0  0  0  0  0  0  0  0  0
    6.5289  -11.1651    4.1887 S   0  0  0  0  0  0  0  0  0  0  0  0
    7.2065   -8.6270    4.2438 N   0  0  0  0  0  0  0  0  0  0  0  0
    8.4641   -9.0577    4.8427 C   0  0  0  0  0  0  0  0  0  0  0  0
    8.3530   -9.1351    6.3595 C   0  0  0  0  0  0  0  0  0  0  0  0
    7.0501   -7.2573    4.0586 C   0  0  0  0  0  0  0  0  0  0  0  0
    7.9355   -6.4893    4.3901 O   0  0  0  0  0  0  0  0  0  0  0  0
    4.6597   -4.6689    2.7550 C   0  0  0  0  0  0  0  0  0  0  0  0
    4.6860   -3.2479    2.7571 C   0  0  0  0  0  0  0  0  0  0  0  0
    5.6073   -2.4688    3.4091 N   0  0  0  0  0  0  0  0  0  0  0  0
    6.1833   -2.8688    4.6322 C   0  0  0  0  0  0  0  0  0  0  0  0
    7.5425   -2.6654    4.8655 C   0  0  0  0  0  0  0  0  0  0  0  0
    8.1147   -3.1078    6.0367 C   0  0  0  0  0  0  0  0  0  0  0  0
    7.3439   -3.7591    6.9975 C   0  0  0  0  0  0  0  0  0  0  0  0
    8.1834   -4.3158    8.4429 S   0  0  0  0  0  0  0  0  0  0  0  0
    7.0107   -5.4843    9.1906 C   0  0  0  0  0  0  0  0  0  0  0  0
    5.9798   -3.9200    6.7866 C   0  0  0  0  0  0  0  0  0  0  0  0
    5.4045   -3.4729    5.6146 C   0  0  0  0  0  0  0  0  0  0  0  0
    5.9147   -1.1981    2.8983 C   0  0  0  0  0  0  0  0  0  0  0  0
    6.0310   -1.0013    1.5246 C   0  0  0  0  0  0  0  0  0  0  0  0
    6.2788    0.2544    1.0072 C   0  0  0  0  0  0  0  0  0  0  0  0
    6.4397    1.3370    1.8608 C   0  0  0  0  0  0  0  0  0  0  0  0
    6.6933    2.9967    1.3196 S   0  0  0  0  0  0  0  0  0  0  0  0
    6.6560    2.8796   -0.4888 C   0  0  0  0  0  0  0  0  0  0  0  0
    6.3871    1.1314    3.2397 C   0  0  0  0  0  0  0  0  0  0  0  0
    6.1178   -0.1156    3.7546 C   0  0  0  0  0  0  0  0  0  0  0  0
    3.6173   -2.7289    2.0114 C   0  0  0  0  0  0  0  0  0  0  0  0
    3.0440   -1.1264    1.6765 S   0  0  0  0  0  0  0  0  0  0  0  0
    1.6684   -1.7795    0.7950 C   0  0  0  0  0  0  0  0  0  0  0  0
    1.7230   -3.1711    0.6920 C   0  0  0  0  0  0  0  0  0  0  0  0
    0.8765   -3.9846   -0.0554 N   0  0  0  0  0  0  0  0  0  0  0  0
    0.5656   -5.2286    0.5255 C   0  0  0  0  0  0  0  0  0  0  0  0
    0.1683   -5.2650    1.8588 C   0  0  0  0  0  0  0  0  0  0  0  0
   -0.0199   -6.4701    2.5035 C   0  0  0  0  0  0  0  0  0  0  0  0
    0.1909   -7.6587    1.8194 C   0  0  0  0  0  0  0  0  0  0  0  0
    0.0575   -9.2371    2.5978 S   0  0  0  0  0  0  0  0  0  0  0  0
    0.5340   -8.8440    4.3092 C   0  0  0  0  0  0  0  0  0  0  0  0
    0.5273   -7.6272    0.4699 C   0  0  0  0  0  0  0  0  0  0  0  0
    0.7164   -6.4245   -0.1733 C   0  0  0  0  0  0  0  0  0  0  0  0
    0.6110   -3.7358   -1.4021 C   0  0  0  0  0  0  0  0  0  0  0  0
    1.4187   -2.8865   -2.1634 C   0  0  0  0  0  0  0  0  0  0  0  0
    1.0718   -2.5666   -3.4567 C   0  0  0  0  0  0  0  0  0  0  0  0
   -0.0741   -3.1042   -4.0389 C   0  0  0  0  0  0  0  0  0  0  0  0
   -0.4445   -2.5869   -5.6877 S   0  0  0  0  0  0  0  0  0  0  0  0
   -1.9889   -3.4475   -6.0902 C   0  0  0  0  0  0  0  0  0  0  0  0
   -0.8492   -3.9936   -3.3081 C   0  0  0  0  0  0  0  0  0  0  0  0
   -0.5163   -4.2959   -2.0037 C   0  0  0  0  0  0  0  0  0  0  0  0
    2.8008   -3.6977    1.4395 C   0  0  0  0  0  0  0  0  0  0  0  0
    3.2647   -5.3014    1.8767 S   0  0  0  0  0  0  0  0  0  0  0  0
    0.6744   -0.9064    0.2911 C   0  0  0  0  0  0  0  0  0  0  0  0
    0.6914    0.4852    0.2111 C   0  0  0  0  0  0  0  0  0  0  0  0
    1.6980    1.3176    0.7159 N   0  0  0  0  0  0  0  0  0  0  0  0
    1.8221    1.4680    2.0994 C   0  0  0  0  0  0  0  0  0  0  0  0
    0.7714    1.1167    2.9493 C   0  0  0  0  0  0  0  0  0  0  0  0
    0.9184    1.2050    4.3155 C   0  0  0  0  0  0  0  0  0  0  0  0
    2.1116    1.6583    4.8719 C   0  0  0  0  0  0  0  0  0  0  0  0
    2.1933    1.7155    6.6354 S   0  0  0  0  0  0  0  0  0  0  0  0
    3.8548    2.3623    6.9740 C   0  0  0  0  0  0  0  0  0  0  0  0
    3.1543    2.0234    4.0320 C   0  0  0  0  0  0  0  0  0  0  0  0
    3.0134    1.9195    2.6642 C   0  0  0  0  0  0  0  0  0  0  0  0
    2.3399    2.1563   -0.1991 C   0  0  0  0  0  0  0  0  0  0  0  0
    2.6399    1.6680   -1.4693 C   0  0  0  0  0  0  0  0  0  0  0  0
    3.2819    2.4595   -2.4026 C   0  0  0  0  0  0  0  0  0  0  0  0
    3.6391    3.7607   -2.0787 C   0  0  0  0  0  0  0  0  0  0  0  0
    4.5131    4.8537   -3.1591 S   0  0  0  0  0  0  0  0  0  0  0  0
    4.5995    3.9450   -4.7279 C   0  0  0  0  0  0  0  0  0  0  0  0
    3.3206    4.2622   -0.8173 C   0  0  0  0  0  0  0  0  0  0  0  0
    2.6734    3.4767    0.1086 C   0  0  0  0  0  0  0  0  0  0  0  0
   -0.4530    0.9723   -0.4515 C   0  0  0  0  0  0  0  0  0  0  0  0
   -0.9979    2.5346   -0.9586 S   0  0  0  0  0  0  0  0  0  0  0  0
   -2.4511    1.8267   -1.6724 C   0  0  0  0  0  0  0  0  0  0  0  0
   -2.4714    0.4424   -1.5480 C   0  0  0  0  0  0  0  0  0  0  0  0
   -3.4024   -0.4102   -2.1345 N   0  0  0  0  0  0  0  0  0  0  0  0
   -3.5555   -0.3624   -3.5334 C   0  0  0  0  0  0  0  0  0  0  0  0
   -4.7531   -0.7753   -4.1198 C   0  0  0  0  0  0  0  0  0  0  0  0
   -4.8834   -0.7929   -5.4899 C   0  0  0  0  0  0  0  0  0  0  0  0
   -3.8283   -0.3867   -6.3072 C   0  0  0  0  0  0  0  0  0  0  0  0
   -4.0836   -0.5123   -8.0491 S   0  0  0  0  0  0  0  0  0  0  0  0
   -2.4774   -0.0484   -8.7578 C   0  0  0  0  0  0  0  0  0  0  0  0
   -2.6518    0.0643   -5.7268 C   0  0  0  0  0  0  0  0  0  0  0  0
   -2.5173    0.0677   -4.3521 C   0  0  0  0  0  0  0  0  0  0  0  0
   -3.6777   -1.6014   -1.4463 C   0  0  0  0  0  0  0  0  0  0  0  0
   -3.7564   -2.8309   -2.1003 C   0  0  0  0  0  0  0  0  0  0  0  0
   -3.8928   -3.9951   -1.3809 C   0  0  0  0  0  0  0  0  0  0  0  0
   -3.9471   -3.9685    0.0105 C   0  0  0  0  0  0  0  0  0  0  0  0
   -4.0054   -5.5331    0.8269 S   0  0  0  0  0  0  0  0  0  0  0  0
   -3.5619   -5.1307    2.5396 C   0  0  0  0  0  0  0  0  0  0  0  0
   -3.9495   -2.7441    0.6639 C   0  0  0  0  0  0  0  0  0  0  0  0
   -3.8231   -1.5744   -0.0601 C   0  0  0  0  0  0  0  0  0  0  0  0
   -1.3517   -0.0157   -0.8230 C   0  0  0  0  0  0  0  0  0  0  0  0
   -0.8260   -1.5778   -0.3288 S   0  0  0  0  0  0  0  0  0  0  0  0
   -3.4384    2.6865   -2.2105 C   0  0  0  0  0  0  0  0  0  0  0  0
   -5.0357    2.0721   -2.6181 S   0  0  0  0  0  0  0  0  0  0  0  0
   -5.5602    3.6722   -2.9943 C   0  0  0  0  0  0  0  0  0  0  0  0
   -6.6835    4.3764   -3.4110 C   0  0  0  0  0  0  0  0  0  0  0  0
   -6.3009    5.7458   -3.4744 C   0  0  0  0  0  0  0  0  0  0  0  0
   -4.9772    5.8696   -3.1313 N   0  0  0  0  0  0  0  0  0  0  0  0
   -4.2597    7.1095   -2.9781 C   0  0  0  0  0  0  0  0  0  0  0  0
   -4.4619    7.7055   -1.5868 C   0  0  0  0  0  0  0  0  0  0  0  0
   -4.5236    4.6201   -2.8153 C   0  0  0  0  0  0  0  0  0  0  0  0
   -3.3282    4.0553   -2.3713 C   0  0  0  0  0  0  0  0  0  0  0  0
   -7.3225    6.6004   -3.8502 C   0  0  0  0  0  0  0  0  0  0  0  0
   -8.5117    5.9186   -4.0872 C   0  0  0  0  0  0  0  0  0  0  0  0
   -8.3285    4.1639   -3.8413 S   0  0  0  0  0  0  0  0  0  0  0  0
   -9.7937    6.3330   -4.4622 C   0  0  0  0  0  0  0  0  0  0  0  0
  -10.3909    7.5528   -4.7101 C   0  0  0  0  0  0  0  0  0  0  0  0
  -11.8078    7.4473   -5.0707 C   0  0  0  0  0  0  0  0  0  0  0  0
  -12.3966    6.3872   -5.1673 O   0  0  0  0  0  0  0  0  0  0  0  0
  -12.4845    8.6369   -5.3066 N   0  0  0  0  0  0  0  0  0  0  0  0
  -13.9004    8.5232   -5.6380 C   0  0  0  0  0  0  0  0  0  0  0  0
  -14.7686    8.5966   -4.3891 C   0  0  0  0  0  0  0  0  0  0  0  0
  -11.9202    9.8717   -5.1950 C   0  0  0  0  0  0  0  0  0  0  0  0
  -12.8242   11.2387   -5.4140 S   0  0  0  0  0  0  0  0  0  0  0  0
  -10.5894    9.9505   -4.9054 N   0  0  0  0  0  0  0  0  0  0  0  0
   -9.9659   11.2661   -4.8115 C   0  0  0  0  0  0  0  0  0  0  0  0
  -10.1079   11.8483   -3.4114 C   0  0  0  0  0  0  0  0  0  0  0  0
   -9.7660    8.8594   -4.6327 C   0  0  0  0  0  0  0  0  0  0  0  0
   -8.5972    9.0674   -4.3525 O   0  0  0  0  0  0  0  0  0  0  0  0
    6.5421   -4.9262    3.6392 H   0  0  0  0  0  0  0  0  0  0  0  0
    3.0869   -9.5939    3.1046 H   0  0  0  0  0  0  0  0  0  0  0  0
    4.0829  -10.9182    3.7733 H   0  0  0  0  0  0  0  0  0  0  0  0
    3.4805  -11.3296    1.3887 H   0  0  0  0  0  0  0  0  0  0  0  0
    5.2284  -11.1390    1.5668 H   0  0  0  0  0  0  0  0  0  0  0  0
    4.2485   -9.8069    0.9259 H   0  0  0  0  0  0  0  0  0  0  0  0
    8.7261  -10.0315    4.4267 H   0  0  0  0  0  0  0  0  0  0  0  0
    9.2141   -8.3164    4.5610 H   0  0  0  0  0  0  0  0  0  0  0  0
    9.3032   -9.4542    6.7773 H   0  0  0  0  0  0  0  0  0  0  0  0
    8.1041   -8.1569    6.7645 H   0  0  0  0  0  0  0  0  0  0  0  0
    7.5865   -9.8508    6.6484 H   0  0  0  0  0  0  0  0  0  0  0  0
    8.1473   -2.1848    4.1113 H   0  0  0  0  0  0  0  0  0  0  0  0
    9.1706   -2.9757    6.2121 H   0  0  0  0  0  0  0  0  0  0  0  0
    6.6775   -6.1933    8.4386 H   0  0  0  0  0  0  0  0  0  0  0  0
    6.1721   -4.9530    9.6315 H   0  0  0  0  0  0  0  0  0  0  0  0
    7.5653   -6.0011    9.9677 H   0  0  0  0  0  0  0  0  0  0  0  0
    5.3533   -4.3867    7.5296 H   0  0  0  0  0  0  0  0  0  0  0  0
    4.3455   -3.6060    5.4494 H   0  0  0  0  0  0  0  0  0  0  0  0
    5.9267   -1.8418    0.8545 H   0  0  0  0  0  0  0  0  0  0  0  0
    6.3476    0.3714   -0.0619 H   0  0  0  0  0  0  0  0  0  0  0  0
    6.7298    3.9007   -0.8505 H   0  0  0  0  0  0  0  0  0  0  0  0
    7.5045    2.2996   -0.8407 H   0  0  0  0  0  0  0  0  0  0  0  0
    5.7133    2.4465   -0.8102 H   0  0  0  0  0  0  0  0  0  0  0  0
    6.5502    1.9719    3.8970 H   0  0  0  0  0  0  0  0  0  0  0  0
    6.0545   -0.2626    4.8223 H   0  0  0  0  0  0  0  0  0  0  0  0
    0.0335   -4.3359    2.3952 H   0  0  0  0  0  0  0  0  0  0  0  0
   -0.3190   -6.4731    3.5397 H   0  0  0  0  0  0  0  0  0  0  0  0
    0.8191   -9.7856    4.7681 H   0  0  0  0  0  0  0  0  0  0  0  0
   -0.3040   -8.4142    4.8510 H   0  0  0  0  0  0  0  0  0  0  0  0
    1.3785   -8.1614    4.2844 H   0  0  0  0  0  0  0  0  0  0  0  0
    0.6730   -8.5570   -0.0575 H   0  0  0  0  0  0  0  0  0  0  0  0
    1.0222   -6.4050   -1.2085 H   0  0  0  0  0  0  0  0  0  0  0  0
    2.3144   -2.4666   -1.7300 H   0  0  0  0  0  0  0  0  0  0  0  0
    1.6885   -1.8954   -4.0355 H   0  0  0  0  0  0  0  0  0  0  0  0
   -2.2367   -3.1558   -7.1061 H   0  0  0  0  0  0  0  0  0  0  0  0
   -2.7792   -3.1248   -5.4187 H   0  0  0  0  0  0  0  0  0  0  0  0
   -1.8387   -4.5221   -6.0448 H   0  0  0  0  0  0  0  0  0  0  0  0
   -1.7270   -4.4494   -3.7349 H   0  0  0  0  0  0  0  0  0  0  0  0
   -1.1522   -4.9545   -1.4328 H   0  0  0  0  0  0  0  0  0  0  0  0
   -0.1637    0.7704    2.5350 H   0  0  0  0  0  0  0  0  0  0  0  0
    0.1053    0.9276    4.9690 H   0  0  0  0  0  0  0  0  0  0  0  0
    3.9306    2.4205    8.0554 H   0  0  0  0  0  0  0  0  0  0  0  0
    3.9623    3.3534    6.5432 H   0  0  0  0  0  0  0  0  0  0  0  0
    4.6058    1.6791    6.5876 H   0  0  0  0  0  0  0  0  0  0  0  0
    4.0914    2.3794    4.4251 H   0  0  0  0  0  0  0  0  0  0  0  0
    3.8466    2.1727    2.0289 H   0  0  0  0  0  0  0  0  0  0  0  0
    2.3727    0.6526   -1.7252 H   0  0  0  0  0  0  0  0  0  0  0  0
    3.5047    2.0435   -3.3722 H   0  0  0  0  0  0  0  0  0  0  0  0
    5.2107    3.0543   -4.6133 H   0  0  0  0  0  0  0  0  0  0  0  0
    3.5978    3.6970   -5.0665 H   0  0  0  0  0  0  0  0  0  0  0  0
    5.0697    4.6240   -5.4324 H   0  0  0  0  0  0  0  0  0  0  0  0
    3.5842    5.2806   -0.5772 H   0  0  0  0  0  0  0  0  0  0  0  0
    2.4120    3.8863    1.0716 H   0  0  0  0  0  0  0  0  0  0  0  0
   -5.5714   -1.0885   -3.4898 H   0  0  0  0  0  0  0  0  0  0  0  0
   -5.8033   -1.1244   -5.9461 H   0  0  0  0  0  0  0  0  0  0  0  0
   -1.6959   -0.6929   -8.3652 H   0  0  0  0  0  0  0  0  0  0  0  0
   -2.2668    0.9969   -8.5510 H   0  0  0  0  0  0  0  0  0  0  0  0
   -2.5781   -0.1978   -9.8283 H   0  0  0  0  0  0  0  0  0  0  0  0
   -1.8195    0.3914   -6.3274 H   0  0  0  0  0  0  0  0  0  0  0  0
   -1.5817    0.3860   -3.9165 H   0  0  0  0  0  0  0  0  0  0  0  0
   -3.6786   -2.8719   -3.1750 H   0  0  0  0  0  0  0  0  0  0  0  0
   -3.9322   -4.9476   -1.8871 H   0  0  0  0  0  0  0  0  0  0  0  0
   -2.6492   -4.5430    2.5451 H   0  0  0  0  0  0  0  0  0  0  0  0
   -4.3771   -4.6066    3.0302 H   0  0  0  0  0  0  0  0  0  0  0  0
   -3.3921   -6.0853    3.0276 H   0  0  0  0  0  0  0  0  0  0  0  0
   -4.0428   -2.6864    1.7365 H   0  0  0  0  0  0  0  0  0  0  0  0
   -3.8178   -0.6251    0.4557 H   0  0  0  0  0  0  0  0  0  0  0  0
   -4.6202    7.8062   -3.7390 H   0  0  0  0  0  0  0  0  0  0  0  0
   -3.1991    6.9127   -3.1550 H   0  0  0  0  0  0  0  0  0  0  0  0
   -4.1158    7.0118   -0.8240 H   0  0  0  0  0  0  0  0  0  0  0  0
   -3.9044    8.6333   -1.4956 H   0  0  0  0  0  0  0  0  0  0  0  0
   -5.5156    7.9133   -1.4177 H   0  0  0  0  0  0  0  0  0  0  0  0
   -2.4188    4.5892   -2.1627 H   0  0  0  0  0  0  0  0  0  0  0  0
   -7.2530    7.6665   -3.9517 H   0  0  0  0  0  0  0  0  0  0  0  0
  -10.4954    5.5096   -4.5810 H   0  0  0  0  0  0  0  0  0  0  0  0
  -14.1542    9.3279   -6.3297 H   0  0  0  0  0  0  0  0  0  0  0  0
  -14.0292    7.5564   -6.1276 H   0  0  0  0  0  0  0  0  0  0  0  0
  -14.5025    7.7974   -3.7014 H   0  0  0  0  0  0  0  0  0  0  0  0
  -14.6389    9.5551   -3.8920 H   0  0  0  0  0  0  0  0  0  0  0  0
  -15.8128    8.4870   -4.6666 H   0  0  0  0  0  0  0  0  0  0  0  0
   -8.9110   11.1327   -5.0574 H   0  0  0  0  0  0  0  0  0  0  0  0
  -10.4377   11.9192   -5.5468 H   0  0  0  0  0  0  0  0  0  0  0  0
   -9.6155   12.8154   -3.3686 H   0  0  0  0  0  0  0  0  0  0  0  0
  -11.1578   11.9806   -3.1615 H   0  0  0  0  0  0  0  0  0  0  0  0
   -9.6475   11.1864   -2.6816 H   0  0  0  0  0  0  0  0  0  0  0  0
  1  2  2  0  0  0  0
  2  3  1  0  0  0  0
  3  4  2  0  0  0  0
  3  5  1  0  0  0  0
  5  6  1  0  0  0  0
  6  7  1  0  0  0  0
  5  8  1  0  0  0  0
  8  9  2  0  0  0  0
  8 10  1  0  0  0  0
 10 11  1  0  0  0  0
 11 12  1  0  0  0  0
 10 13  1  0  0  0  0
 13 14  2  0  0  0  0
  1 15  1  0  0  0  0
 15 16  2  0  0  0  0
 16 17  1  0  0  0  0
 17 18  1  0  0  0  0
 18 19  2  0  0  0  0
 19 20  1  0  0  0  0
 20 21  2  0  0  0  0
 21 22  1  0  0  0  0
 22 23  1  0  0  0  0
 21 24  1  0  0  0  0
 24 25  2  0  0  0  0
 17 26  1  0  0  0  0
 26 27  2  0  0  0  0
 27 28  1  0  0  0  0
 28 29  2  0  0  0  0
 29 30  1  0  0  0  0
 30 31  1  0  0  0  0
 29 32  1  0  0  0  0
 32 33  2  0  0  0  0
 16 34  1  0  0  0  0
 34 35  1  0  0  0  0
 35 36  1  0  0  0  0
 36 37  2  0  0  0  0
 37 38  1  0  0  0  0
 38 39  1  0  0  0  0
 39 40  2  0  0  0  0
 40 41  1  0  0  0  0
 41 42  2  0  0  0  0
 42 43  1  0  0  0  0
 43 44  1  0  0  0  0
 42 45  1  0  0  0  0
 45 46  2  0  0  0  0
 38 47  1  0  0  0  0
 47 48  2  0  0  0  0
 48 49  1  0  0  0  0
 49 50  2  0  0  0  0
 50 51  1  0  0  0  0
 51 52  1  0  0  0  0
 50 53  1  0  0  0  0
 53 54  2  0  0  0  0
 37 55  1  0  0  0  0
 55 56  1  0  0  0  0
 36 57  1  0  0  0  0
 57 58  2  0  0  0  0
 58 59  1  0  0  0  0
 59 60  1  0  0  0  0
 60 61  2  0  0  0  0
 61 62  1  0  0  0  0
 62 63  2  0  0  0  0
 63 64  1  0  0  0  0
 64 65  1  0  0  0  0
 63 66  1  0  0  0  0
 66 67  2  0  0  0  0
 59 68  1  0  0  0  0
 68 69  2  0  0  0  0
 69 70  1  0  0  0  0
 70 71  2  0  0  0  0
 71 72  1  0  0  0  0
 72 73  1  0  0  0  0
 71 74  1  0  0  0  0
 74 75  2  0  0  0  0
 58 76  1  0  0  0  0
 76 77  1  0  0  0  0
 77 78  1  0  0  0  0
 78 79  2  0  0  0  0
 79 80  1  0  0  0  0
 80 81  1  0  0  0  0
 81 82  2  0  0  0  0
 82 83  1  0  0  0  0
 83 84  2  0  0  0  0
 84 85  1  0  0  0  0
 85 86  1  0  0  0  0
 84 87  1  0  0  0  0
 87 88  2  0  0  0  0
 80 89  1  0  0  0  0
 89 90  2  0  0  0  0
 90 91  1  0  0  0  0
 91 92  2  0  0  0  0
 92 93  1  0  0  0  0
 93 94  1  0  0  0  0
 92 95  1  0  0  0  0
 95 96  2  0  0  0  0
 79 97  1  0  0  0  0
 97 98  1  0  0  0  0
 78 99  1  0  0  0  0
 99100  1  0  0  0  0
100101  1  0  0  0  0
101102  1  0  0  0  0
102103  2  0  0  0  0
103104  1  0  0  0  0
104105  1  0  0  0  0
105106  1  0  0  0  0
104107  1  0  0  0  0
107108  1  0  0  0  0
103109  1  0  0  0  0
109110  2  0  0  0  0
110111  1  0  0  0  0
110112  1  0  0  0  0
112113  2  0  0  0  0
113114  1  0  0  0  0
114115  2  0  0  0  0
114116  1  0  0  0  0
116117  1  0  0  0  0
117118  1  0  0  0  0
116119  1  0  0  0  0
119120  2  0  0  0  0
119121  1  0  0  0  0
121122  1  0  0  0  0
122123  1  0  0  0  0
121124  1  0  0  0  0
124125  2  0  0  0  0
 13  2  1  0  0  0  0
 56 15  1  0  0  0  0
 98 57  1  0  0  0  0
108 99  2  0  0  0  0
124113  1  0  0  0  0
 25 18  1  0  0  0  0
 33 26  1  0  0  0  0
 55 34  2  0  0  0  0
 67 60  1  0  0  0  0
 75 68  1  0  0  0  0
 97 76  2  0  0  0  0
107101  2  0  0  0  0
 46 39  1  0  0  0  0
 54 47  1  0  0  0  0
 88 81  1  0  0  0  0
 96 89  1  0  0  0  0
111102  1  0  0  0  0
  1126  1  0  0  0  0
  6127  1  0  0  0  0
  6128  1  0  0  0  0
  7129  1  0  0  0  0
  7130  1  0  0  0  0
  7131  1  0  0  0  0
 11132  1  0  0  0  0
 11133  1  0  0  0  0
 12134  1  0  0  0  0
 12135  1  0  0  0  0
 12136  1  0  0  0  0
 19137  1  0  0  0  0
 20138  1  0  0  0  0
 23139  1  0  0  0  0
 23140  1  0  0  0  0
 23141  1  0  0  0  0
 24142  1  0  0  0  0
 25143  1  0  0  0  0
 27144  1  0  0  0  0
 28145  1  0  0  0  0
 31146  1  0  0  0  0
 31147  1  0  0  0  0
 31148  1  0  0  0  0
 32149  1  0  0  0  0
 33150  1  0  0  0  0
 40151  1  0  0  0  0
 41152  1  0  0  0  0
 44153  1  0  0  0  0
 44154  1  0  0  0  0
 44155  1  0  0  0  0
 45156  1  0  0  0  0
 46157  1  0  0  0  0
 48158  1  0  0  0  0
 49159  1  0  0  0  0
 52160  1  0  0  0  0
 52161  1  0  0  0  0
 52162  1  0  0  0  0
 53163  1  0  0  0  0
 54164  1  0  0  0  0
 61165  1  0  0  0  0
 62166  1  0  0  0  0
 65167  1  0  0  0  0
 65168  1  0  0  0  0
 65169  1  0  0  0  0
 66170  1  0  0  0  0
 67171  1  0  0  0  0
 69172  1  0  0  0  0
 70173  1  0  0  0  0
 73174  1  0  0  0  0
 73175  1  0  0  0  0
 73176  1  0  0  0  0
 74177  1  0  0  0  0
 75178  1  0  0  0  0
 82179  1  0  0  0  0
 83180  1  0  0  0  0
 86181  1  0  0  0  0
 86182  1  0  0  0  0
 86183  1  0  0  0  0
 87184  1  0  0  0  0
 88185  1  0  0  0  0
 90186  1  0  0  0  0
 91187  1  0  0  0  0
 94188  1  0  0  0  0
 94189  1  0  0  0  0
 94190  1  0  0  0  0
 95191  1  0  0  0  0
 96192  1  0  0  0  0
105193  1  0  0  0  0
105194  1  0  0  0  0
106195  1  0  0  0  0
106196  1  0  0  0  0
106197  1  0  0  0  0
108198  1  0  0  0  0
109199  1  0  0  0  0
112200  1  0  0  0  0
117201  1  0  0  0  0
117202  1  0  0  0  0
118203  1  0  0  0  0
118204  1  0  0  0  0
118205  1  0  0  0  0
122206  1  0  0  0  0
122207  1  0  0  0  0
123208  1  0  0  0  0
123209  1  0  0  0  0
123210  1  0  0  0  0
M  END
