
  xtb     02112204103D
 energy: -266.715151196393 gnorm: 0.000275835440 xtb: 6.4.1 (unknown)
160173  0     0  0            999 V2000
   -2.1419   -4.5418   10.6882 C   0  0  0  0  0  0  0  0  0  0  0  0
   -1.4563   -3.8407   11.6245 C   0  0  0  0  0  0  0  0  0  0  0  0
   -2.0024   -3.8449   12.9915 C   0  0  0  0  0  0  0  0  0  0  0  0
   -2.9153   -4.5645   13.3387 O   0  0  0  0  0  0  0  0  0  0  0  0
   -1.4376   -2.9343   13.8685 N   0  0  0  0  0  0  0  0  0  0  0  0
   -2.0121   -2.8780   15.2092 C   0  0  0  0  0  0  0  0  0  0  0  0
   -1.2214   -3.7398   16.1840 C   0  0  0  0  0  0  0  0  0  0  0  0
   -0.3807   -2.1210   13.5600 C   0  0  0  0  0  0  0  0  0  0  0  0
    0.1692   -1.0084   14.6474 S   0  0  0  0  0  0  0  0  0  0  0  0
    0.2263   -2.2686   12.3442 N   0  0  0  0  0  0  0  0  0  0  0  0
    1.4384   -1.5079   12.0544 C   0  0  0  0  0  0  0  0  0  0  0  0
    2.6741   -2.1919   12.6226 C   0  0  0  0  0  0  0  0  0  0  0  0
   -0.1715   -3.1777   11.3719 C   0  0  0  0  0  0  0  0  0  0  0  0
    0.5369   -3.4018   10.4145 O   0  0  0  0  0  0  0  0  0  0  0  0
   -1.8988   -4.5968    9.2664 C   0  0  0  0  0  0  0  0  0  0  0  0
   -1.5151   -3.4580    8.5405 C   0  0  0  0  0  0  0  0  0  0  0  0
   -1.3063   -3.5776    7.1901 C   0  0  0  0  0  0  0  0  0  0  0  0
   -0.9151   -2.5302    6.2099 C   0  0  0  0  0  0  0  0  0  0  0  0
   -0.6887   -1.3632    6.4195 O   0  0  0  0  0  0  0  0  0  0  0  0
   -0.8844   -3.2444    4.9068 C   0  0  0  0  0  0  0  0  0  0  0  0
   -1.1984   -4.6038    5.1047 C   0  0  0  0  0  0  0  0  0  0  0  0
   -1.4621   -4.8102    6.5225 C   0  0  0  0  0  0  0  0  0  0  0  0
   -1.8607   -5.9290    7.2301 C   0  0  0  0  0  0  0  0  0  0  0  0
   -2.0945   -5.8054    8.5915 C   0  0  0  0  0  0  0  0  0  0  0  0
   -1.2309   -5.4653    4.0244 C   0  0  0  0  0  0  0  0  0  0  0  0
   -1.0421   -4.9453    2.7517 C   0  0  0  0  0  0  0  0  0  0  0  0
   -0.8206   -3.5840    2.5442 C   0  0  0  0  0  0  0  0  0  0  0  0
   -0.6726   -2.7321    3.6519 C   0  0  0  0  0  0  0  0  0  0  0  0
   -0.8264   -3.0216    1.2101 C   0  0  0  0  0  0  0  0  0  0  0  0
   -1.4518   -1.8553    0.8033 C   0  0  0  0  0  0  0  0  0  0  0  0
   -2.2275   -1.0162    1.5865 N   0  0  0  0  0  0  0  0  0  0  0  0
   -2.9570   -1.4989    2.6800 C   0  0  0  0  0  0  0  0  0  0  0  0
   -3.0362   -0.7514    3.8566 C   0  0  0  0  0  0  0  0  0  0  0  0
   -3.6334   -1.2818    4.9769 C   0  0  0  0  0  0  0  0  0  0  0  0
   -4.1640   -2.5699    4.9526 C   0  0  0  0  0  0  0  0  0  0  0  0
   -4.7904   -3.1936    6.4821 S   0  0  0  0  0  0  0  0  0  0  0  0
   -5.1609   -4.9333    6.1182 C   0  0  0  0  0  0  0  0  0  0  0  0
   -4.1652   -3.2830    3.7617 C   0  0  0  0  0  0  0  0  0  0  0  0
   -3.5750   -2.7462    2.6349 C   0  0  0  0  0  0  0  0  0  0  0  0
   -2.2392    0.3564    1.2840 C   0  0  0  0  0  0  0  0  0  0  0  0
   -3.4322    1.0775    1.3217 C   0  0  0  0  0  0  0  0  0  0  0  0
   -3.4507    2.4023    0.9488 C   0  0  0  0  0  0  0  0  0  0  0  0
   -2.2837    3.0364    0.5241 C   0  0  0  0  0  0  0  0  0  0  0  0
   -2.4303    4.7191    0.0141 S   0  0  0  0  0  0  0  0  0  0  0  0
   -0.8956    5.0218   -0.9090 C   0  0  0  0  0  0  0  0  0  0  0  0
   -1.0859    2.3357    0.5317 C   0  0  0  0  0  0  0  0  0  0  0  0
   -1.0660    1.0084    0.9144 C   0  0  0  0  0  0  0  0  0  0  0  0
   -1.2332   -1.6302   -0.5823 C   0  0  0  0  0  0  0  0  0  0  0  0
   -1.6553   -0.3564   -1.6694 S   0  0  0  0  0  0  0  0  0  0  0  0
   -0.7995   -1.1553   -2.9722 C   0  0  0  0  0  0  0  0  0  0  0  0
   -0.1995   -2.3350   -2.5735 C   0  0  0  0  0  0  0  0  0  0  0  0
    0.6606   -3.0964   -3.3564 N   0  0  0  0  0  0  0  0  0  0  0  0
    0.6530   -4.4880   -3.2318 C   0  0  0  0  0  0  0  0  0  0  0  0
   -0.5332   -5.1664   -2.9452 C   0  0  0  0  0  0  0  0  0  0  0  0
   -0.5319   -6.5340   -2.7898 C   0  0  0  0  0  0  0  0  0  0  0  0
    0.6477   -7.2615   -2.9297 C   0  0  0  0  0  0  0  0  0  0  0  0
    0.5216   -9.0093   -2.7068 S   0  0  0  0  0  0  0  0  0  0  0  0
    2.2326   -9.5965   -2.8540 C   0  0  0  0  0  0  0  0  0  0  0  0
    1.8262   -6.5942   -3.2350 C   0  0  0  0  0  0  0  0  0  0  0  0
    1.8279   -5.2207   -3.3781 C   0  0  0  0  0  0  0  0  0  0  0  0
    1.5274   -2.4440   -4.2435 C   0  0  0  0  0  0  0  0  0  0  0  0
    2.1325   -1.2403   -3.8761 C   0  0  0  0  0  0  0  0  0  0  0  0
    2.8507   -0.5125   -4.7948 C   0  0  0  0  0  0  0  0  0  0  0  0
    3.0021   -0.9759   -6.1007 C   0  0  0  0  0  0  0  0  0  0  0  0
    3.8468    0.1021   -7.2149 S   0  0  0  0  0  0  0  0  0  0  0  0
    3.7043   -0.7348   -8.8195 C   0  0  0  0  0  0  0  0  0  0  0  0
    2.4833   -2.2158   -6.4451 C   0  0  0  0  0  0  0  0  0  0  0  0
    1.7486   -2.9399   -5.5249 C   0  0  0  0  0  0  0  0  0  0  0  0
   -0.4776   -2.6065   -1.2082 C   0  0  0  0  0  0  0  0  0  0  0  0
   -0.0438   -3.8710   -0.1131 S   0  0  0  0  0  0  0  0  0  0  0  0
   -0.6399   -0.4619   -4.2363 C   0  0  0  0  0  0  0  0  0  0  0  0
   -0.2854    0.8939   -4.2199 C   0  0  0  0  0  0  0  0  0  0  0  0
    0.0655    1.4983   -5.4014 C   0  0  0  0  0  0  0  0  0  0  0  0
    0.6015    2.8656   -5.6261 C   0  0  0  0  0  0  0  0  0  0  0  0
    0.7769    3.7347   -4.8055 O   0  0  0  0  0  0  0  0  0  0  0  0
    0.8892    2.9092   -7.0846 C   0  0  0  0  0  0  0  0  0  0  0  0
    0.5337    1.6758   -7.6694 C   0  0  0  0  0  0  0  0  0  0  0  0
    0.0265    0.7985   -6.6236 C   0  0  0  0  0  0  0  0  0  0  0  0
   -0.4146   -0.5105   -6.6527 C   0  0  0  0  0  0  0  0  0  0  0  0
   -0.7380   -1.1331   -5.4562 C   0  0  0  0  0  0  0  0  0  0  0  0
    0.7392    1.4720   -9.0205 C   0  0  0  0  0  0  0  0  0  0  0  0
    1.2942    2.4975   -9.7716 C   0  0  0  0  0  0  0  0  0  0  0  0
    1.6093    3.7364   -9.2064 C   0  0  0  0  0  0  0  0  0  0  0  0
    1.4179    3.9325   -7.8291 C   0  0  0  0  0  0  0  0  0  0  0  0
    2.1707    4.7710  -10.0422 C   0  0  0  0  0  0  0  0  0  0  0  0
    1.9473    6.1063   -9.9718 C   0  0  0  0  0  0  0  0  0  0  0  0
    0.8772    6.7136   -9.1708 C   0  0  0  0  0  0  0  0  0  0  0  0
   -0.0704    6.1022   -8.7272 O   0  0  0  0  0  0  0  0  0  0  0  0
    0.9867    8.0859   -8.9818 N   0  0  0  0  0  0  0  0  0  0  0  0
    0.0182    8.6888   -8.0706 C   0  0  0  0  0  0  0  0  0  0  0  0
    0.5437    8.7062   -6.6414 C   0  0  0  0  0  0  0  0  0  0  0  0
    1.9290    8.8755   -9.5787 C   0  0  0  0  0  0  0  0  0  0  0  0
    2.0555   10.4746   -9.1933 S   0  0  0  0  0  0  0  0  0  0  0  0
    2.7442    8.3192  -10.5282 N   0  0  0  0  0  0  0  0  0  0  0  0
    3.6361    9.1830  -11.2954 C   0  0  0  0  0  0  0  0  0  0  0  0
    2.9047    9.8366  -12.4598 C   0  0  0  0  0  0  0  0  0  0  0  0
    2.7776    6.9684  -10.8288 C   0  0  0  0  0  0  0  0  0  0  0  0
    3.4914    6.5389  -11.7105 O   0  0  0  0  0  0  0  0  0  0  0  0
   -2.9827   -5.1198   11.0599 H   0  0  0  0  0  0  0  0  0  0  0  0
   -2.0202   -1.8370   15.5358 H   0  0  0  0  0  0  0  0  0  0  0  0
   -3.0354   -3.2476   15.1252 H   0  0  0  0  0  0  0  0  0  0  0  0
   -0.2000   -3.3769   16.2724 H   0  0  0  0  0  0  0  0  0  0  0  0
   -1.2052   -4.7729   15.8449 H   0  0  0  0  0  0  0  0  0  0  0  0
   -1.6893   -3.7003   17.1631 H   0  0  0  0  0  0  0  0  0  0  0  0
    1.5143   -1.4431   10.9677 H   0  0  0  0  0  0  0  0  0  0  0  0
    1.3222   -0.5090   12.4776 H   0  0  0  0  0  0  0  0  0  0  0  0
    2.7792   -3.1874   12.1980 H   0  0  0  0  0  0  0  0  0  0  0  0
    2.6039   -2.2691   13.7051 H   0  0  0  0  0  0  0  0  0  0  0  0
    3.5561   -1.6098   12.3728 H   0  0  0  0  0  0  0  0  0  0  0  0
   -1.4174   -2.4981    9.0209 H   0  0  0  0  0  0  0  0  0  0  0  0
   -1.9968   -6.8817    6.7397 H   0  0  0  0  0  0  0  0  0  0  0  0
   -2.4060   -6.6716    9.1575 H   0  0  0  0  0  0  0  0  0  0  0  0
   -1.4303   -6.5187    4.1543 H   0  0  0  0  0  0  0  0  0  0  0  0
   -1.1088   -5.5969    1.8920 H   0  0  0  0  0  0  0  0  0  0  0  0
   -0.4089   -1.6943    3.5225 H   0  0  0  0  0  0  0  0  0  0  0  0
   -2.5919    0.2311    3.8988 H   0  0  0  0  0  0  0  0  0  0  0  0
   -3.6625   -0.7168    5.8954 H   0  0  0  0  0  0  0  0  0  0  0  0
   -4.2756   -5.4190    5.7191 H   0  0  0  0  0  0  0  0  0  0  0  0
   -5.9978   -5.0028    5.4294 H   0  0  0  0  0  0  0  0  0  0  0  0
   -5.4306   -5.3790    7.0704 H   0  0  0  0  0  0  0  0  0  0  0  0
   -4.6162   -4.2597    3.6961 H   0  0  0  0  0  0  0  0  0  0  0  0
   -3.5719   -3.3125    1.7154 H   0  0  0  0  0  0  0  0  0  0  0  0
   -4.3426    0.5841    1.6278 H   0  0  0  0  0  0  0  0  0  0  0  0
   -4.3747    2.9594    0.9607 H   0  0  0  0  0  0  0  0  0  0  0  0
   -0.7617    4.2534   -1.6642 H   0  0  0  0  0  0  0  0  0  0  0  0
   -1.0286    5.9867   -1.3881 H   0  0  0  0  0  0  0  0  0  0  0  0
   -0.0477    5.0650   -0.2317 H   0  0  0  0  0  0  0  0  0  0  0  0
   -0.1619    2.8108    0.2440 H   0  0  0  0  0  0  0  0  0  0  0  0
   -0.1295    0.4691    0.9223 H   0  0  0  0  0  0  0  0  0  0  0  0
   -1.4566   -4.6145   -2.8500 H   0  0  0  0  0  0  0  0  0  0  0  0
   -1.4479   -7.0582   -2.5642 H   0  0  0  0  0  0  0  0  0  0  0  0
    2.1895  -10.6665   -2.6758 H   0  0  0  0  0  0  0  0  0  0  0  0
    2.8530   -9.1215   -2.0997 H   0  0  0  0  0  0  0  0  0  0  0  0
    2.6091   -9.4057   -3.8548 H   0  0  0  0  0  0  0  0  0  0  0  0
    2.7551   -7.1282   -3.3542 H   0  0  0  0  0  0  0  0  0  0  0  0
    2.7517   -4.7065   -3.5984 H   0  0  0  0  0  0  0  0  0  0  0  0
    2.0127   -0.8685   -2.8698 H   0  0  0  0  0  0  0  0  0  0  0  0
    3.2937    0.4319   -4.5184 H   0  0  0  0  0  0  0  0  0  0  0  0
    4.1346   -0.0507   -9.5440 H   0  0  0  0  0  0  0  0  0  0  0  0
    2.6578   -0.9077   -9.0506 H   0  0  0  0  0  0  0  0  0  0  0  0
    4.2677   -1.6632   -8.8101 H   0  0  0  0  0  0  0  0  0  0  0  0
    2.6211   -2.6222   -7.4340 H   0  0  0  0  0  0  0  0  0  0  0  0
    1.3180   -3.8881   -5.8117 H   0  0  0  0  0  0  0  0  0  0  0  0
   -0.2333    1.4338   -3.2862 H   0  0  0  0  0  0  0  0  0  0  0  0
   -0.4888   -1.0547   -7.5821 H   0  0  0  0  0  0  0  0  0  0  0  0
   -1.0655   -2.1621   -5.4620 H   0  0  0  0  0  0  0  0  0  0  0  0
    0.4760    0.5356   -9.4898 H   0  0  0  0  0  0  0  0  0  0  0  0
    1.4585    2.3531  -10.8298 H   0  0  0  0  0  0  0  0  0  0  0  0
    1.7080    4.8560   -7.3543 H   0  0  0  0  0  0  0  0  0  0  0  0
    2.8721    4.4523  -10.8074 H   0  0  0  0  0  0  0  0  0  0  0  0
   -0.1921    9.7025   -8.4142 H   0  0  0  0  0  0  0  0  0  0  0  0
   -0.8869    8.0817   -8.1310 H   0  0  0  0  0  0  0  0  0  0  0  0
    1.4602    9.2883   -6.5793 H   0  0  0  0  0  0  0  0  0  0  0  0
    0.7383    7.6933   -6.2966 H   0  0  0  0  0  0  0  0  0  0  0  0
   -0.1987    9.1575   -5.9898 H   0  0  0  0  0  0  0  0  0  0  0  0
    4.4418    8.5475  -11.6663 H   0  0  0  0  0  0  0  0  0  0  0  0
    4.0418    9.9407  -10.6230 H   0  0  0  0  0  0  0  0  0  0  0  0
    2.0983   10.4696  -12.0971 H   0  0  0  0  0  0  0  0  0  0  0  0
    3.6002   10.4505  -13.0243 H   0  0  0  0  0  0  0  0  0  0  0  0
    2.4928    9.0767  -13.1197 H   0  0  0  0  0  0  0  0  0  0  0  0
  1  2  2  0  0  0  0
  2  3  1  0  0  0  0
  3  4  2  0  0  0  0
  3  5  1  0  0  0  0
  5  6  1  0  0  0  0
  6  7  1  0  0  0  0
  5  8  1  0  0  0  0
  8  9  2  0  0  0  0
  8 10  1  0  0  0  0
 10 11  1  0  0  0  0
 11 12  1  0  0  0  0
 10 13  1  0  0  0  0
 13 14  2  0  0  0  0
  1 15  1  0  0  0  0
 15 16  2  0  0  0  0
 16 17  1  0  0  0  0
 17 18  1  0  0  0  0
 18 19  2  0  0  0  0
 18 20  1  0  0  0  0
 20 21  2  0  0  0  0
 21 22  1  0  0  0  0
 22 23  1  0  0  0  0
 23 24  2  0  0  0  0
 21 25  1  0  0  0  0
 25 26  2  0  0  0  0
 26 27  1  0  0  0  0
 27 28  2  0  0  0  0
 27 29  1  0  0  0  0
 29 30  2  0  0  0  0
 30 31  1  0  0  0  0
 31 32  1  0  0  0  0
 32 33  2  0  0  0  0
 33 34  1  0  0  0  0
 34 35  2  0  0  0  0
 35 36  1  0  0  0  0
 36 37  1  0  0  0  0
 35 38  1  0  0  0  0
 38 39  2  0  0  0  0
 31 40  1  0  0  0  0
 40 41  2  0  0  0  0
 41 42  1  0  0  0  0
 42 43  2  0  0  0  0
 43 44  1  0  0  0  0
 44 45  1  0  0  0  0
 43 46  1  0  0  0  0
 46 47  2  0  0  0  0
 30 48  1  0  0  0  0
 48 49  1  0  0  0  0
 49 50  1  0  0  0  0
 50 51  2  0  0  0  0
 51 52  1  0  0  0  0
 52 53  1  0  0  0  0
 53 54  2  0  0  0  0
 54 55  1  0  0  0  0
 55 56  2  0  0  0  0
 56 57  1  0  0  0  0
 57 58  1  0  0  0  0
 56 59  1  0  0  0  0
 59 60  2  0  0  0  0
 52 61  1  0  0  0  0
 61 62  2  0  0  0  0
 62 63  1  0  0  0  0
 63 64  2  0  0  0  0
 64 65  1  0  0  0  0
 65 66  1  0  0  0  0
 64 67  1  0  0  0  0
 67 68  2  0  0  0  0
 51 69  1  0  0  0  0
 69 70  1  0  0  0  0
 50 71  1  0  0  0  0
 71 72  2  0  0  0  0
 72 73  1  0  0  0  0
 73 74  1  0  0  0  0
 74 75  2  0  0  0  0
 74 76  1  0  0  0  0
 76 77  2  0  0  0  0
 77 78  1  0  0  0  0
 78 79  1  0  0  0  0
 79 80  2  0  0  0  0
 77 81  1  0  0  0  0
 81 82  2  0  0  0  0
 82 83  1  0  0  0  0
 83 84  2  0  0  0  0
 83 85  1  0  0  0  0
 85 86  2  0  0  0  0
 86 87  1  0  0  0  0
 87 88  2  0  0  0  0
 87 89  1  0  0  0  0
 89 90  1  0  0  0  0
 90 91  1  0  0  0  0
 89 92  1  0  0  0  0
 92 93  2  0  0  0  0
 92 94  1  0  0  0  0
 94 95  1  0  0  0  0
 95 96  1  0  0  0  0
 94 97  1  0  0  0  0
 97 98  2  0  0  0  0
 13  2  1  0  0  0  0
 24 15  1  0  0  0  0
 70 29  1  0  0  0  0
 80 71  1  0  0  0  0
 97 86  1  0  0  0  0
 22 17  2  0  0  0  0
 39 32  1  0  0  0  0
 47 40  1  0  0  0  0
 69 48  2  0  0  0  0
 78 73  2  0  0  0  0
 28 20  1  0  0  0  0
 60 53  1  0  0  0  0
 68 61  1  0  0  0  0
 84 76  1  0  0  0  0
  1 99  1  0  0  0  0
  6100  1  0  0  0  0
  6101  1  0  0  0  0
  7102  1  0  0  0  0
  7103  1  0  0  0  0
  7104  1  0  0  0  0
 11105  1  0  0  0  0
 11106  1  0  0  0  0
 12107  1  0  0  0  0
 12108  1  0  0  0  0
 12109  1  0  0  0  0
 16110  1  0  0  0  0
 23111  1  0  0  0  0
 24112  1  0  0  0  0
 25113  1  0  0  0  0
 26114  1  0  0  0  0
 28115  1  0  0  0  0
 33116  1  0  0  0  0
 34117  1  0  0  0  0
 37118  1  0  0  0  0
 37119  1  0  0  0  0
 37120  1  0  0  0  0
 38121  1  0  0  0  0
 39122  1  0  0  0  0
 41123  1  0  0  0  0
 42124  1  0  0  0  0
 45125  1  0  0  0  0
 45126  1  0  0  0  0
 45127  1  0  0  0  0
 46128  1  0  0  0  0
 47129  1  0  0  0  0
 54130  1  0  0  0  0
 55131  1  0  0  0  0
 58132  1  0  0  0  0
 58133  1  0  0  0  0
 58134  1  0  0  0  0
 59135  1  0  0  0  0
 60136  1  0  0  0  0
 62137  1  0  0  0  0
 63138  1  0  0  0  0
 66139  1  0  0  0  0
 66140  1  0  0  0  0
 66141  1  0  0  0  0
 67142  1  0  0  0  0
 68143  1  0  0  0  0
 72144  1  0  0  0  0
 79145  1  0  0  0  0
 80146  1  0  0  0  0
 81147  1  0  0  0  0
 82148  1  0  0  0  0
 84149  1  0  0  0  0
 85150  1  0  0  0  0
 90151  1  0  0  0  0
 90152  1  0  0  0  0
 91153  1  0  0  0  0
 91154  1  0  0  0  0
 91155  1  0  0  0  0
 95156  1  0  0  0  0
 95157  1  0  0  0  0
 96158  1  0  0  0  0
 96159  1  0  0  0  0
 96160  1  0  0  0  0
M  END
