160

C         -2.14190       -4.54180       10.68820
C         -1.45630       -3.84070       11.62450
C         -2.00240       -3.84490       12.99150
O         -2.91530       -4.56450       13.33870
N         -1.43760       -2.93430       13.86850
C         -2.01210       -2.87800       15.20920
C         -1.22140       -3.73980       16.18400
C         -0.38070       -2.12100       13.56000
S          0.16920       -1.00840       14.64740
N          0.22630       -2.26860       12.34420
C          1.43840       -1.50790       12.05440
C          2.67410       -2.19190       12.62260
C         -0.17150       -3.17770       11.37190
O          0.53690       -3.40180       10.41450
C         -1.89880       -4.59680        9.26640
C         -1.51510       -3.45800        8.54050
C         -1.30630       -3.57760        7.19010
C         -0.91510       -2.53020        6.20990
O         -0.68870       -1.36320        6.41950
C         -0.88440       -3.24440        4.90680
C         -1.19840       -4.60380        5.10470
C         -1.46210       -4.81020        6.52250
C         -1.86070       -5.92900        7.23010
C         -2.09450       -5.80540        8.59150
C         -1.23090       -5.46530        4.02440
C         -1.04210       -4.94530        2.75170
C         -0.82060       -3.58400        2.54420
C         -0.67260       -2.73210        3.65190
C         -0.82640       -3.02160        1.21010
C         -1.45180       -1.85530        0.80330
N         -2.22750       -1.01620        1.58650
C         -2.95700       -1.49890        2.68000
C         -3.03620       -0.75140        3.85660
C         -3.63340       -1.28180        4.97690
C         -4.16400       -2.56990        4.95260
S         -4.79040       -3.19360        6.48210
C         -5.16090       -4.93330        6.11820
C         -4.16520       -3.28300        3.76170
C         -3.57500       -2.74620        2.63490
C         -2.23920        0.35640        1.28400
C         -3.43220        1.07750        1.32170
C         -3.45070        2.40230        0.94880
C         -2.28370        3.03640        0.52410
S         -2.43030        4.71910        0.01410
C         -0.89560        5.02180       -0.90900
C         -1.08590        2.33570        0.53170
C         -1.06600        1.00840        0.91440
C         -1.23320       -1.63020       -0.58230
S         -1.65530       -0.35640       -1.66940
C         -0.79950       -1.15530       -2.97220
C         -0.19950       -2.33500       -2.57350
N          0.66060       -3.09640       -3.35640
C          0.65300       -4.48800       -3.23180
C         -0.53320       -5.16640       -2.94520
C         -0.53190       -6.53400       -2.78980
C          0.64770       -7.26150       -2.92970
S          0.52160       -9.00930       -2.70680
C          2.23260       -9.59650       -2.85400
C          1.82620       -6.59420       -3.23500
C          1.82790       -5.22070       -3.37810
C          1.52740       -2.44400       -4.24350
C          2.13250       -1.24030       -3.87610
C          2.85070       -0.51250       -4.79480
C          3.00210       -0.97590       -6.10070
S          3.84680        0.10210       -7.21490
C          3.70430       -0.73480       -8.81950
C          2.48330       -2.21580       -6.44510
C          1.74860       -2.93990       -5.52490
C         -0.47760       -2.60650       -1.20820
S         -0.04380       -3.87100       -0.11310
C         -0.63990       -0.46190       -4.23630
C         -0.28540        0.89390       -4.21990
C          0.06550        1.49830       -5.40140
C          0.60150        2.86560       -5.62610
O          0.77690        3.73470       -4.80550
C          0.88920        2.90920       -7.08460
C          0.53370        1.67580       -7.66940
C          0.02650        0.79850       -6.62360
C         -0.41460       -0.51050       -6.65270
C         -0.73800       -1.13310       -5.45620
C          0.73920        1.47200       -9.02050
C          1.29420        2.49750       -9.77160
C          1.60930        3.73640       -9.20640
C          1.41790        3.93250       -7.82910
C          2.17070        4.77100      -10.04220
C          1.94730        6.10630       -9.97180
C          0.87720        6.71360       -9.17080
O         -0.07040        6.10220       -8.72720
N          0.98670        8.08590       -8.98180
C          0.01820        8.68880       -8.07060
C          0.54370        8.70620       -6.64140
C          1.92900        8.87550       -9.57870
S          2.05550       10.47460       -9.19330
N          2.74420        8.31920      -10.52820
C          3.63610        9.18300      -11.29540
C          2.90470        9.83660      -12.45980
C          2.77760        6.96840      -10.82880
O          3.49140        6.53890      -11.71050
H         -2.98270       -5.11980       11.05990
H         -2.02020       -1.83700       15.53580
H         -3.03540       -3.24760       15.12520
H         -0.20000       -3.37690       16.27240
H         -1.20520       -4.77290       15.84490
H         -1.68930       -3.70030       17.16310
H          1.51430       -1.44310       10.96770
H          1.32220       -0.50900       12.47760
H          2.77920       -3.18740       12.19800
H          2.60390       -2.26910       13.70510
H          3.55610       -1.60980       12.37280
H         -1.41740       -2.49810        9.02090
H         -1.99680       -6.88170        6.73970
H         -2.40600       -6.67160        9.15750
H         -1.43030       -6.51870        4.15430
H         -1.10880       -5.59690        1.89200
H         -0.40890       -1.69430        3.52250
H         -2.59190        0.23110        3.89880
H         -3.66250       -0.71680        5.89540
H         -4.27560       -5.41900        5.71910
H         -5.99780       -5.00280        5.42940
H         -5.43060       -5.37900        7.07040
H         -4.61620       -4.25970        3.69610
H         -3.57190       -3.31250        1.71540
H         -4.34260        0.58410        1.62780
H         -4.37470        2.95940        0.96070
H         -0.76170        4.25340       -1.66420
H         -1.02860        5.98670       -1.38810
H         -0.04770        5.06500       -0.23170
H         -0.16190        2.81080        0.24400
H         -0.12950        0.46910        0.92230
H         -1.45660       -4.61450       -2.85000
H         -1.44790       -7.05820       -2.56420
H          2.18950      -10.66650       -2.67580
H          2.85300       -9.12150       -2.09970
H          2.60910       -9.40570       -3.85480
H          2.75510       -7.12820       -3.35420
H          2.75170       -4.70650       -3.59840
H          2.01270       -0.86850       -2.86980
H          3.29370        0.43190       -4.51840
H          4.13460       -0.05070       -9.54400
H          2.65780       -0.90770       -9.05060
H          4.26770       -1.66320       -8.81010
H          2.62110       -2.62220       -7.43400
H          1.31800       -3.88810       -5.81170
H         -0.23330        1.43380       -3.28620
H         -0.48880       -1.05470       -7.58210
H         -1.06550       -2.16210       -5.46200
H          0.47600        0.53560       -9.48980
H          1.45850        2.35310      -10.82980
H          1.70800        4.85600       -7.35430
H          2.87210        4.45230      -10.80740
H         -0.19210        9.70250       -8.41420
H         -0.88690        8.08170       -8.13100
H          1.46020        9.28830       -6.57930
H          0.73830        7.69330       -6.29660
H         -0.19870        9.15750       -5.98980
H          4.44180        8.54750      -11.66630
H          4.04180        9.94070      -10.62300
H          2.09830       10.46960      -12.09710
H          3.60020       10.45050      -13.02430
H          2.49280        9.07670      -13.11970
