158

C         -4.57510       -3.08480        9.15490
C         -5.79430       -3.69270        9.29240
C         -6.76720       -4.03510        8.25950
O         -6.53370       -4.12940        7.06830
N         -8.06530       -4.26290        8.70370
C         -9.07710       -4.45780        7.67010
C         -9.25690       -5.93270        7.33710
C         -8.42830       -4.40350       10.01320
S        -10.00300       -4.65710       10.43900
N         -7.44610       -4.35850       10.95820
C         -7.78320       -4.60850       12.35580
C         -8.21950       -3.33090       13.05990
C         -6.13140       -4.00970       10.69370
O         -5.32170       -3.96060       11.59760
C         -3.82180       -2.49560        8.09060
C         -4.13120       -2.60810        6.73050
C         -3.32630       -1.96220        5.81370
N         -3.41980       -1.94650        4.44140
C         -4.39280       -2.66600        3.66170
C         -3.91730       -4.08180        3.33860
C         -2.36760       -1.22170        3.94380
C         -1.59510       -0.71060        5.01960
C         -2.20170       -1.19320        6.21590
C         -1.88620       -1.09680        7.57010
C         -2.68180       -1.74540        8.48010
C         -0.48130        0.08310        4.76070
C         -0.10780        0.28970        3.45600
C         -0.82020       -0.29380        2.39070
C         -1.98680       -1.01060        2.62880
C         -0.28100       -0.21350        1.04670
C          1.03640       -0.41280        0.66900
N          2.08180       -0.77080        1.50610
C          3.36730       -0.31050        1.17970
C          3.54910        1.00050        0.73650
C          4.78760        1.42640        0.31370
C          5.87500        0.55690        0.33440
S          7.39890        1.19440       -0.28780
C          8.46660       -0.27000       -0.39800
C          5.71220       -0.72930        0.83230
C          4.46710       -1.15920        1.24810
C          1.86370       -1.57490        2.62940
C          0.90330       -2.58340        2.60990
C          0.57020       -3.26570        3.76240
C          1.20680       -2.96210        4.95760
S          0.78850       -3.68540        6.51290
C         -0.73790       -4.60270        6.16760
C          2.23880       -2.02600        4.96000
C          2.56570       -1.34000        3.81240
C          1.19050       -0.26350       -0.73200
S          2.56000       -0.26490       -1.78740
C          1.51690        0.04290       -3.16480
C          0.17800        0.23850       -2.79400
N         -0.82260        0.73270       -3.59720
C         -2.13650        0.30830       -3.35850
C         -2.39010       -1.02980       -3.06970
C         -3.67450       -1.46330       -2.80950
C         -4.73020       -0.56150       -2.84090
S         -6.40920       -0.99070       -2.51660
C         -6.37750       -2.79940       -2.35520
C         -4.48020        0.77790       -3.14050
C         -3.19940        1.21110       -3.39620
C         -0.54360        1.63100       -4.63160
C          0.50900        2.53880       -4.52100
C          0.87340        3.33770       -5.58380
C          0.16990        3.26350       -6.78170
S          0.57880        4.17870       -8.22210
C          2.03550        5.14070       -7.73660
C         -0.93580        2.41600       -6.86980
C         -1.29050        1.61170       -5.81130
C          0.01290        0.01720       -1.40630
S         -1.33750        0.07470       -0.32230
C          2.11960        0.10120       -4.44430
C          1.47850       -0.20570       -5.66400
C          2.10900        0.03090       -6.94570
N          1.33480       -0.36590       -7.95350
S         -0.01660       -1.00270       -7.36390
N          0.28360       -0.78400       -5.79960
C          3.37790        0.64380       -7.07610
C          4.07970        0.78930       -5.85690
N          5.35320        1.15240       -5.71170
S          5.73960        1.14090       -4.15250
N          4.32170        0.66020       -3.56870
C          3.47430        0.48170       -4.58100
C          3.89460        0.97130       -8.34760
C          4.86100        1.90250       -8.63610
C          5.47170        1.84030       -9.96020
O          5.07420        1.12950      -10.86070
N          6.61450        2.62030      -10.12840
C          7.29910        2.50400      -11.41060
C          6.87870        3.61570      -12.36280
C          7.11100        3.46550       -9.18030
S          8.53400        4.27200       -9.42560
N          6.39070        3.65890       -8.03710
C          6.81840        4.67610       -7.08550
C          6.33650        6.06180       -7.49610
C          5.20730        2.99340       -7.74410
O          4.50110        3.38980       -6.83020
H         -4.08550       -2.97200       10.12080
H        -10.01370       -4.02990        8.03060
H         -8.73760       -3.91300        6.78790
H         -9.59070       -6.48160        8.21430
H         -8.31830       -6.35520        6.98660
H        -10.00370       -6.03930        6.55590
H         -6.88340       -5.00720       12.82730
H         -8.57970       -5.35340       12.38470
H         -7.42210       -2.59250       13.02390
H         -8.44690       -3.55030       14.09890
H         -9.10910       -2.92090       12.58770
H         -4.96900       -3.20490        6.41820
H         -5.32590       -2.70950        4.22830
H         -4.57540       -2.10770        2.73960
H         -2.97500       -4.05030        2.79520
H         -3.77450       -4.64840        4.25590
H         -4.65660       -4.59340        2.72880
H         -1.02390       -0.53260        7.88930
H         -2.44450       -1.67990        9.53130
H          0.08440        0.51220        5.57270
H          0.75100        0.90260        3.23160
H         -2.53720       -1.42900        1.79950
H          2.70720        1.67680        0.71230
H          4.92640        2.43350       -0.04730
H          9.36930        0.06270       -0.90070
H          8.71390       -0.63250        0.59560
H          7.97440       -1.03690       -0.98840
H          6.54290       -1.41420        0.88720
H          4.33900       -2.16740        1.61350
H          0.39740       -2.81960        1.68550
H         -0.19070       -4.02830        3.71600
H         -1.10450       -4.93630        7.13340
H         -1.46520       -3.94020        5.70900
H         -0.52690       -5.46200        5.53700
H          2.75890       -1.82290        5.88340
H          3.34230       -0.59000        3.83130
H         -1.57120       -1.73330       -3.06560
H         -3.83730       -2.50620       -2.59110
H         -5.97600       -3.24370       -3.26110
H         -5.80030       -3.08890       -1.48180
H         -7.41320       -3.09820       -2.22620
H         -5.30570        1.47250       -3.16150
H         -3.01040        2.25020       -3.61930
H          1.06140        2.60990       -3.59580
H          1.71390        4.00190       -5.47180
H          2.82090        4.47540       -7.38540
H          1.76100        5.86600       -6.97560
H          2.35560        5.65580       -8.63760
H         -1.49530        2.38120       -7.79200
H         -2.12310        0.93070       -5.90350
H          3.50200        0.40310       -9.18380
H          7.02240        1.53230      -11.82330
H          8.37500        2.53900      -11.23120
H          7.38070        3.48480      -13.31690
H          7.15090        4.58730      -11.95710
H          5.80380        3.58390      -12.52460
H          7.90770        4.65240       -7.02750
H          6.39020        4.39910       -6.12070
H          6.75820        6.33870       -8.45940
H          5.25100        6.07780       -7.56340
H          6.65370        6.79090       -6.75620
