
  xtb     02162203463D
 energy: -281.508962246029 gnorm: 0.000283663718 xtb: 6.4.1 (unknown)
172184  0     0  0            999 V2000
   -2.2884   -0.6679   11.6846 C   0  0  0  0  0  0  0  0  0  0  0  0
   -3.5088   -0.2310   12.1208 C   0  0  0  0  0  0  0  0  0  0  0  0
   -4.4809    0.5418   11.3515 C   0  0  0  0  0  0  0  0  0  0  0  0
   -4.3834    0.8151   10.1712 O   0  0  0  0  0  0  0  0  0  0  0  0
   -5.5827    1.0148   12.0615 N   0  0  0  0  0  0  0  0  0  0  0  0
   -6.5253    1.8358   11.3074 C   0  0  0  0  0  0  0  0  0  0  0  0
   -6.1697    3.3135   11.4016 C   0  0  0  0  0  0  0  0  0  0  0  0
   -5.8069    0.8114   13.3925 C   0  0  0  0  0  0  0  0  0  0  0  0
   -7.1180    1.4774   14.1448 S   0  0  0  0  0  0  0  0  0  0  0  0
   -4.9257    0.0347   14.0863 N   0  0  0  0  0  0  0  0  0  0  0  0
   -5.1559   -0.2159   15.5053 C   0  0  0  0  0  0  0  0  0  0  0  0
   -4.5730    0.8973   16.3654 C   0  0  0  0  0  0  0  0  0  0  0  0
   -3.7633   -0.4936   13.5473 C   0  0  0  0  0  0  0  0  0  0  0  0
   -3.0108   -1.1454   14.2441 O   0  0  0  0  0  0  0  0  0  0  0  0
   -1.6134   -0.6441   10.4210 C   0  0  0  0  0  0  0  0  0  0  0  0
   -2.2635   -0.6623    9.1851 C   0  0  0  0  0  0  0  0  0  0  0  0
   -1.4974   -0.5975    8.0370 C   0  0  0  0  0  0  0  0  0  0  0  0
   -1.9069   -0.5528    6.7283 N   0  0  0  0  0  0  0  0  0  0  0  0
   -3.2746   -0.6310    6.2891 C   0  0  0  0  0  0  0  0  0  0  0  0
   -3.7306   -2.0831    6.1565 C   0  0  0  0  0  0  0  0  0  0  0  0
   -0.7985   -0.4600    5.9284 C   0  0  0  0  0  0  0  0  0  0  0  0
    0.3679   -0.4476    6.7375 C   0  0  0  0  0  0  0  0  0  0  0  0
   -0.0798   -0.5335    8.0898 C   0  0  0  0  0  0  0  0  0  0  0  0
    0.5641   -0.5628    9.3255 C   0  0  0  0  0  0  0  0  0  0  0  0
   -0.1973   -0.6336   10.4651 C   0  0  0  0  0  0  0  0  0  0  0  0
    1.6228   -0.3449    6.1442 C   0  0  0  0  0  0  0  0  0  0  0  0
    1.7037   -0.2423    4.7756 C   0  0  0  0  0  0  0  0  0  0  0  0
    0.5485   -0.2354    3.9762 C   0  0  0  0  0  0  0  0  0  0  0  0
   -0.7105   -0.3539    4.5490 C   0  0  0  0  0  0  0  0  0  0  0  0
    0.6821   -0.0715    2.5252 C   0  0  0  0  0  0  0  0  0  0  0  0
   -0.0987    0.8112    1.8113 C   0  0  0  0  0  0  0  0  0  0  0  0
   -1.0273    1.5641    2.4347 F   0  0  0  0  0  0  0  0  0  0  0  0
    0.0191    0.9665    0.4234 C   0  0  0  0  0  0  0  0  0  0  0  0
   -0.8296    1.8205   -0.1837 F   0  0  0  0  0  0  0  0  0  0  0  0
    0.9197    0.2378   -0.3247 C   0  0  0  0  0  0  0  0  0  0  0  0
    1.7864   -0.6388    0.3868 C   0  0  0  0  0  0  0  0  0  0  0  0
    2.7806   -1.2640   -0.2676 N   0  0  0  0  0  0  0  0  0  0  0  0
    3.5522   -2.1034    0.3784 C   0  0  0  0  0  0  0  0  0  0  0  0
    4.6900   -2.6931   -0.4007 C   0  0  0  0  0  0  0  0  0  0  0  0
    4.4327   -4.1404   -0.8248 C   0  0  0  0  0  0  0  0  0  0  0  0
    3.3125   -2.3867    1.7550 C   0  0  0  0  0  0  0  0  0  0  0  0
    2.4027   -1.7206    2.4184 N   0  0  0  0  0  0  0  0  0  0  0  0
    1.6424   -0.8131    1.7860 C   0  0  0  0  0  0  0  0  0  0  0  0
    4.0504   -3.4222    2.5497 C   0  0  0  0  0  0  0  0  0  0  0  0
    3.1366   -4.6178    2.8278 C   0  0  0  0  0  0  0  0  0  0  0  0
    0.9596    0.2977   -1.7700 C   0  0  0  0  0  0  0  0  0  0  0  0
    0.9736   -0.7866   -2.6299 C   0  0  0  0  0  0  0  0  0  0  0  0
    0.8555   -2.1107   -2.2430 N   0  0  0  0  0  0  0  0  0  0  0  0
    0.0897   -2.4504   -1.1248 C   0  0  0  0  0  0  0  0  0  0  0  0
    0.5009   -3.4553   -0.2485 C   0  0  0  0  0  0  0  0  0  0  0  0
   -0.2074   -3.7063    0.9063 C   0  0  0  0  0  0  0  0  0  0  0  0
   -1.3465   -2.9671    1.2116 C   0  0  0  0  0  0  0  0  0  0  0  0
   -2.1469   -3.2981    2.7512 S   0  0  0  0  0  0  0  0  0  0  0  0
   -3.8407   -2.6963    2.4611 C   0  0  0  0  0  0  0  0  0  0  0  0
   -1.7914   -2.0014    0.3194 C   0  0  0  0  0  0  0  0  0  0  0  0
   -1.0861   -1.7569   -0.8403 C   0  0  0  0  0  0  0  0  0  0  0  0
    1.5012   -3.0810   -3.0180 C   0  0  0  0  0  0  0  0  0  0  0  0
    2.7457   -2.7997   -3.5772 C   0  0  0  0  0  0  0  0  0  0  0  0
    3.3437   -3.6893   -4.4453 C   0  0  0  0  0  0  0  0  0  0  0  0
    2.7014   -4.8758   -4.7695 C   0  0  0  0  0  0  0  0  0  0  0  0
    3.3566   -6.0180   -5.9459 S   0  0  0  0  0  0  0  0  0  0  0  0
    4.3484   -4.9259   -7.0092 C   0  0  0  0  0  0  0  0  0  0  0  0
    1.4943   -5.1954   -4.1545 C   0  0  0  0  0  0  0  0  0  0  0  0
    0.8966   -4.3081   -3.2862 C   0  0  0  0  0  0  0  0  0  0  0  0
    1.0126   -0.3639   -3.9837 C   0  0  0  0  0  0  0  0  0  0  0  0
    1.1412   -1.1961   -5.4900 S   0  0  0  0  0  0  0  0  0  0  0  0
    1.0440    0.3387   -6.3597 C   0  0  0  0  0  0  0  0  0  0  0  0
    0.9985    1.4487   -5.4718 C   0  0  0  0  0  0  0  0  0  0  0  0
    0.9902    2.7651   -5.8416 N   0  0  0  0  0  0  0  0  0  0  0  0
    0.3646    3.7164   -5.0188 C   0  0  0  0  0  0  0  0  0  0  0  0
   -0.8474    3.4221   -4.3988 C   0  0  0  0  0  0  0  0  0  0  0  0
   -1.4350    4.3274   -3.5395 C   0  0  0  0  0  0  0  0  0  0  0  0
   -0.8214    5.5492   -3.2940 C   0  0  0  0  0  0  0  0  0  0  0  0
   -1.4657    6.7465   -2.1731 S   0  0  0  0  0  0  0  0  0  0  0  0
   -2.5642    5.7623   -1.1120 C   0  0  0  0  0  0  0  0  0  0  0  0
    0.3575    5.8723   -3.9644 C   0  0  0  0  0  0  0  0  0  0  0  0
    0.9474    4.9667   -4.8173 C   0  0  0  0  0  0  0  0  0  0  0  0
    1.6205    3.1983   -7.0261 C   0  0  0  0  0  0  0  0  0  0  0  0
    2.9021    2.7506   -7.3428 C   0  0  0  0  0  0  0  0  0  0  0  0
    3.4495    3.0496   -8.5705 C   0  0  0  0  0  0  0  0  0  0  0  0
    2.7270    3.8009   -9.4927 C   0  0  0  0  0  0  0  0  0  0  0  0
    3.4059    4.0254  -11.1057 S   0  0  0  0  0  0  0  0  0  0  0  0
    1.8938    3.9766  -12.1165 C   0  0  0  0  0  0  0  0  0  0  0  0
    1.4961    4.3361   -9.1351 C   0  0  0  0  0  0  0  0  0  0  0  0
    0.9456    4.0389   -7.9059 C   0  0  0  0  0  0  0  0  0  0  0  0
    0.9747    1.0172   -4.1332 C   0  0  0  0  0  0  0  0  0  0  0  0
    0.9178    1.8334   -2.6044 S   0  0  0  0  0  0  0  0  0  0  0  0
    0.9217    0.4458   -7.7387 C   0  0  0  0  0  0  0  0  0  0  0  0
    0.9951   -0.4687   -8.7757 C   0  0  0  0  0  0  0  0  0  0  0  0
    1.2949   -1.8670   -8.6168 C   0  0  0  0  0  0  0  0  0  0  0  0
    1.5920   -2.3939   -7.5505 O   0  0  0  0  0  0  0  0  0  0  0  0
    1.2458   -2.6456   -9.7660 N   0  0  0  0  0  0  0  0  0  0  0  0
    1.4225   -4.0831   -9.5910 C   0  0  0  0  0  0  0  0  0  0  0  0
    0.0851   -4.7853   -9.3996 C   0  0  0  0  0  0  0  0  0  0  0  0
    1.0106   -2.1498  -11.0165 C   0  0  0  0  0  0  0  0  0  0  0  0
    0.9016   -3.1586  -12.3202 S   0  0  0  0  0  0  0  0  0  0  0  0
    0.8864   -0.7989  -11.1651 N   0  0  0  0  0  0  0  0  0  0  0  0
    0.7393   -0.2363  -12.5018 C   0  0  0  0  0  0  0  0  0  0  0  0
   -0.7227   -0.1650  -12.9212 C   0  0  0  0  0  0  0  0  0  0  0  0
    0.8168    0.0956  -10.1052 C   0  0  0  0  0  0  0  0  0  0  0  0
    0.6332    1.2832  -10.3212 O   0  0  0  0  0  0  0  0  0  0  0  0
   -1.6890   -1.0839   12.4923 H   0  0  0  0  0  0  0  0  0  0  0  0
   -7.5258    1.6562   11.7030 H   0  0  0  0  0  0  0  0  0  0  0  0
   -6.4726    1.5037   10.2693 H   0  0  0  0  0  0  0  0  0  0  0  0
   -6.2144    3.6494   12.4348 H   0  0  0  0  0  0  0  0  0  0  0  0
   -6.8764    3.8947   10.8165 H   0  0  0  0  0  0  0  0  0  0  0  0
   -5.1683    3.4837   11.0131 H   0  0  0  0  0  0  0  0  0  0  0  0
   -4.6679   -1.1639   15.7376 H   0  0  0  0  0  0  0  0  0  0  0  0
   -6.2315   -0.3022   15.6659 H   0  0  0  0  0  0  0  0  0  0  0  0
   -5.0484    1.8471   16.1321 H   0  0  0  0  0  0  0  0  0  0  0  0
   -4.7433    0.6717   17.4138 H   0  0  0  0  0  0  0  0  0  0  0  0
   -3.5025    0.9814   16.1941 H   0  0  0  0  0  0  0  0  0  0  0  0
   -3.3348   -0.7318    9.1371 H   0  0  0  0  0  0  0  0  0  0  0  0
   -3.3581   -0.1188    5.3279 H   0  0  0  0  0  0  0  0  0  0  0  0
   -3.8997   -0.1016    7.0135 H   0  0  0  0  0  0  0  0  0  0  0  0
   -3.0972   -2.6127    5.4479 H   0  0  0  0  0  0  0  0  0  0  0  0
   -4.7608   -2.1218    5.8125 H   0  0  0  0  0  0  0  0  0  0  0  0
   -3.6661   -2.5873    7.1178 H   0  0  0  0  0  0  0  0  0  0  0  0
    1.6416   -0.5336    9.3806 H   0  0  0  0  0  0  0  0  0  0  0  0
    0.2858   -0.6507   11.4307 H   0  0  0  0  0  0  0  0  0  0  0  0
    2.5143   -0.3361    6.7524 H   0  0  0  0  0  0  0  0  0  0  0  0
    2.6639   -0.1443    4.2963 H   0  0  0  0  0  0  0  0  0  0  0  0
   -1.5913   -0.3766    3.9279 H   0  0  0  0  0  0  0  0  0  0  0  0
    5.6030   -2.6427    0.1970 H   0  0  0  0  0  0  0  0  0  0  0  0
    4.8266   -2.0823   -1.2937 H   0  0  0  0  0  0  0  0  0  0  0  0
    4.2766   -4.7853    0.0355 H   0  0  0  0  0  0  0  0  0  0  0  0
    3.5590   -4.1955   -1.4690 H   0  0  0  0  0  0  0  0  0  0  0  0
    5.2868   -4.5155   -1.3835 H   0  0  0  0  0  0  0  0  0  0  0  0
    4.9529   -3.7474    2.0350 H   0  0  0  0  0  0  0  0  0  0  0  0
    4.3309   -2.9752    3.5053 H   0  0  0  0  0  0  0  0  0  0  0  0
    2.2501   -4.2820    3.3597 H   0  0  0  0  0  0  0  0  0  0  0  0
    3.6557   -5.3537    3.4368 H   0  0  0  0  0  0  0  0  0  0  0  0
    2.8256   -5.0930    1.8995 H   0  0  0  0  0  0  0  0  0  0  0  0
    1.3900   -4.0246   -0.4718 H   0  0  0  0  0  0  0  0  0  0  0  0
    0.1232   -4.4695    1.5936 H   0  0  0  0  0  0  0  0  0  0  0  0
   -3.8759   -1.6115    2.5103 H   0  0  0  0  0  0  0  0  0  0  0  0
   -4.4480   -3.1188    3.2549 H   0  0  0  0  0  0  0  0  0  0  0  0
   -4.1891   -3.0554    1.4979 H   0  0  0  0  0  0  0  0  0  0  0  0
   -2.6829   -1.4281    0.5180 H   0  0  0  0  0  0  0  0  0  0  0  0
   -1.4437   -1.0076   -1.5309 H   0  0  0  0  0  0  0  0  0  0  0  0
    3.2395   -1.8739   -3.3244 H   0  0  0  0  0  0  0  0  0  0  0  0
    4.3055   -3.4459   -4.8664 H   0  0  0  0  0  0  0  0  0  0  0  0
    3.8033   -3.9985   -7.1601 H   0  0  0  0  0  0  0  0  0  0  0  0
    5.3210   -4.7407   -6.5615 H   0  0  0  0  0  0  0  0  0  0  0  0
    4.4750   -5.4519   -7.9506 H   0  0  0  0  0  0  0  0  0  0  0  0
    1.0161   -6.1337   -4.3900 H   0  0  0  0  0  0  0  0  0  0  0  0
   -0.0570   -4.5447   -2.8376 H   0  0  0  0  0  0  0  0  0  0  0  0
   -1.3315    2.4766   -4.5938 H   0  0  0  0  0  0  0  0  0  0  0  0
   -2.3698    4.0706   -3.0690 H   0  0  0  0  0  0  0  0  0  0  0  0
   -2.7797    6.3875   -0.2511 H   0  0  0  0  0  0  0  0  0  0  0  0
   -2.0489    4.8597   -0.7977 H   0  0  0  0  0  0  0  0  0  0  0  0
   -3.4877    5.5296   -1.6343 H   0  0  0  0  0  0  0  0  0  0  0  0
    0.8141    6.8340   -3.7889 H   0  0  0  0  0  0  0  0  0  0  0  0
    1.8738    5.2102   -5.3154 H   0  0  0  0  0  0  0  0  0  0  0  0
    3.4393    2.1316   -6.6399 H   0  0  0  0  0  0  0  0  0  0  0  0
    4.4279    2.6824   -8.8391 H   0  0  0  0  0  0  0  0  0  0  0  0
    1.4240    4.9553  -12.1482 H   0  0  0  0  0  0  0  0  0  0  0  0
    1.2270    3.2314  -11.6922 H   0  0  0  0  0  0  0  0  0  0  0  0
    2.2052    3.6886  -13.1158 H   0  0  0  0  0  0  0  0  0  0  0  0
    0.9499    4.9626   -9.8213 H   0  0  0  0  0  0  0  0  0  0  0  0
   -0.0283    4.4208   -7.6380 H   0  0  0  0  0  0  0  0  0  0  0  0
    0.7113    1.4445   -8.1053 H   0  0  0  0  0  0  0  0  0  0  0  0
    2.0400   -4.2188   -8.7033 H   0  0  0  0  0  0  0  0  0  0  0  0
    1.9399   -4.4738  -10.4683 H   0  0  0  0  0  0  0  0  0  0  0  0
   -0.5441   -4.6530  -10.2765 H   0  0  0  0  0  0  0  0  0  0  0  0
    0.2546   -5.8472   -9.2480 H   0  0  0  0  0  0  0  0  0  0  0  0
   -0.4261   -4.3845   -8.5271 H   0  0  0  0  0  0  0  0  0  0  0  0
    1.1705    0.7658  -12.4671 H   0  0  0  0  0  0  0  0  0  0  0  0
    1.3066   -0.8584  -13.1955 H   0  0  0  0  0  0  0  0  0  0  0  0
   -1.2839    0.4469  -12.2190 H   0  0  0  0  0  0  0  0  0  0  0  0
   -0.7959    0.2777  -13.9103 H   0  0  0  0  0  0  0  0  0  0  0  0
   -1.1554   -1.1620  -12.9524 H   0  0  0  0  0  0  0  0  0  0  0  0
  1  2  2  0  0  0  0
  2  3  1  0  0  0  0
  3  4  2  0  0  0  0
  3  5  1  0  0  0  0
  5  6  1  0  0  0  0
  6  7  1  0  0  0  0
  5  8  1  0  0  0  0
  8  9  2  0  0  0  0
  8 10  1  0  0  0  0
 10 11  1  0  0  0  0
 11 12  1  0  0  0  0
 10 13  1  0  0  0  0
 13 14  2  0  0  0  0
  1 15  1  0  0  0  0
 15 16  2  0  0  0  0
 16 17  1  0  0  0  0
 17 18  1  0  0  0  0
 18 19  1  0  0  0  0
 19 20  1  0  0  0  0
 18 21  1  0  0  0  0
 21 22  2  0  0  0  0
 22 23  1  0  0  0  0
 23 24  1  0  0  0  0
 24 25  2  0  0  0  0
 22 26  1  0  0  0  0
 26 27  2  0  0  0  0
 27 28  1  0  0  0  0
 28 29  2  0  0  0  0
 28 30  1  0  0  0  0
 30 31  2  0  0  0  0
 31 32  1  0  0  0  0
 31 33  1  0  0  0  0
 33 34  1  0  0  0  0
 33 35  2  0  0  0  0
 35 36  1  0  0  0  0
 36 37  2  0  0  0  0
 37 38  1  0  0  0  0
 38 39  1  0  0  0  0
 39 40  1  0  0  0  0
 38 41  2  0  0  0  0
 41 42  1  0  0  0  0
 42 43  2  0  0  0  0
 41 44  1  0  0  0  0
 44 45  1  0  0  0  0
 35 46  1  0  0  0  0
 46 47  2  0  0  0  0
 47 48  1  0  0  0  0
 48 49  1  0  0  0  0
 49 50  2  0  0  0  0
 50 51  1  0  0  0  0
 51 52  2  0  0  0  0
 52 53  1  0  0  0  0
 53 54  1  0  0  0  0
 52 55  1  0  0  0  0
 55 56  2  0  0  0  0
 48 57  1  0  0  0  0
 57 58  2  0  0  0  0
 58 59  1  0  0  0  0
 59 60  2  0  0  0  0
 60 61  1  0  0  0  0
 61 62  1  0  0  0  0
 60 63  1  0  0  0  0
 63 64  2  0  0  0  0
 47 65  1  0  0  0  0
 65 66  1  0  0  0  0
 66 67  1  0  0  0  0
 67 68  2  0  0  0  0
 68 69  1  0  0  0  0
 69 70  1  0  0  0  0
 70 71  2  0  0  0  0
 71 72  1  0  0  0  0
 72 73  2  0  0  0  0
 73 74  1  0  0  0  0
 74 75  1  0  0  0  0
 73 76  1  0  0  0  0
 76 77  2  0  0  0  0
 69 78  1  0  0  0  0
 78 79  2  0  0  0  0
 79 80  1  0  0  0  0
 80 81  2  0  0  0  0
 81 82  1  0  0  0  0
 82 83  1  0  0  0  0
 81 84  1  0  0  0  0
 84 85  2  0  0  0  0
 68 86  1  0  0  0  0
 86 87  1  0  0  0  0
 67 88  1  0  0  0  0
 88 89  2  0  0  0  0
 89 90  1  0  0  0  0
 90 91  2  0  0  0  0
 90 92  1  0  0  0  0
 92 93  1  0  0  0  0
 93 94  1  0  0  0  0
 92 95  1  0  0  0  0
 95 96  2  0  0  0  0
 95 97  1  0  0  0  0
 97 98  1  0  0  0  0
 98 99  1  0  0  0  0
 97100  1  0  0  0  0
100101  2  0  0  0  0
 13  2  1  0  0  0  0
 25 15  1  0  0  0  0
 43 30  1  0  0  0  0
 87 46  1  0  0  0  0
100 89  1  0  0  0  0
 23 17  2  0  0  0  0
 43 36  1  0  0  0  0
 56 49  1  0  0  0  0
 64 57  1  0  0  0  0
 86 65  2  0  0  0  0
 29 21  1  0  0  0  0
 77 70  1  0  0  0  0
 85 78  1  0  0  0  0
  1102  1  0  0  0  0
  6103  1  0  0  0  0
  6104  1  0  0  0  0
  7105  1  0  0  0  0
  7106  1  0  0  0  0
  7107  1  0  0  0  0
 11108  1  0  0  0  0
 11109  1  0  0  0  0
 12110  1  0  0  0  0
 12111  1  0  0  0  0
 12112  1  0  0  0  0
 16113  1  0  0  0  0
 19114  1  0  0  0  0
 19115  1  0  0  0  0
 20116  1  0  0  0  0
 20117  1  0  0  0  0
 20118  1  0  0  0  0
 24119  1  0  0  0  0
 25120  1  0  0  0  0
 26121  1  0  0  0  0
 27122  1  0  0  0  0
 29123  1  0  0  0  0
 39124  1  0  0  0  0
 39125  1  0  0  0  0
 40126  1  0  0  0  0
 40127  1  0  0  0  0
 40128  1  0  0  0  0
 44129  1  0  0  0  0
 44130  1  0  0  0  0
 45131  1  0  0  0  0
 45132  1  0  0  0  0
 45133  1  0  0  0  0
 50134  1  0  0  0  0
 51135  1  0  0  0  0
 54136  1  0  0  0  0
 54137  1  0  0  0  0
 54138  1  0  0  0  0
 55139  1  0  0  0  0
 56140  1  0  0  0  0
 58141  1  0  0  0  0
 59142  1  0  0  0  0
 62143  1  0  0  0  0
 62144  1  0  0  0  0
 62145  1  0  0  0  0
 63146  1  0  0  0  0
 64147  1  0  0  0  0
 71148  1  0  0  0  0
 72149  1  0  0  0  0
 75150  1  0  0  0  0
 75151  1  0  0  0  0
 75152  1  0  0  0  0
 76153  1  0  0  0  0
 77154  1  0  0  0  0
 79155  1  0  0  0  0
 80156  1  0  0  0  0
 83157  1  0  0  0  0
 83158  1  0  0  0  0
 83159  1  0  0  0  0
 84160  1  0  0  0  0
 85161  1  0  0  0  0
 88162  1  0  0  0  0
 93163  1  0  0  0  0
 93164  1  0  0  0  0
 94165  1  0  0  0  0
 94166  1  0  0  0  0
 94167  1  0  0  0  0
 98168  1  0  0  0  0
 98169  1  0  0  0  0
 99170  1  0  0  0  0
 99171  1  0  0  0  0
 99172  1  0  0  0  0
M  END
