163

C          1.82890        0.93720        6.71470
C          2.25330        2.19690        6.97760
C          1.89970        3.36230        6.10150
O          1.30110        3.32570        5.04860
C          2.31400        4.53520        6.86770
C          2.91210        4.12490        8.10550
C          3.33700        5.17560        8.85750
S          3.00740        6.67220        8.06260
C          2.27840        5.88390        6.68680
C          1.74780        6.64600        5.53700
C          2.90910        2.68150        8.17880
C          3.52940        1.92730        9.14060
C          4.16870        2.53070       10.24290
N          4.68240        3.01380       11.14800
C          3.63720        0.52540        9.12490
N          3.78430       -0.61360        9.16110
C          1.47810        0.53050        5.38240
C          2.34530        0.58510        4.30400
N          3.67440        1.04290        4.40830
C          3.91320        2.39660        4.11390
C          3.39660        2.94790        2.94590
C          3.58500        4.28350        2.64790
C          4.30630        5.09400        3.51060
S          4.61000        6.81450        3.22600
C          4.19140        7.03420        1.47300
C          4.81230        4.55510        4.69000
C          4.60880        3.22760        4.99440
C          4.58660        0.26720        5.12600
C          5.94570        0.60030        5.13760
C          6.83570       -0.10130        5.91850
C          6.40660       -1.17970        6.68820
S          7.58330       -1.96690        7.74180
C          6.51930       -2.77510        8.97320
C          5.09010       -1.59900        6.57760
C          4.19450       -0.88700        5.80510
C          1.76620        0.00700        3.15850
S          2.25570       -0.15000        1.50920
C          0.71940       -0.87210        1.11060
C         -0.14860       -0.94360        2.18520
N         -1.47830       -1.31640        2.08380
C         -2.07320       -2.04450        3.11790
C         -1.32100       -2.95650        3.85970
C         -1.90010       -3.65210        4.89640
C         -3.24420       -3.46420        5.21210
S         -3.87070       -4.41270        6.56310
C         -5.63300       -3.98140        6.62430
C         -3.99890       -2.56680        4.46880
C         -3.41590       -1.86080        3.43470
C         -2.19480       -0.93280        0.94090
C         -3.08230       -1.80900        0.32100
C         -3.71370       -1.45300       -0.85490
C         -3.46980       -0.21180       -1.42620
S         -4.19030        0.29870       -2.95970
C         -5.83980       -0.46170       -2.87150
C         -2.60550        0.67830       -0.79750
C         -1.98030        0.32660        0.37770
C          0.47290       -0.46150        3.36250
S         -0.02920       -0.26280        5.00230
C          0.41470       -1.20990       -0.26380
C         -0.13920       -2.41810       -0.63070
F         -0.33790       -3.36860        0.29950
C         -0.48290       -2.70740       -1.95960
F         -0.93320       -3.94030       -2.23190
C         -0.31050       -1.78600       -2.97030
C          0.21490       -0.51390       -2.61760
N          0.30160        0.45210       -3.54640
C          0.78650        1.62240       -3.21670
C          0.78510        2.65520       -4.30130
C         -0.53700        3.42720       -4.28120
C          1.22180        1.87990       -1.88470
N          1.11430        0.95730       -0.96190
C          0.61020       -0.24410       -1.28600
C          1.84390        3.17030       -1.44360
C          3.36390        3.10160       -1.61160
C         -0.71290       -2.02490       -4.35760
C          0.10970       -1.72650       -5.43330
O          1.42230       -1.37500       -5.29160
C          2.27890       -2.21740       -4.52890
C          3.37040       -1.37120       -3.89340
C         -0.38500       -1.79150       -6.77320
O          0.38500       -1.47560       -7.84350
C          1.03730       -0.20700       -7.86800
C          0.02870        0.92720       -8.01290
C         -1.64500       -2.31630       -7.06230
C         -2.47870       -2.67200       -5.97560
C         -2.01650       -2.49790       -4.62680
N         -2.95810       -2.78860       -3.73270
S         -4.28200       -3.24860       -4.52060
N         -3.74470       -3.06850       -6.02420
C         -2.07830       -2.36330       -8.42800
C         -2.89370       -3.28710       -8.99170
C         -3.23180       -4.61990       -8.40400
O         -2.78480       -5.11790       -7.39510
C         -4.11460       -5.24810       -9.39260
C         -4.24360       -4.39710      -10.53900
C         -5.03310       -4.93560      -11.50770
S         -5.62640       -6.48290      -11.02770
C         -4.79420       -6.42130       -9.49120
C         -4.88290       -7.52060       -8.50450
C         -3.48140       -3.18760      -10.32110
C         -3.39480       -2.14390      -11.20540
C         -2.68830       -0.94370      -10.99920
N         -2.14120        0.06170      -10.89700
C         -4.04450       -2.19080      -12.45610
N         -4.56570       -2.21630      -13.47830
H          1.77440        0.19300        7.50010
H          3.81090        5.18180        9.81870
H          1.31580        5.95090        4.82060
H          2.54660        7.20870        5.05350
H          0.98700        7.35510        5.86120
H          2.83650        2.33150        2.26200
H          3.16070        4.67700        1.73830
H          3.11860        6.94670        1.32670
H          4.73270        6.30470        0.87780
H          4.51650        8.03760        1.21620
H          5.35500        5.19240        5.37210
H          4.98640        2.83140        5.92600
H          6.30240        1.42100        4.53450
H          7.87580        0.18540        5.94520
H          5.72190       -2.09390        9.25680
H          6.11990       -3.70310        8.57370
H          7.15650       -2.98740        9.82590
H          4.74120       -2.47560        7.09710
H          3.18300       -1.25240        5.73690
H         -0.28700       -3.13040        3.60450
H         -1.32040       -4.35870        5.46990
H         -6.05130       -4.57990        7.42750
H         -6.11120       -4.24060        5.68420
H         -5.75170       -2.92600        6.85190
H         -5.04070       -2.39780        4.68840
H         -4.00610       -1.15440        2.86980
H         -3.25170       -2.78540        0.74950
H         -4.36750       -2.16060       -1.33750
H         -6.26620       -0.26840       -1.89210
H         -5.77930       -1.52870       -3.06830
H         -6.43430        0.02040       -3.64090
H         -2.43350        1.64860       -1.23850
H         -1.31390        1.02440        0.86260
H          0.87790        2.13600       -5.25540
H          1.62400        3.34170       -4.18740
H         -0.66440        3.95760       -3.33950
H         -0.56090        4.15020       -5.09240
H         -1.37000        2.73870       -4.40200
H          1.44110        4.00920       -2.01040
H          1.61050        3.30980       -0.38710
H          3.81990        4.03640       -1.29460
H          3.63190        2.92150       -2.65070
H          3.76750        2.29410       -1.00550
H          2.72530       -2.95160       -5.21510
H          1.72000       -2.76060       -3.76190
H          2.94500       -0.67140       -3.17890
H          3.89470       -0.80770       -4.66050
H          4.07800       -2.01420       -3.37810
H          1.64630       -0.06550       -6.97220
H          1.68500       -0.26160       -8.74600
H         -0.57270        0.79390       -8.90980
H          0.55550        1.87480       -8.08620
H         -0.63140        0.95500       -7.14730
H         -1.68410       -1.56750       -9.04700
H         -5.30760       -4.54280      -12.46620
H         -4.26000       -7.27730       -7.64680
H         -4.54330       -8.45900       -8.94170
H         -5.91210       -7.66010       -8.17410
