
  xtb     02122207593D
 energy: -369.295337183881 gnorm: 0.000775935845 xtb: 6.4.1 (unknown)
222242  0     0  0            999 V2000
   -7.2518   -4.4397    2.9707 C   0  0  0  0  0  0  0  0  0  0  0  0
   -8.1038   -5.3110    2.3239 C   0  0  0  0  0  0  0  0  0  0  0  0
   -8.1389   -5.4601    0.8533 C   0  0  0  0  0  0  0  0  0  0  0  0
   -7.2957   -5.0896    0.0480 O   0  0  0  0  0  0  0  0  0  0  0  0
   -9.4385   -6.0668    0.5675 C   0  0  0  0  0  0  0  0  0  0  0  0
  -10.1089   -6.3681    1.8000 C   0  0  0  0  0  0  0  0  0  0  0  0
  -11.3241   -6.9382    1.6157 C   0  0  0  0  0  0  0  0  0  0  0  0
  -11.6725   -7.1087   -0.0738 S   0  0  0  0  0  0  0  0  0  0  0  0
  -10.1411   -6.4102   -0.5455 C   0  0  0  0  0  0  0  0  0  0  0  0
   -9.7529   -6.2644   -1.9667 C   0  0  0  0  0  0  0  0  0  0  0  0
   -9.2262   -6.0105    2.8897 C   0  0  0  0  0  0  0  0  0  0  0  0
   -9.3117   -6.4681    4.1828 C   0  0  0  0  0  0  0  0  0  0  0  0
  -10.4620   -7.1223    4.6536 C   0  0  0  0  0  0  0  0  0  0  0  0
  -11.4159   -7.6310    5.0427 N   0  0  0  0  0  0  0  0  0  0  0  0
   -8.2071   -6.4557    5.0554 C   0  0  0  0  0  0  0  0  0  0  0  0
   -7.2978   -6.5372    5.7526 N   0  0  0  0  0  0  0  0  0  0  0  0
   -5.9960   -4.0145    2.3066 C   0  0  0  0  0  0  0  0  0  0  0  0
   -5.7176   -2.5640    2.4616 C   0  0  0  0  0  0  0  0  0  0  0  0
   -6.7871   -1.7484    2.5460 N   0  0  0  0  0  0  0  0  0  0  0  0
   -7.9118   -2.3106    3.0981 C   0  0  0  0  0  0  0  0  0  0  0  0
   -7.6658   -3.4448    4.0563 C   0  0  0  0  0  0  0  0  0  0  0  0
   -8.8760   -3.7268    4.8689 C   0  0  0  0  0  0  0  0  0  0  0  0
  -10.1140   -3.3308    4.5000 C   0  0  0  0  0  0  0  0  0  0  0  0
  -11.3285   -3.7117    5.2901 C   0  0  0  0  0  0  0  0  0  0  0  0
  -10.2882   -2.4936    3.3587 C   0  0  0  0  0  0  0  0  0  0  0  0
   -9.2037   -1.9489    2.7251 C   0  0  0  0  0  0  0  0  0  0  0  0
   -6.6712   -0.3830    2.1997 C   0  0  0  0  0  0  0  0  0  0  0  0
   -7.1555    0.6016    3.0501 C   0  0  0  0  0  0  0  0  0  0  0  0
   -6.9218    1.9325    2.7575 C   0  0  0  0  0  0  0  0  0  0  0  0
   -6.2034    2.3049    1.6276 C   0  0  0  0  0  0  0  0  0  0  0  0
   -5.9099    3.7411    1.3262 C   0  0  0  0  0  0  0  0  0  0  0  0
   -5.7577    1.3081    0.7652 C   0  0  0  0  0  0  0  0  0  0  0  0
   -5.9908   -0.0237    1.0404 C   0  0  0  0  0  0  0  0  0  0  0  0
   -4.3649   -2.2769    2.5197 C   0  0  0  0  0  0  0  0  0  0  0  0
   -3.4834   -0.7920    2.5176 S   0  0  0  0  0  0  0  0  0  0  0  0
   -1.9656   -1.6794    2.5705 C   0  0  0  0  0  0  0  0  0  0  0  0
   -2.1655   -3.0626    2.6776 C   0  0  0  0  0  0  0  0  0  0  0  0
   -1.1385   -3.9818    2.8221 N   0  0  0  0  0  0  0  0  0  0  0  0
   -0.1255   -3.7712    3.7603 C   0  0  0  0  0  0  0  0  0  0  0  0
   -0.3510   -3.0053    4.9021 C   0  0  0  0  0  0  0  0  0  0  0  0
    0.6716   -2.7831    5.8031 C   0  0  0  0  0  0  0  0  0  0  0  0
    1.9384   -3.3166    5.6044 C   0  0  0  0  0  0  0  0  0  0  0  0
    3.0379   -3.0955    6.5980 C   0  0  0  0  0  0  0  0  0  0  0  0
    2.1557   -4.0819    4.4639 C   0  0  0  0  0  0  0  0  0  0  0  0
    1.1463   -4.3052    3.5519 C   0  0  0  0  0  0  0  0  0  0  0  0
   -1.2313   -5.1830    2.0998 C   0  0  0  0  0  0  0  0  0  0  0  0
   -1.6807   -5.1579    0.7817 C   0  0  0  0  0  0  0  0  0  0  0  0
   -1.7969   -6.3302    0.0661 C   0  0  0  0  0  0  0  0  0  0  0  0
   -1.4599   -7.5536    0.6348 C   0  0  0  0  0  0  0  0  0  0  0  0
   -1.5625   -8.8113   -0.1710 C   0  0  0  0  0  0  0  0  0  0  0  0
   -1.0130   -7.5693    1.9490 C   0  0  0  0  0  0  0  0  0  0  0  0
   -0.9031   -6.4027    2.6812 C   0  0  0  0  0  0  0  0  0  0  0  0
   -3.5291   -3.3908    2.6262 C   0  0  0  0  0  0  0  0  0  0  0  0
   -4.4180   -4.8904    2.7411 S   0  0  0  0  0  0  0  0  0  0  0  0
   -0.7789   -0.9797    2.2830 C   0  0  0  0  0  0  0  0  0  0  0  0
   -0.6648    0.4058    2.1476 C   0  0  0  0  0  0  0  0  0  0  0  0
   -1.6033    1.3310    2.5876 N   0  0  0  0  0  0  0  0  0  0  0  0
   -1.8540    2.4206    1.7371 C   0  0  0  0  0  0  0  0  0  0  0  0
   -2.0814    2.1851    0.3813 C   0  0  0  0  0  0  0  0  0  0  0  0
   -2.2571    3.2387   -0.4865 C   0  0  0  0  0  0  0  0  0  0  0  0
   -2.2120    4.5510   -0.0193 C   0  0  0  0  0  0  0  0  0  0  0  0
   -2.4388    5.8288   -1.2141 S   0  0  0  0  0  0  0  0  0  0  0  0
   -1.8107    7.3083   -0.3740 C   0  0  0  0  0  0  0  0  0  0  0  0
   -2.0138    4.7878    1.3353 C   0  0  0  0  0  0  0  0  0  0  0  0
   -1.8324    3.7303    2.2048 C   0  0  0  0  0  0  0  0  0  0  0  0
   -2.0887    1.3031    3.8957 C   0  0  0  0  0  0  0  0  0  0  0  0
   -1.3898    0.6564    4.9119 C   0  0  0  0  0  0  0  0  0  0  0  0
   -1.9076    0.5845    6.1907 C   0  0  0  0  0  0  0  0  0  0  0  0
   -3.1347    1.1637    6.4805 C   0  0  0  0  0  0  0  0  0  0  0  0
   -3.8996    1.1322    8.0725 S   0  0  0  0  0  0  0  0  0  0  0  0
   -2.8052    0.0763    9.0636 C   0  0  0  0  0  0  0  0  0  0  0  0
   -3.8327    1.8227    5.4693 C   0  0  0  0  0  0  0  0  0  0  0  0
   -3.3219    1.8902    4.1945 C   0  0  0  0  0  0  0  0  0  0  0  0
    0.5186    0.7534    1.4740 C   0  0  0  0  0  0  0  0  0  0  0  0
    1.1783    2.2436    0.9120 S   0  0  0  0  0  0  0  0  0  0  0  0
    2.5581    1.3965    0.2120 C   0  0  0  0  0  0  0  0  0  0  0  0
    2.5363    0.0305    0.4928 C   0  0  0  0  0  0  0  0  0  0  0  0
    3.5173   -0.9025    0.2005 N   0  0  0  0  0  0  0  0  0  0  0  0
    4.8785   -0.6504    0.3794 C   0  0  0  0  0  0  0  0  0  0  0  0
    5.8199   -1.4714   -0.2495 C   0  0  0  0  0  0  0  0  0  0  0  0
    7.1664   -1.2528   -0.0720 C   0  0  0  0  0  0  0  0  0  0  0  0
    7.6178   -0.1916    0.7121 C   0  0  0  0  0  0  0  0  0  0  0  0
    9.3684    0.0070    0.8354 S   0  0  0  0  0  0  0  0  0  0  0  0
    9.5647    1.5991    1.6845 C   0  0  0  0  0  0  0  0  0  0  0  0
    6.6890    0.6284    1.3366 C   0  0  0  0  0  0  0  0  0  0  0  0
    5.3363    0.3950    1.1778 C   0  0  0  0  0  0  0  0  0  0  0  0
    3.0792   -2.2298   -0.0041 C   0  0  0  0  0  0  0  0  0  0  0  0
    3.5934   -3.2829    0.7449 C   0  0  0  0  0  0  0  0  0  0  0  0
    3.1408   -4.5727    0.5476 C   0  0  0  0  0  0  0  0  0  0  0  0
    2.1532   -4.8280   -0.3953 C   0  0  0  0  0  0  0  0  0  0  0  0
    1.5141   -6.4320   -0.7490 S   0  0  0  0  0  0  0  0  0  0  0  0
    2.2019   -7.4817    0.5614 C   0  0  0  0  0  0  0  0  0  0  0  0
    1.6315   -3.7734   -1.1422 C   0  0  0  0  0  0  0  0  0  0  0  0
    2.0913   -2.4893   -0.9534 C   0  0  0  0  0  0  0  0  0  0  0  0
    1.3427   -0.3196    1.1658 C   0  0  0  0  0  0  0  0  0  0  0  0
    0.6577   -1.8171    1.7070 S   0  0  0  0  0  0  0  0  0  0  0  0
    3.4161    2.1779   -0.6057 C   0  0  0  0  0  0  0  0  0  0  0  0
    4.3527    1.8106   -1.5360 C   0  0  0  0  0  0  0  0  0  0  0  0
    4.8849    2.8991   -2.2650 C   0  0  0  0  0  0  0  0  0  0  0  0
    5.8336    2.8665   -3.3128 C   0  0  0  0  0  0  0  0  0  0  0  0
    6.4938    1.6406   -3.6951 C   0  0  0  0  0  0  0  0  0  0  0  0
    6.9609    0.6404   -2.8872 C   0  0  0  0  0  0  0  0  0  0  0  0
    7.5468   -0.4260   -3.5859 C   0  0  0  0  0  0  0  0  0  0  0  0
    7.5280   -0.2469   -4.9418 C   0  0  0  0  0  0  0  0  0  0  0  0
    8.1985   -1.3604   -6.1027 S   0  0  0  0  0  0  0  0  0  0  0  0
    7.7767   -0.5801   -7.6999 C   0  0  0  0  0  0  0  0  0  0  0  0
    6.3311   -0.7958   -8.0970 C   0  0  0  0  0  0  0  0  0  0  0  0
    6.7909    1.2643   -5.3748 S   0  0  0  0  0  0  0  0  0  0  0  0
    6.0724    4.0696   -3.9640 C   0  0  0  0  0  0  0  0  0  0  0  0
    5.4597    5.2975   -3.6092 C   0  0  0  0  0  0  0  0  0  0  0  0
    4.5780    5.3472   -2.5041 C   0  0  0  0  0  0  0  0  0  0  0  0
    4.0069    6.5984   -2.0608 C   0  0  0  0  0  0  0  0  0  0  0  0
    4.6190    7.8222   -1.9990 C   0  0  0  0  0  0  0  0  0  0  0  0
    3.7975    8.8463   -1.4995 C   0  0  0  0  0  0  0  0  0  0  0  0
    2.5422    8.4058   -1.1907 C   0  0  0  0  0  0  0  0  0  0  0  0
    1.1841    9.2832   -0.5242 S   0  0  0  0  0  0  0  0  0  0  0  0
    1.4768   10.9741   -1.1582 C   0  0  0  0  0  0  0  0  0  0  0  0
    1.3815   11.0421   -2.6688 C   0  0  0  0  0  0  0  0  0  0  0  0
    2.3586    6.7090   -1.5001 S   0  0  0  0  0  0  0  0  0  0  0  0
    4.3011    4.1350   -1.8864 C   0  0  0  0  0  0  0  0  0  0  0  0
    3.1831    3.9170   -0.5713 S   0  0  0  0  0  0  0  0  0  0  0  0
    5.8129    6.3354   -4.4939 C   0  0  0  0  0  0  0  0  0  0  0  0
    6.6699    5.9509   -5.4959 C   0  0  0  0  0  0  0  0  0  0  0  0
    7.1413    4.2701   -5.3217 S   0  0  0  0  0  0  0  0  0  0  0  0
    7.1974    6.7849   -6.5117 C   0  0  0  0  0  0  0  0  0  0  0  0
    7.7902    6.4237   -7.6827 C   0  0  0  0  0  0  0  0  0  0  0  0
    8.6984    7.3836   -8.3776 C   0  0  0  0  0  0  0  0  0  0  0  0
    8.8010    8.5713   -8.1615 O   0  0  0  0  0  0  0  0  0  0  0  0
    9.4612    6.5519   -9.3134 C   0  0  0  0  0  0  0  0  0  0  0  0
    8.9608    5.2068   -9.2803 C   0  0  0  0  0  0  0  0  0  0  0  0
    9.6235    4.3767  -10.1258 C   0  0  0  0  0  0  0  0  0  0  0  0
   10.8730    5.2259  -10.9666 S   0  0  0  0  0  0  0  0  0  0  0  0
   10.4933    6.7388  -10.1795 C   0  0  0  0  0  0  0  0  0  0  0  0
   11.2332    7.9855  -10.4774 C   0  0  0  0  0  0  0  0  0  0  0  0
    7.8279    5.1522   -8.3790 C   0  0  0  0  0  0  0  0  0  0  0  0
    6.8543    4.1859   -8.4042 C   0  0  0  0  0  0  0  0  0  0  0  0
    5.5955    4.3232   -7.7865 C   0  0  0  0  0  0  0  0  0  0  0  0
    4.5340    4.4404   -7.3649 N   0  0  0  0  0  0  0  0  0  0  0  0
    7.0147    3.0025   -9.1457 C   0  0  0  0  0  0  0  0  0  0  0  0
    7.1520    2.0179   -9.7214 N   0  0  0  0  0  0  0  0  0  0  0  0
   -6.1195   -4.2418    1.2256 H   0  0  0  0  0  0  0  0  0  0  0  0
  -12.0456   -7.2645    2.3378 H   0  0  0  0  0  0  0  0  0  0  0  0
  -10.4585   -5.6232   -2.4948 H   0  0  0  0  0  0  0  0  0  0  0  0
   -9.7468   -7.2336   -2.4646 H   0  0  0  0  0  0  0  0  0  0  0  0
   -8.7590   -5.8262   -2.0215 H   0  0  0  0  0  0  0  0  0  0  0  0
   -6.7857   -3.2457    4.6846 H   0  0  0  0  0  0  0  0  0  0  0  0
   -8.7224   -4.2455    5.8014 H   0  0  0  0  0  0  0  0  0  0  0  0
  -11.9670   -4.3658    4.6960 H   0  0  0  0  0  0  0  0  0  0  0  0
  -11.0536   -4.2383    6.2002 H   0  0  0  0  0  0  0  0  0  0  0  0
  -11.9080   -2.8286    5.5539 H   0  0  0  0  0  0  0  0  0  0  0  0
  -11.2876   -2.2239    3.0564 H   0  0  0  0  0  0  0  0  0  0  0  0
   -9.3273   -1.2152    1.9409 H   0  0  0  0  0  0  0  0  0  0  0  0
   -7.6903    0.3187    3.9444 H   0  0  0  0  0  0  0  0  0  0  0  0
   -7.2886    2.6925    3.4317 H   0  0  0  0  0  0  0  0  0  0  0  0
   -6.1715    4.3790    2.1664 H   0  0  0  0  0  0  0  0  0  0  0  0
   -4.8536    3.8730    1.0955 H   0  0  0  0  0  0  0  0  0  0  0  0
   -6.4787    4.0668    0.4557 H   0  0  0  0  0  0  0  0  0  0  0  0
   -5.2114    1.5838   -0.1244 H   0  0  0  0  0  0  0  0  0  0  0  0
   -5.6443   -0.7921    0.3656 H   0  0  0  0  0  0  0  0  0  0  0  0
   -1.3299   -2.5852    5.0824 H   0  0  0  0  0  0  0  0  0  0  0  0
    0.4785   -2.1871    6.6841 H   0  0  0  0  0  0  0  0  0  0  0  0
    3.9953   -2.9751    6.0952 H   0  0  0  0  0  0  0  0  0  0  0  0
    2.8445   -2.2137    7.2042 H   0  0  0  0  0  0  0  0  0  0  0  0
    3.1167   -3.9546    7.2656 H   0  0  0  0  0  0  0  0  0  0  0  0
    3.1362   -4.4983    4.2823 H   0  0  0  0  0  0  0  0  0  0  0  0
    1.3365   -4.8721    2.6537 H   0  0  0  0  0  0  0  0  0  0  0  0
   -1.9278   -4.2111    0.3238 H   0  0  0  0  0  0  0  0  0  0  0  0
   -2.1420   -6.2985   -0.9566 H   0  0  0  0  0  0  0  0  0  0  0  0
   -1.3526   -9.6863    0.4391 H   0  0  0  0  0  0  0  0  0  0  0  0
   -0.8529   -8.7821   -0.9981 H   0  0  0  0  0  0  0  0  0  0  0  0
   -2.5604   -8.9121   -0.5941 H   0  0  0  0  0  0  0  0  0  0  0  0
   -0.7549   -8.5099    2.4151 H   0  0  0  0  0  0  0  0  0  0  0  0
   -0.5701   -6.4327    3.7084 H   0  0  0  0  0  0  0  0  0  0  0  0
   -2.1075    1.1679    0.0193 H   0  0  0  0  0  0  0  0  0  0  0  0
   -2.4235    3.0622   -1.5380 H   0  0  0  0  0  0  0  0  0  0  0  0
   -0.8218    7.1074    0.0262 H   0  0  0  0  0  0  0  0  0  0  0  0
   -1.7451    8.0757   -1.1383 H   0  0  0  0  0  0  0  0  0  0  0  0
   -2.4987    7.6253    0.4044 H   0  0  0  0  0  0  0  0  0  0  0  0
   -1.9847    5.7932    1.7229 H   0  0  0  0  0  0  0  0  0  0  0  0
   -1.6576    3.9201    3.2533 H   0  0  0  0  0  0  0  0  0  0  0  0
   -0.4326    0.2015    4.7034 H   0  0  0  0  0  0  0  0  0  0  0  0
   -1.3372    0.0758    6.9510 H   0  0  0  0  0  0  0  0  0  0  0  0
   -3.2853   -0.0125   10.0332 H   0  0  0  0  0  0  0  0  0  0  0  0
   -2.7206   -0.9037    8.6031 H   0  0  0  0  0  0  0  0  0  0  0  0
   -1.8328    0.5470    9.1775 H   0  0  0  0  0  0  0  0  0  0  0  0
   -4.7892    2.2678    5.6959 H   0  0  0  0  0  0  0  0  0  0  0  0
   -3.8841    2.3746    3.4113 H   0  0  0  0  0  0  0  0  0  0  0  0
    5.4871   -2.2788   -0.8838 H   0  0  0  0  0  0  0  0  0  0  0  0
    7.8903   -1.8925   -0.5524 H   0  0  0  0  0  0  0  0  0  0  0  0
   10.6312    1.8016    1.6816 H   0  0  0  0  0  0  0  0  0  0  0  0
    9.0393    2.3752    1.1357 H   0  0  0  0  0  0  0  0  0  0  0  0
    9.2076    1.5268    2.7078 H   0  0  0  0  0  0  0  0  0  0  0  0
    7.0010    1.4495    1.9617 H   0  0  0  0  0  0  0  0  0  0  0  0
    4.6322    1.0278    1.6954 H   0  0  0  0  0  0  0  0  0  0  0  0
    4.3515   -3.0880    1.4889 H   0  0  0  0  0  0  0  0  0  0  0  0
    3.5646   -5.3684    1.1389 H   0  0  0  0  0  0  0  0  0  0  0  0
    1.7502   -8.4579    0.4172 H   0  0  0  0  0  0  0  0  0  0  0  0
    1.9180   -7.0895    1.5334 H   0  0  0  0  0  0  0  0  0  0  0  0
    3.2806   -7.5566    0.4581 H   0  0  0  0  0  0  0  0  0  0  0  0
    0.8661   -3.9790   -1.8743 H   0  0  0  0  0  0  0  0  0  0  0  0
    1.6874   -1.6738   -1.5350 H   0  0  0  0  0  0  0  0  0  0  0  0
    4.6040    0.7880   -1.7443 H   0  0  0  0  0  0  0  0  0  0  0  0
    6.9214    0.6915   -1.8147 H   0  0  0  0  0  0  0  0  0  0  0  0
    7.9755   -1.2925   -3.1188 H   0  0  0  0  0  0  0  0  0  0  0  0
    8.4526   -1.0469   -8.4153 H   0  0  0  0  0  0  0  0  0  0  0  0
    8.0174    0.4798   -7.6205 H   0  0  0  0  0  0  0  0  0  0  0  0
    6.1184   -1.8564   -8.2092 H   0  0  0  0  0  0  0  0  0  0  0  0
    6.1484   -0.2914   -9.0428 H   0  0  0  0  0  0  0  0  0  0  0  0
    5.6568   -0.3796   -7.3520 H   0  0  0  0  0  0  0  0  0  0  0  0
    5.6528    7.9758   -2.2519 H   0  0  0  0  0  0  0  0  0  0  0  0
    4.1334    9.8586   -1.3673 H   0  0  0  0  0  0  0  0  0  0  0  0
    0.6947   11.5674   -0.6854 H   0  0  0  0  0  0  0  0  0  0  0  0
    2.4452   11.3105   -0.7907 H   0  0  0  0  0  0  0  0  0  0  0  0
    0.4049   10.6999   -3.0030 H   0  0  0  0  0  0  0  0  0  0  0  0
    1.5244   12.0682   -3.0010 H   0  0  0  0  0  0  0  0  0  0  0  0
    2.1428   10.4178   -3.1319 H   0  0  0  0  0  0  0  0  0  0  0  0
    5.3961    7.3252   -4.4492 H   0  0  0  0  0  0  0  0  0  0  0  0
    7.2044    7.8485   -6.2936 H   0  0  0  0  0  0  0  0  0  0  0  0
    9.4817    3.3308  -10.3112 H   0  0  0  0  0  0  0  0  0  0  0  0
   11.1422    8.2439  -11.5321 H   0  0  0  0  0  0  0  0  0  0  0  0
   10.8264    8.7938   -9.8740 H   0  0  0  0  0  0  0  0  0  0  0  0
   12.2931    7.8670  -10.2539 H   0  0  0  0  0  0  0  0  0  0  0  0
  1  2  2  0  0  0  0
  2  3  1  0  0  0  0
  3  4  2  0  0  0  0
  3  5  1  0  0  0  0
  5  6  1  0  0  0  0
  6  7  2  0  0  0  0
  7  8  1  0  0  0  0
  8  9  1  0  0  0  0
  9 10  1  0  0  0  0
  6 11  1  0  0  0  0
 11 12  2  0  0  0  0
 12 13  1  0  0  0  0
 13 14  3  0  0  0  0
 12 15  1  0  0  0  0
 15 16  3  0  0  0  0
  1 17  1  0  0  0  0
 17 18  2  0  0  0  0
 18 19  1  0  0  0  0
 19 20  1  0  0  0  0
 20 21  2  0  0  0  0
 21 22  1  0  0  0  0
 22 23  2  0  0  0  0
 23 24  1  0  0  0  0
 23 25  1  0  0  0  0
 25 26  2  0  0  0  0
 19 27  1  0  0  0  0
 27 28  2  0  0  0  0
 28 29  1  0  0  0  0
 29 30  2  0  0  0  0
 30 31  1  0  0  0  0
 30 32  1  0  0  0  0
 32 33  2  0  0  0  0
 18 34  1  0  0  0  0
 34 35  1  0  0  0  0
 35 36  1  0  0  0  0
 36 37  2  0  0  0  0
 37 38  1  0  0  0  0
 38 39  1  0  0  0  0
 39 40  2  0  0  0  0
 40 41  1  0  0  0  0
 41 42  2  0  0  0  0
 42 43  1  0  0  0  0
 42 44  1  0  0  0  0
 44 45  2  0  0  0  0
 38 46  1  0  0  0  0
 46 47  2  0  0  0  0
 47 48  1  0  0  0  0
 48 49  2  0  0  0  0
 49 50  1  0  0  0  0
 49 51  1  0  0  0  0
 51 52  2  0  0  0  0
 37 53  1  0  0  0  0
 53 54  1  0  0  0  0
 36 55  1  0  0  0  0
 55 56  2  0  0  0  0
 56 57  1  0  0  0  0
 57 58  1  0  0  0  0
 58 59  2  0  0  0  0
 59 60  1  0  0  0  0
 60 61  2  0  0  0  0
 61 62  1  0  0  0  0
 62 63  1  0  0  0  0
 61 64  1  0  0  0  0
 64 65  2  0  0  0  0
 57 66  1  0  0  0  0
 66 67  2  0  0  0  0
 67 68  1  0  0  0  0
 68 69  2  0  0  0  0
 69 70  1  0  0  0  0
 70 71  1  0  0  0  0
 69 72  1  0  0  0  0
 72 73  2  0  0  0  0
 56 74  1  0  0  0  0
 74 75  1  0  0  0  0
 75 76  1  0  0  0  0
 76 77  2  0  0  0  0
 77 78  1  0  0  0  0
 78 79  1  0  0  0  0
 79 80  2  0  0  0  0
 80 81  1  0  0  0  0
 81 82  2  0  0  0  0
 82 83  1  0  0  0  0
 83 84  1  0  0  0  0
 82 85  1  0  0  0  0
 85 86  2  0  0  0  0
 78 87  1  0  0  0  0
 87 88  2  0  0  0  0
 88 89  1  0  0  0  0
 89 90  2  0  0  0  0
 90 91  1  0  0  0  0
 91 92  1  0  0  0  0
 90 93  1  0  0  0  0
 93 94  2  0  0  0  0
 77 95  1  0  0  0  0
 95 96  1  0  0  0  0
 76 97  1  0  0  0  0
 97 98  2  0  0  0  0
 98 99  1  0  0  0  0
 99100  2  0  0  0  0
100101  1  0  0  0  0
101102  2  0  0  0  0
102103  1  0  0  0  0
103104  2  0  0  0  0
104105  1  0  0  0  0
105106  1  0  0  0  0
106107  1  0  0  0  0
104108  1  0  0  0  0
100109  1  0  0  0  0
109110  2  0  0  0  0
110111  1  0  0  0  0
111112  1  0  0  0  0
112113  2  0  0  0  0
113114  1  0  0  0  0
114115  2  0  0  0  0
115116  1  0  0  0  0
116117  1  0  0  0  0
117118  1  0  0  0  0
115119  1  0  0  0  0
111120  2  0  0  0  0
120121  1  0  0  0  0
110122  1  0  0  0  0
122123  2  0  0  0  0
123124  1  0  0  0  0
123125  1  0  0  0  0
125126  2  0  0  0  0
126127  1  0  0  0  0
127128  2  0  0  0  0
127129  1  0  0  0  0
129130  1  0  0  0  0
130131  2  0  0  0  0
131132  1  0  0  0  0
132133  1  0  0  0  0
133134  1  0  0  0  0
130135  1  0  0  0  0
135136  2  0  0  0  0
136137  1  0  0  0  0
137138  3  0  0  0  0
136139  1  0  0  0  0
139140  3  0  0  0  0
 11  2  1  0  0  0  0
 54 17  1  0  0  0  0
 96 55  1  0  0  0  0
121 97  1  0  0  0  0
135126  1  0  0  0  0
  9  5  2  0  0  0  0
 26 20  1  0  0  0  0
 33 27  1  0  0  0  0
 53 34  2  0  0  0  0
 65 58  1  0  0  0  0
 73 66  1  0  0  0  0
 95 74  2  0  0  0  0
120 99  1  0  0  0  0
133129  2  0  0  0  0
 45 39  1  0  0  0  0
 52 46  1  0  0  0  0
 86 79  1  0  0  0  0
 94 87  1  0  0  0  0
108101  1  0  0  0  0
124109  1  0  0  0  0
119112  1  0  0  0  0
  1141  1  0  0  0  0
  7142  1  0  0  0  0
 10143  1  0  0  0  0
 10144  1  0  0  0  0
 10145  1  0  0  0  0
 21146  1  0  0  0  0
 22147  1  0  0  0  0
 24148  1  0  0  0  0
 24149  1  0  0  0  0
 24150  1  0  0  0  0
 25151  1  0  0  0  0
 26152  1  0  0  0  0
 28153  1  0  0  0  0
 29154  1  0  0  0  0
 31155  1  0  0  0  0
 31156  1  0  0  0  0
 31157  1  0  0  0  0
 32158  1  0  0  0  0
 33159  1  0  0  0  0
 40160  1  0  0  0  0
 41161  1  0  0  0  0
 43162  1  0  0  0  0
 43163  1  0  0  0  0
 43164  1  0  0  0  0
 44165  1  0  0  0  0
 45166  1  0  0  0  0
 47167  1  0  0  0  0
 48168  1  0  0  0  0
 50169  1  0  0  0  0
 50170  1  0  0  0  0
 50171  1  0  0  0  0
 51172  1  0  0  0  0
 52173  1  0  0  0  0
 59174  1  0  0  0  0
 60175  1  0  0  0  0
 63176  1  0  0  0  0
 63177  1  0  0  0  0
 63178  1  0  0  0  0
 64179  1  0  0  0  0
 65180  1  0  0  0  0
 67181  1  0  0  0  0
 68182  1  0  0  0  0
 71183  1  0  0  0  0
 71184  1  0  0  0  0
 71185  1  0  0  0  0
 72186  1  0  0  0  0
 73187  1  0  0  0  0
 80188  1  0  0  0  0
 81189  1  0  0  0  0
 84190  1  0  0  0  0
 84191  1  0  0  0  0
 84192  1  0  0  0  0
 85193  1  0  0  0  0
 86194  1  0  0  0  0
 88195  1  0  0  0  0
 89196  1  0  0  0  0
 92197  1  0  0  0  0
 92198  1  0  0  0  0
 92199  1  0  0  0  0
 93200  1  0  0  0  0
 94201  1  0  0  0  0
 98202  1  0  0  0  0
102203  1  0  0  0  0
103204  1  0  0  0  0
106205  1  0  0  0  0
106206  1  0  0  0  0
107207  1  0  0  0  0
107208  1  0  0  0  0
107209  1  0  0  0  0
113210  1  0  0  0  0
114211  1  0  0  0  0
117212  1  0  0  0  0
117213  1  0  0  0  0
118214  1  0  0  0  0
118215  1  0  0  0  0
118216  1  0  0  0  0
122217  1  0  0  0  0
125218  1  0  0  0  0
131219  1  0  0  0  0
134220  1  0  0  0  0
134221  1  0  0  0  0
134222  1  0  0  0  0
M  END
