222

C         -7.25180       -4.43970        2.97070
C         -8.10380       -5.31100        2.32390
C         -8.13890       -5.46010        0.85330
O         -7.29570       -5.08960        0.04800
C         -9.43850       -6.06680        0.56750
C        -10.10890       -6.36810        1.80000
C        -11.32410       -6.93820        1.61570
S        -11.67250       -7.10870       -0.07380
C        -10.14110       -6.41020       -0.54550
C         -9.75290       -6.26440       -1.96670
C         -9.22620       -6.01050        2.88970
C         -9.31170       -6.46810        4.18280
C        -10.46200       -7.12230        4.65360
N        -11.41590       -7.63100        5.04270
C         -8.20710       -6.45570        5.05540
N         -7.29780       -6.53720        5.75260
C         -5.99600       -4.01450        2.30660
C         -5.71760       -2.56400        2.46160
N         -6.78710       -1.74840        2.54600
C         -7.91180       -2.31060        3.09810
C         -7.66580       -3.44480        4.05630
C         -8.87600       -3.72680        4.86890
C        -10.11400       -3.33080        4.50000
C        -11.32850       -3.71170        5.29010
C        -10.28820       -2.49360        3.35870
C         -9.20370       -1.94890        2.72510
C         -6.67120       -0.38300        2.19970
C         -7.15550        0.60160        3.05010
C         -6.92180        1.93250        2.75750
C         -6.20340        2.30490        1.62760
C         -5.90990        3.74110        1.32620
C         -5.75770        1.30810        0.76520
C         -5.99080       -0.02370        1.04040
C         -4.36490       -2.27690        2.51970
S         -3.48340       -0.79200        2.51760
C         -1.96560       -1.67940        2.57050
C         -2.16550       -3.06260        2.67760
N         -1.13850       -3.98180        2.82210
C         -0.12550       -3.77120        3.76030
C         -0.35100       -3.00530        4.90210
C          0.67160       -2.78310        5.80310
C          1.93840       -3.31660        5.60440
C          3.03790       -3.09550        6.59800
C          2.15570       -4.08190        4.46390
C          1.14630       -4.30520        3.55190
C         -1.23130       -5.18300        2.09980
C         -1.68070       -5.15790        0.78170
C         -1.79690       -6.33020        0.06610
C         -1.45990       -7.55360        0.63480
C         -1.56250       -8.81130       -0.17100
C         -1.01300       -7.56930        1.94900
C         -0.90310       -6.40270        2.68120
C         -3.52910       -3.39080        2.62620
S         -4.41800       -4.89040        2.74110
C         -0.77890       -0.97970        2.28300
C         -0.66480        0.40580        2.14760
N         -1.60330        1.33100        2.58760
C         -1.85400        2.42060        1.73710
C         -2.08140        2.18510        0.38130
C         -2.25710        3.23870       -0.48650
C         -2.21200        4.55100       -0.01930
S         -2.43880        5.82880       -1.21410
C         -1.81070        7.30830       -0.37400
C         -2.01380        4.78780        1.33530
C         -1.83240        3.73030        2.20480
C         -2.08870        1.30310        3.89570
C         -1.38980        0.65640        4.91190
C         -1.90760        0.58450        6.19070
C         -3.13470        1.16370        6.48050
S         -3.89960        1.13220        8.07250
C         -2.80520        0.07630        9.06360
C         -3.83270        1.82270        5.46930
C         -3.32190        1.89020        4.19450
C          0.51860        0.75340        1.47400
S          1.17830        2.24360        0.91200
C          2.55810        1.39650        0.21200
C          2.53630        0.03050        0.49280
N          3.51730       -0.90250        0.20050
C          4.87850       -0.65040        0.37940
C          5.81990       -1.47140       -0.24950
C          7.16640       -1.25280       -0.07200
C          7.61780       -0.19160        0.71210
S          9.36840        0.00700        0.83540
C          9.56470        1.59910        1.68450
C          6.68900        0.62840        1.33660
C          5.33630        0.39500        1.17780
C          3.07920       -2.22980       -0.00410
C          3.59340       -3.28290        0.74490
C          3.14080       -4.57270        0.54760
C          2.15320       -4.82800       -0.39530
S          1.51410       -6.43200       -0.74900
C          2.20190       -7.48170        0.56140
C          1.63150       -3.77340       -1.14220
C          2.09130       -2.48930       -0.95340
C          1.34270       -0.31960        1.16580
S          0.65770       -1.81710        1.70700
C          3.41610        2.17790       -0.60570
C          4.35270        1.81060       -1.53600
C          4.88490        2.89910       -2.26500
C          5.83360        2.86650       -3.31280
C          6.49380        1.64060       -3.69510
C          6.96090        0.64040       -2.88720
C          7.54680       -0.42600       -3.58590
C          7.52800       -0.24690       -4.94180
S          8.19850       -1.36040       -6.10270
C          7.77670       -0.58010       -7.69990
C          6.33110       -0.79580       -8.09700
S          6.79090        1.26430       -5.37480
C          6.07240        4.06960       -3.96400
C          5.45970        5.29750       -3.60920
C          4.57800        5.34720       -2.50410
C          4.00690        6.59840       -2.06080
C          4.61900        7.82220       -1.99900
C          3.79750        8.84630       -1.49950
C          2.54220        8.40580       -1.19070
S          1.18410        9.28320       -0.52420
C          1.47680       10.97410       -1.15820
C          1.38150       11.04210       -2.66880
S          2.35860        6.70900       -1.50010
C          4.30110        4.13500       -1.88640
S          3.18310        3.91700       -0.57130
C          5.81290        6.33540       -4.49390
C          6.66990        5.95090       -5.49590
S          7.14130        4.27010       -5.32170
C          7.19740        6.78490       -6.51170
C          7.79020        6.42370       -7.68270
C          8.69840        7.38360       -8.37760
O          8.80100        8.57130       -8.16150
C          9.46120        6.55190       -9.31340
C          8.96080        5.20680       -9.28030
C          9.62350        4.37670      -10.12580
S         10.87300        5.22590      -10.96660
C         10.49330        6.73880      -10.17950
C         11.23320        7.98550      -10.47740
C          7.82790        5.15220       -8.37900
C          6.85430        4.18590       -8.40420
C          5.59550        4.32320       -7.78650
N          4.53400        4.44040       -7.36490
C          7.01470        3.00250       -9.14570
N          7.15200        2.01790       -9.72140
H         -6.11950       -4.24180        1.22560
H        -12.04560       -7.26450        2.33780
H        -10.45850       -5.62320       -2.49480
H         -9.74680       -7.23360       -2.46460
H         -8.75900       -5.82620       -2.02150
H         -6.78570       -3.24570        4.68460
H         -8.72240       -4.24550        5.80140
H        -11.96700       -4.36580        4.69600
H        -11.05360       -4.23830        6.20020
H        -11.90800       -2.82860        5.55390
H        -11.28760       -2.22390        3.05640
H         -9.32730       -1.21520        1.94090
H         -7.69030        0.31870        3.94440
H         -7.28860        2.69250        3.43170
H         -6.17150        4.37900        2.16640
H         -4.85360        3.87300        1.09550
H         -6.47870        4.06680        0.45570
H         -5.21140        1.58380       -0.12440
H         -5.64430       -0.79210        0.36560
H         -1.32990       -2.58520        5.08240
H          0.47850       -2.18710        6.68410
H          3.99530       -2.97510        6.09520
H          2.84450       -2.21370        7.20420
H          3.11670       -3.95460        7.26560
H          3.13620       -4.49830        4.28230
H          1.33650       -4.87210        2.65370
H         -1.92780       -4.21110        0.32380
H         -2.14200       -6.29850       -0.95660
H         -1.35260       -9.68630        0.43910
H         -0.85290       -8.78210       -0.99810
H         -2.56040       -8.91210       -0.59410
H         -0.75490       -8.50990        2.41510
H         -0.57010       -6.43270        3.70840
H         -2.10750        1.16790        0.01930
H         -2.42350        3.06220       -1.53800
H         -0.82180        7.10740        0.02620
H         -1.74510        8.07570       -1.13830
H         -2.49870        7.62530        0.40440
H         -1.98470        5.79320        1.72290
H         -1.65760        3.92010        3.25330
H         -0.43260        0.20150        4.70340
H         -1.33720        0.07580        6.95100
H         -3.28530       -0.01250       10.03320
H         -2.72060       -0.90370        8.60310
H         -1.83280        0.54700        9.17750
H         -4.78920        2.26780        5.69590
H         -3.88410        2.37460        3.41130
H          5.48710       -2.27880       -0.88380
H          7.89030       -1.89250       -0.55240
H         10.63120        1.80160        1.68160
H          9.03930        2.37520        1.13570
H          9.20760        1.52680        2.70780
H          7.00100        1.44950        1.96170
H          4.63220        1.02780        1.69540
H          4.35150       -3.08800        1.48890
H          3.56460       -5.36840        1.13890
H          1.75020       -8.45790        0.41720
H          1.91800       -7.08950        1.53340
H          3.28060       -7.55660        0.45810
H          0.86610       -3.97900       -1.87430
H          1.68740       -1.67380       -1.53500
H          4.60400        0.78800       -1.74430
H          6.92140        0.69150       -1.81470
H          7.97550       -1.29250       -3.11880
H          8.45260       -1.04690       -8.41530
H          8.01740        0.47980       -7.62050
H          6.11840       -1.85640       -8.20920
H          6.14840       -0.29140       -9.04280
H          5.65680       -0.37960       -7.35200
H          5.65280        7.97580       -2.25190
H          4.13340        9.85860       -1.36730
H          0.69470       11.56740       -0.68540
H          2.44520       11.31050       -0.79070
H          0.40490       10.69990       -3.00300
H          1.52440       12.06820       -3.00100
H          2.14280       10.41780       -3.13190
H          5.39610        7.32520       -4.44920
H          7.20440        7.84850       -6.29360
H          9.48170        3.33080      -10.31120
H         11.14220        8.24390      -11.53210
H         10.82640        8.79380       -9.87400
H         12.29310        7.86700      -10.25390
