164

C          2.12190        9.01160       -7.16650
C          3.36110        9.03410       -7.73350
C          4.59300        8.33520       -7.26070
O          4.70980        7.52950       -6.35910
C          5.67720        8.87750       -8.08150
C          5.15520        9.82910       -9.01460
C          6.11740       10.36270       -9.81400
S          7.66890        9.70810       -9.43050
C          7.02230        8.69020       -8.16660
C          7.88050        7.78810       -7.36670
C          3.72460        9.93330       -8.82560
C          2.90310       10.71480       -9.59500
C          3.42680       11.52400      -10.62490
N          3.83530       12.19240      -11.46370
C          1.50170       10.81570       -9.49580
N          0.36040       10.94780       -9.48820
C          1.58320        8.15860       -6.14770
C          2.03540        6.85380       -5.93480
C          1.46640        6.11870       -4.91300
N          1.75000        4.83790       -4.50760
C          2.83270        4.04220       -5.02590
C          4.19170        4.57790       -4.57730
C          0.92390        4.52090       -3.45860
C          0.06360        5.61880       -3.19010
C          0.41790        6.64680       -4.11440
C         -0.05630        7.93400       -4.36090
C          0.51750        8.66810       -5.36860
C         -0.89840        5.52020       -2.18970
C         -1.01060        4.33980       -1.49410
C         -0.16180        3.25350       -1.75750
C          0.82280        3.34400       -2.73210
C         -0.33460        2.00210       -1.00950
C         -1.57460        1.42420       -0.84060
F         -2.67040        1.98940       -1.38340
C         -1.76180        0.24450       -0.10760
F         -3.01960       -0.21390        0.03450
C         -0.71610       -0.40590        0.51240
C          0.58370        0.13720        0.32260
N          1.64340       -0.50450        0.84680
C          2.83480        0.02090        0.72380
C          3.97350       -0.76070        1.30370
C          4.48850       -1.78280        0.28710
C          3.01200        1.26310        0.04380
N          1.99860        1.86770       -0.51740
C          0.76810        1.33320       -0.41510
C          4.35280        1.92860       -0.05160
C          4.32980        3.14720       -0.96360
C         -0.91160       -1.57080        1.35210
C         -0.41260       -1.76860        2.62750
N          0.30540       -0.84950        3.37300
C          0.10260        0.52150        3.17810
C         -1.18280        1.01840        2.97490
C         -1.39020        2.34760        2.66360
C         -0.31070        3.21390        2.56180
S         -0.44320        4.90940        2.09080
C         -2.22700        5.24290        2.18150
C          0.97170        2.73650        2.82550
C          1.17730        1.41150        3.13650
C          1.34390       -1.31170        4.19240
C          1.63160       -0.66250        5.38930
C          2.64430       -1.11510        6.21260
C          3.37960       -2.23810        5.85780
S          4.69470       -2.90910        6.82750
C          4.62660       -1.95950        8.37370
C          3.09500       -2.89150        4.66070
C          2.09470       -2.43280        3.83260
C         -0.78950       -3.04310        3.11680
S         -0.55980       -3.85720        4.61600
C         -1.40920       -5.28130        4.00600
C         -1.93150       -5.06520        2.71540
N         -2.77610       -5.90660        2.03240
C         -2.89870       -5.78410        0.62990
C         -1.76810       -5.73130       -0.18510
C         -1.90550       -5.61940       -1.54990
C         -3.16990       -5.55620       -2.13360
S         -3.21530       -5.39830       -3.88610
C         -4.98560       -5.27830       -4.27210
C         -4.29720       -5.61760       -1.32420
C         -4.15940       -5.72950        0.04490
C         -3.68910       -6.73600        2.70120
C         -4.25930       -6.34990        3.91200
C         -5.07200       -7.21200        4.61570
C         -5.34700       -8.47770        4.11060
S         -6.27360       -9.68180        4.99970
C         -6.14570       -9.09370        6.71470
C         -4.87040       -8.82630        2.84920
C         -4.04320       -7.97090        2.15430
C         -1.54850       -3.79360        2.22980
S         -1.87580       -2.91140        0.77870
C         -1.47290       -6.38300        4.87350
C         -1.65480       -7.71450        4.58860
C         -2.22920       -8.62600        5.61110
O         -2.53340       -8.34230        6.75370
C         -2.45060       -9.89230        4.90650
C         -2.00480       -9.76490        3.54960
C         -2.17900      -10.89990        2.82690
S         -2.90510      -12.13720        3.79230
C         -2.96170      -11.11590        5.20830
C         -3.49890      -11.61080        6.49540
C         -1.44780       -8.43990        3.36320
C         -0.68200       -8.05900        2.28270
C         -0.62630       -8.84200        1.11670
N         -0.61600       -9.44790        0.14080
C          0.16350       -6.94100        2.27150
N          0.90830       -6.06510        2.23660
H          1.43190        9.77850       -7.50100
H          6.03720       11.09180      -10.59490
H          7.26640        7.27110       -6.63270
H          8.37030        7.05480       -8.00720
H          8.65780        8.35220       -6.85210
H          2.78800        6.42830       -6.57410
H          2.77530        4.03750       -6.11970
H          2.69580        3.01720       -4.67540
H          4.22460        4.65250       -3.49330
H          4.37480        5.56370       -4.99580
H          4.98060        3.90730       -4.90810
H         -0.86400        8.34060       -3.77170
H          0.16720        9.66980       -5.56930
H         -1.55060        6.35260       -1.97470
H         -1.75730        4.24390       -0.72290
H          1.46290        2.49810       -2.92180
H          4.78160       -0.09360        1.60490
H          3.60950       -1.29440        2.18300
H          3.68950       -2.46740        0.01470
H          4.84530       -1.29140       -0.61600
H          5.30610       -2.35520        0.71720
H          4.65660        2.22610        0.95730
H          5.08890        1.20610       -0.41340
H          3.58620        3.86110       -0.62050
H          4.06800        2.84530       -1.97360
H          5.30680        3.62470       -0.97870
H         -2.02960        0.35170        3.04610
H         -2.39880        2.68960        2.49640
H         -2.59470        5.00210        3.17440
H         -2.76120        4.68270        1.41950
H         -2.33370        6.30680        1.99460
H          1.80630        3.41800        2.76450
H          2.17680        1.04830        3.32320
H          1.05440        0.20350        5.67800
H          2.84120       -0.58610        7.13110
H          5.36920       -2.40950        9.02520
H          4.88230       -0.92000        8.18890
H          3.64020       -2.05170        8.81860
H          3.67060       -3.76160        4.38540
H          1.89050       -2.94260        2.90370
H         -0.78300       -5.77700        0.25150
H         -1.03170       -5.58280       -2.18120
H         -5.04030       -5.14530       -5.34810
H         -5.41570       -4.41540       -3.77210
H         -5.49230       -6.19630       -3.98890
H         -5.28930       -5.57250       -1.74250
H         -5.04020       -5.76780        0.66900
H         -4.05610       -5.36870        4.31330
H         -5.48280       -6.88830        5.55760
H         -6.81420       -8.25280        6.87550
H         -6.45460       -9.92650        7.33880
H         -5.11440       -8.82690        6.92790
H         -5.12600       -9.79010        2.43660
H         -3.64390       -8.26660        1.19520
H         -1.40990       -6.14640        5.93160
H         -1.95030      -11.10120        1.79960
H         -3.35830      -10.85070        7.26030
H         -2.99130      -12.52570        6.79830
H         -4.56140      -11.83440        6.39880
