208

C         -1.41900      -11.74090        2.43590
C         -2.00530      -12.57570        3.33620
C         -2.27360      -12.31290        4.78400
O         -1.95770      -11.34720        5.44500
C         -3.07800      -13.45270        5.23220
C         -3.28890      -14.36040        4.14550
C         -4.03250      -15.44260        4.50220
S         -4.48100      -15.35920        6.16690
C         -3.65740      -13.83600        6.40180
C         -3.64170      -13.14310        7.70910
C         -2.63520      -13.84030        2.96480
C         -2.61470      -14.48060        1.75270
C         -1.97900      -14.04040        0.57610
N         -1.49590      -13.75060       -0.42570
C         -3.27260      -15.71520        1.57150
N         -3.79900      -16.72130        1.40470
C         -0.69670      -10.51350        2.62110
C         -0.69400       -9.61600        1.54330
C         -0.02820       -8.41540        1.67760
N          0.09390       -7.37320        0.79030
C         -0.49940       -7.28430       -0.51830
C         -1.83740       -6.54690       -0.49060
C          0.82010       -6.37770        1.39270
C          1.21820       -6.79300        2.68870
C          0.67740       -8.10120        2.87240
C          0.71950       -9.02490        3.91280
C          0.03720      -10.21130        3.78540
C          1.96090       -5.92640        3.48750
C          2.27060       -4.67760        3.00390
C          1.86160       -4.25820        1.72330
C          1.13680       -5.12360        0.90560
C          2.13110       -2.91080        1.27780
C          2.04070       -2.38480        0.00650
N          1.81710       -3.07830       -1.20780
C          2.94670       -3.07350       -2.05150
C          4.17920       -3.45320       -1.51900
C          5.31390       -3.42780       -2.30020
C          5.24390       -3.02520       -3.63090
S          6.75380       -3.00070       -4.55240
C          6.18590       -3.09970       -6.27590
C          4.02300       -2.63470       -4.16220
C          2.88720       -2.65390       -3.37720
C          0.52700       -3.08300       -1.74900
C          0.22410       -3.96210       -2.78960
C         -1.03100       -3.97970       -3.36430
C         -2.02160       -3.12650       -2.89670
S         -3.63980       -3.00530       -3.60000
C         -3.75360       -4.46600       -4.67400
C         -1.74430       -2.28630       -1.82310
C         -0.49090       -2.26760       -1.25140
C          2.24840       -0.99260        0.00490
S          2.06340        0.18670       -1.23220
C          2.22960        1.47160       -0.04290
C          2.56070        0.97820        1.22370
N          2.83890        1.76060        2.33590
C          3.84880        2.72280        2.29510
C          4.88440        2.63850        1.36820
C          5.86970        3.60630        1.31640
C          5.84120        4.67840        2.19590
S          7.04060        5.97380        2.23510
C          8.21480        5.52780        0.92550
C          4.80410        4.76980        3.12370
C          3.82230        3.81000        3.17310
C          2.17920        1.42860        3.52910
C          2.84130        1.41880        4.75240
C          2.16610        1.09780        5.91240
C          0.81650        0.77440        5.86800
S         -0.13730        0.36780        7.29470
C          0.82900        1.08680        8.65320
C          0.15870        0.74910        4.64110
C          0.83060        1.07600        3.48510
C          2.50310       -0.43370        1.24560
S          2.53160       -1.66730        2.46210
C          1.71900        2.75220       -0.35700
C          0.90340        3.05800       -1.44840
N          0.61610        2.22180       -2.53120
C          1.58510        1.85230       -3.45470
C          1.38040        0.76860       -4.31480
C          2.37440        0.36400       -5.17530
C          3.60670        1.00830       -5.18470
S          4.84790        0.39920       -6.29150
C          6.38260        0.74460       -5.38010
C          3.81480        2.09350       -4.34720
C          2.81330        2.51260       -3.49460
C         -0.74570        1.88650       -2.66890
C         -1.47030        1.54210       -1.52810
C         -2.80450        1.21960       -1.61890
C         -3.44380        1.22060       -2.85490
S         -5.15140        0.77530       -2.86640
C         -5.44870        0.31200       -4.59630
C         -2.73360        1.58360       -3.99030
C         -1.39760        1.92220       -3.89610
C          0.20950        4.26530       -1.24500
S         -1.03930        5.05460       -2.11400
C         -1.17920        6.27720       -0.85650
C         -0.21650        6.09390        0.16480
N         -0.06370        6.87710        1.28230
C          0.29720        6.28100        2.50220
C         -0.30490        5.09180        2.91600
C          0.04290        4.51900        4.11920
C          0.99320        5.12490        4.93810
S          1.35380        4.31970        6.46710
C          2.88900        5.11790        7.02410
C          1.58760        6.31400        4.53570
C          1.24610        6.88120        3.32470
C         -0.13110        8.27870        1.21320
C          0.42800        8.96390        0.13770
C          0.38230       10.34170        0.08390
C         -0.23370       11.05760        1.10450
S         -0.34800       12.81240        1.12960
C         -0.05490       13.27000       -0.60220
C         -0.78260       10.37350        2.18850
C         -0.73200        8.99920        2.24560
C          0.51630        4.91450       -0.05440
S          1.71210        4.03510        0.84630
C         -2.17980        7.25640       -0.92240
C         -3.41160        7.13930       -1.53140
C         -4.09410        5.86410       -1.86780
O         -3.64040        4.73530       -1.85400
C         -5.48640        6.23760       -2.13040
C         -5.63950        7.65510       -1.99760
C         -6.91130        8.07120       -2.22800
S         -7.93690        6.73040       -2.60590
C         -6.62910        5.57720       -2.45530
C         -6.82870        4.12750       -2.67090
C         -4.34860        8.22830       -1.67690
C         -4.08200        9.57710       -1.63840
C         -5.10890       10.52970       -1.77840
N         -5.94010       11.31640       -1.87500
C         -2.80320       10.14620       -1.56880
N         -1.78530       10.68160       -1.59510
H         -1.53240      -12.01740        1.39320
H         -4.35420      -16.27920        3.91530
H         -3.17450      -13.76710        8.47060
H         -3.08330      -12.21460        7.61230
H         -4.65620      -12.91990        8.03830
H         -1.23870       -9.86180        0.64360
H         -0.63590       -8.29740       -0.90370
H          0.19780       -6.75980       -1.17860
H         -2.53840       -7.05780        0.16520
H         -1.70400       -5.52930       -0.13110
H         -2.25910       -6.50580       -1.49110
H          1.27840       -8.80780        4.80990
H          0.07780      -10.93290        4.58220
H          2.27470       -6.22750        4.47500
H          2.83350       -3.98800        3.61590
H          0.80020       -4.80900       -0.06530
H          4.23850       -3.77170       -0.48880
H          6.26680       -3.72290       -1.88800
H          5.47620       -3.91570       -6.37170
H          7.07280       -3.30660       -6.86670
H          5.74580       -2.15700       -6.58880
H          3.95020       -2.28940       -5.18050
H          1.95010       -2.31620       -3.79300
H          0.99060       -4.62740       -3.16010
H         -1.21890       -4.66080       -4.17910
H         -4.78230       -4.49760       -5.01920
H         -3.08470       -4.36510       -5.52400
H         -3.52960       -5.36080       -4.10080
H         -2.51880       -1.63320       -1.45210
H         -0.30090       -1.60620       -0.42080
H          4.92470        1.80610        0.68080
H          6.65590        3.50440        0.58570
H          8.96960        6.30790        0.93280
H          7.71050        5.51200       -0.03630
H          8.67380        4.56900        1.14840
H          4.77680        5.61630        3.79300
H          3.00590        3.90030        3.87100
H          3.89340        1.65870        4.79330
H          2.70450        1.09600        6.84610
H          0.17630        1.07160        9.52030
H          1.71300        0.48710        8.85010
H          1.08870        2.10980        8.39820
H         -0.88730        0.48470        4.61050
H          0.31060        1.07900        2.53820
H          0.44910        0.22500       -4.27730
H          2.20930       -0.46960       -5.84050
H          7.15520        0.13790       -5.84190
H          6.25090        0.45130       -4.34310
H          6.64400        1.79550       -5.46340
H          4.75470        2.62330       -4.35370
H          2.98620        3.35900       -2.84610
H         -0.97580        1.52460       -0.56760
H         -3.36720        0.95910       -0.73550
H         -4.69160       -0.40100       -4.90750
H         -5.45410        1.19290       -5.23160
H         -6.42710       -0.15740       -4.61100
H         -3.21450        1.62610       -4.95450
H         -0.86030        2.23160       -4.78020
H         -1.05310        4.62560        2.29240
H         -0.41860        3.59820        4.44120
H          3.63320        5.06750        6.23490
H          3.22340        4.54570        7.88400
H          2.69530        6.14380        7.32300
H          2.32060        6.80750        5.15290
H          1.71840        7.80050        3.01280
H          0.90420        8.40900       -0.65720
H          0.83350       10.84680       -0.75270
H         -0.65170       12.62240       -1.23720
H          1.00360       13.19870       -0.83640
H         -0.38400       14.30010       -0.69660
H         -1.25710       10.93560        2.97810
H         -1.16610        8.47070        3.08150
H         -1.98640        8.17830       -0.38300
H         -7.32790        9.05800       -2.19810
H         -7.21790        3.93490       -3.67010
H         -5.87890        3.61210       -2.54630
H         -7.54430        3.72570       -1.95420
