106

C          4.57200       -0.85460        5.69290
C          5.16380       -2.06620        5.68700
C          5.00150       -3.07970        4.58770
O          4.29050       -2.99570        3.61320
C          5.79970       -4.22660        5.02050
C          6.36070       -3.97170        6.31490
C          7.10440       -5.01380        6.77830
S          7.12700       -6.30790        5.63860
C          6.11120       -5.44800        4.50780
C          5.71170       -6.02820        3.20700
C          5.96790       -2.65270        6.75690
C          6.33060       -2.08320        7.94640
C          5.97340       -0.79320        8.38650
N          5.72190        0.24520        8.80670
C          7.12990       -2.78070        8.87710
N          7.77500       -3.33840        9.64460
C          3.89640       -0.27650        4.54440
C          2.62140        0.30300        4.72170
O          2.14300        0.25310        5.98620
C          0.90550        0.85350        6.31010
C          1.99040        0.79310        3.58630
F          0.72490        1.28390        3.65920
C          2.57100        0.78060        2.31490
C          3.87610        0.30210        2.16100
O          4.62850        0.29690        1.03720
C          4.31710        1.14000       -0.04880
C          4.49500       -0.23570        3.29370
F          5.75570       -0.68110        3.16360
C          1.69640        1.16160        1.18580
C          1.23840        2.46630        0.98300
C          1.58120        3.64790        1.70440
C          0.94490        4.75600        1.26670
C          1.07300        6.15350        1.76320
C          1.72070        7.06000        0.71510
S         -0.12510        4.42000       -0.07840
C          0.31530        2.73660       -0.05330
C         -0.19030        1.74470       -0.88390
C          0.30450        0.44240       -0.70960
C          1.22480        0.17720        0.32970
S          1.66450       -1.50780        0.37340
C          0.65960       -1.82950       -1.02560
C          0.62940       -3.20020       -1.60370
C          1.96170       -3.54100       -2.27430
C          0.01920       -0.72580       -1.47270
C         -1.20140        1.97820       -1.90340
C         -2.39650        1.29630       -2.01870
O         -2.86110        0.38970       -1.11210
C         -2.90750        0.76310        0.26220
C         -2.66610       -0.47230        1.11220
C         -3.07300        1.57390       -3.23750
O         -4.25270        1.11330       -3.67970
C         -5.11640        0.35090       -2.84210
C         -4.77680       -1.13380       -2.83300
C         -2.37680        2.49490       -4.03100
S         -0.94230        3.06100       -3.21560
C         -2.69790        3.03650       -5.28520
C         -3.50660        2.55280       -6.27820
C         -3.99890        3.51010       -7.31170
O         -3.63900        4.65370       -7.46760
C         -5.02830        2.76150       -8.04790
C         -5.07810        1.41490       -7.55960
C         -6.00940        0.65090       -8.18660
S         -6.85690        1.55950       -9.38890
C         -5.92530        2.99940       -9.04320
Cl        -6.18730        4.44020       -9.89650
C         -4.06080        1.24910       -6.53460
C         -3.62210        0.02670       -6.08560
C         -2.47930       -0.19360       -5.30120
N         -1.54710       -0.43340       -4.67340
C         -4.27780       -1.16530       -6.44950
N         -4.81160       -2.14980       -6.70400
H          4.55710       -0.25320        6.59240
H          7.63790       -5.11830        7.70170
H          5.20460       -6.98200        3.34860
H          5.04470       -5.33520        2.69910
H          6.58650       -6.20570        2.58150
H          0.81080        0.74060        7.38880
H          0.89180        1.91550        6.05390
H          0.07110        0.34930        5.81720
H          5.24070        1.22060       -0.62170
H          3.53920        0.71350       -0.68690
H          4.00940        2.13380        0.28490
H          2.27830        3.64920        2.52420
H          0.08200        6.54400        2.00890
H          1.67480        6.14960        2.67430
H          1.12020        7.07730       -0.19160
H          2.71570        6.69940        0.46400
H          1.80450        8.07420        1.09630
H         -0.17740       -3.25250       -2.33710
H          0.42910       -3.92810       -0.81310
H          2.16770       -2.83850       -3.07840
H          2.77310       -3.49130       -1.55130
H          1.92660       -4.54460       -2.69010
H         -0.62350       -0.72680       -2.33460
H         -2.16090        1.52970        0.48460
H         -3.90410        1.18020        0.47230
H         -3.39790       -1.23860        0.87160
H         -1.67290       -0.86850        0.92100
H         -2.74870       -0.21320        2.16360
H         -5.11500        0.75360       -1.82640
H         -6.10610        0.50730       -3.28250
H         -4.84490       -1.54820       -3.83570
H         -5.48170       -1.65500       -2.19140
H         -3.77200       -1.28940       -2.45090
H         -2.27400        4.01550       -5.49140
H         -6.26840       -0.37710       -8.02870
