
  xtb     02072214043D
 energy: -329.942515553034 gnorm: 0.000589847690 xtb: 6.4.1 (unknown)
196212  0     0  0            999 V2000
    2.9732   -7.8337   -3.6369 C   0  0  0  0  0  0  0  0  0  0  0  0
    1.9901   -8.2124   -4.5125 C   0  0  0  0  0  0  0  0  0  0  0  0
    0.5684   -7.8420   -4.4203 C   0  0  0  0  0  0  0  0  0  0  0  0
    0.0415   -7.1353   -3.5747 O   0  0  0  0  0  0  0  0  0  0  0  0
   -0.0825   -8.5161   -5.5431 C   0  0  0  0  0  0  0  0  0  0  0  0
    0.8996   -9.2459   -6.2909 C   0  0  0  0  0  0  0  0  0  0  0  0
    0.3673   -9.9059   -7.3526 C   0  0  0  0  0  0  0  0  0  0  0  0
   -1.3378   -9.6443   -7.4489 S   0  0  0  0  0  0  0  0  0  0  0  0
   -1.3473   -8.6213   -6.0325 C   0  0  0  0  0  0  0  0  0  0  0  0
   -2.5909   -8.0073   -5.5154 C   0  0  0  0  0  0  0  0  0  0  0  0
    2.1980   -9.0489   -5.6792 C   0  0  0  0  0  0  0  0  0  0  0  0
    3.3783   -9.5367   -6.1812 C   0  0  0  0  0  0  0  0  0  0  0  0
    3.4029  -10.3255   -7.3490 C   0  0  0  0  0  0  0  0  0  0  0  0
    3.4433  -10.9726   -8.2962 N   0  0  0  0  0  0  0  0  0  0  0  0
    4.6608   -9.3105   -5.6520 C   0  0  0  0  0  0  0  0  0  0  0  0
    5.7398   -9.1582   -5.2842 N   0  0  0  0  0  0  0  0  0  0  0  0
    2.9314   -6.9217   -2.5735 C   0  0  0  0  0  0  0  0  0  0  0  0
    4.0751   -6.5749   -1.8583 C   0  0  0  0  0  0  0  0  0  0  0  0
    3.8892   -5.5054   -0.9932 C   0  0  0  0  0  0  0  0  0  0  0  0
    5.0661   -4.8083    0.1033 S   0  0  0  0  0  0  0  0  0  0  0  0
    6.6429   -5.5369   -0.4790 C   0  0  0  0  0  0  0  0  0  0  0  0
    7.7907   -4.7470    0.1208 C   0  0  0  0  0  0  0  0  0  0  0  0
    2.5814   -5.0265   -1.0247 C   0  0  0  0  0  0  0  0  0  0  0  0
    1.5676   -5.9599   -2.0711 S   0  0  0  0  0  0  0  0  0  0  0  0
    2.1002   -3.8224   -0.4247 C   0  0  0  0  0  0  0  0  0  0  0  0
    2.6533   -2.5572   -0.5658 C   0  0  0  0  0  0  0  0  0  0  0  0
    3.7903   -2.2649   -1.3127 N   0  0  0  0  0  0  0  0  0  0  0  0
    4.7775   -1.4632   -0.7340 C   0  0  0  0  0  0  0  0  0  0  0  0
    5.6022   -0.6613   -1.5219 C   0  0  0  0  0  0  0  0  0  0  0  0
    6.6070    0.0828   -0.9400 C   0  0  0  0  0  0  0  0  0  0  0  0
    6.7988    0.0459    0.4363 C   0  0  0  0  0  0  0  0  0  0  0  0
    8.1307    0.9929    1.1266 S   0  0  0  0  0  0  0  0  0  0  0  0
    8.6999   -0.1000    2.4669 C   0  0  0  0  0  0  0  0  0  0  0  0
    5.9491   -0.7095    1.2314 C   0  0  0  0  0  0  0  0  0  0  0  0
    4.9503   -1.4594    0.6495 C   0  0  0  0  0  0  0  0  0  0  0  0
    3.9816   -2.9425   -2.5230 C   0  0  0  0  0  0  0  0  0  0  0  0
    5.2346   -3.3993   -2.9233 C   0  0  0  0  0  0  0  0  0  0  0  0
    5.3709   -4.2122   -4.0338 C   0  0  0  0  0  0  0  0  0  0  0  0
    4.2552   -4.5733   -4.7761 C   0  0  0  0  0  0  0  0  0  0  0  0
    4.2715   -5.7042   -6.1342 S   0  0  0  0  0  0  0  0  0  0  0  0
    6.0295   -6.0680   -6.3919 C   0  0  0  0  0  0  0  0  0  0  0  0
    3.0126   -4.0451   -4.4327 C   0  0  0  0  0  0  0  0  0  0  0  0
    2.8781   -3.2376   -3.3273 C   0  0  0  0  0  0  0  0  0  0  0  0
    1.8427   -1.5796    0.0509 C   0  0  0  0  0  0  0  0  0  0  0  0
    1.9159    0.1444    0.1869 S   0  0  0  0  0  0  0  0  0  0  0  0
    0.3376    0.1701    0.9717 C   0  0  0  0  0  0  0  0  0  0  0  0
   -0.1583   -1.1149    1.1872 C   0  0  0  0  0  0  0  0  0  0  0  0
   -1.3412   -1.4162    1.8512 N   0  0  0  0  0  0  0  0  0  0  0  0
   -2.1179   -2.4539    1.3172 C   0  0  0  0  0  0  0  0  0  0  0  0
   -2.7010   -3.4251    2.1297 C   0  0  0  0  0  0  0  0  0  0  0  0
   -3.3799   -4.4812    1.5628 C   0  0  0  0  0  0  0  0  0  0  0  0
   -3.4809   -4.5972    0.1785 C   0  0  0  0  0  0  0  0  0  0  0  0
   -4.3419   -6.0032   -0.4516 S   0  0  0  0  0  0  0  0  0  0  0  0
   -3.7360   -6.1275   -2.1580 C   0  0  0  0  0  0  0  0  0  0  0  0
   -2.9333   -3.6133   -0.6325 C   0  0  0  0  0  0  0  0  0  0  0  0
   -2.2642   -2.5496   -0.0647 C   0  0  0  0  0  0  0  0  0  0  0  0
   -1.5923   -0.8956    3.1242 C   0  0  0  0  0  0  0  0  0  0  0  0
   -2.9074   -0.7065    3.5572 C   0  0  0  0  0  0  0  0  0  0  0  0
   -3.1589   -0.1513    4.7897 C   0  0  0  0  0  0  0  0  0  0  0  0
   -2.1084    0.2368    5.6209 C   0  0  0  0  0  0  0  0  0  0  0  0
   -2.5571    0.9636    7.1665 S   0  0  0  0  0  0  0  0  0  0  0  0
   -0.9723    1.1825    8.0240 C   0  0  0  0  0  0  0  0  0  0  0  0
   -0.8008    0.0468    5.1974 C   0  0  0  0  0  0  0  0  0  0  0  0
   -0.5475   -0.5196    3.9626 C   0  0  0  0  0  0  0  0  0  0  0  0
    0.6914   -2.0922    0.6299 C   0  0  0  0  0  0  0  0  0  0  0  0
    0.5639   -3.8023    0.4168 S   0  0  0  0  0  0  0  0  0  0  0  0
   -0.4012    1.3689    1.1249 C   0  0  0  0  0  0  0  0  0  0  0  0
    0.0066    2.6998    1.0356 C   0  0  0  0  0  0  0  0  0  0  0  0
    1.3151    3.1521    0.9838 N   0  0  0  0  0  0  0  0  0  0  0  0
    1.5221    4.3922    0.3424 C   0  0  0  0  0  0  0  0  0  0  0  0
    2.1779    5.4364    0.9917 C   0  0  0  0  0  0  0  0  0  0  0  0
    2.2538    6.6783    0.4017 C   0  0  0  0  0  0  0  0  0  0  0  0
    1.6727    6.9009   -0.8421 C   0  0  0  0  0  0  0  0  0  0  0  0
    1.7291    8.5400   -1.4979 S   0  0  0  0  0  0  0  0  0  0  0  0
    0.1735    8.6121   -2.4361 C   0  0  0  0  0  0  0  0  0  0  0  0
    1.0766    5.8480   -1.5213 C   0  0  0  0  0  0  0  0  0  0  0  0
    1.0024    4.6022   -0.9311 C   0  0  0  0  0  0  0  0  0  0  0  0
    2.3284    2.6261    1.7858 C   0  0  0  0  0  0  0  0  0  0  0  0
    2.0544    1.9648    2.9831 C   0  0  0  0  0  0  0  0  0  0  0  0
    3.0870    1.4993    3.7698 C   0  0  0  0  0  0  0  0  0  0  0  0
    4.4068    1.6970    3.3851 C   0  0  0  0  0  0  0  0  0  0  0  0
    5.6959    1.1264    4.4620 S   0  0  0  0  0  0  0  0  0  0  0  0
    6.8848    2.5009    4.3495 C   0  0  0  0  0  0  0  0  0  0  0  0
    4.6881    2.3265    2.1802 C   0  0  0  0  0  0  0  0  0  0  0  0
    3.6576    2.7831    1.3885 C   0  0  0  0  0  0  0  0  0  0  0  0
   -1.1051    3.5748    1.0051 C   0  0  0  0  0  0  0  0  0  0  0  0
   -1.2758    5.2936    0.9101 S   0  0  0  0  0  0  0  0  0  0  0  0
   -3.0368    5.1425    0.9948 C   0  0  0  0  0  0  0  0  0  0  0  0
   -3.4378    3.7918    1.1731 C   0  0  0  0  0  0  0  0  0  0  0  0
   -4.7158    3.3423    1.3772 N   0  0  0  0  0  0  0  0  0  0  0  0
   -5.6531    4.0363    2.1608 C   0  0  0  0  0  0  0  0  0  0  0  0
   -7.0123    3.9414    1.8609 C   0  0  0  0  0  0  0  0  0  0  0  0
   -7.9380    4.6058    2.6329 C   0  0  0  0  0  0  0  0  0  0  0  0
   -7.5307    5.3885    3.7116 C   0  0  0  0  0  0  0  0  0  0  0  0
   -8.8066    6.2063    4.6115 S   0  0  0  0  0  0  0  0  0  0  0  0
   -7.9126    7.2123    5.8310 C   0  0  0  0  0  0  0  0  0  0  0  0
   -6.1784    5.4737    4.0206 C   0  0  0  0  0  0  0  0  0  0  0  0
   -5.2503    4.7958    3.2561 C   0  0  0  0  0  0  0  0  0  0  0  0
   -5.0319    2.0375    0.9483 C   0  0  0  0  0  0  0  0  0  0  0  0
   -5.6600    1.1364    1.8012 C   0  0  0  0  0  0  0  0  0  0  0  0
   -5.9433   -0.1487    1.3805 C   0  0  0  0  0  0  0  0  0  0  0  0
   -5.6002   -0.5541    0.0966 C   0  0  0  0  0  0  0  0  0  0  0  0
   -5.9154   -2.1591   -0.5553 S   0  0  0  0  0  0  0  0  0  0  0  0
   -6.5499   -3.1002    0.8580 C   0  0  0  0  0  0  0  0  0  0  0  0
   -4.9826    0.3528   -0.7640 C   0  0  0  0  0  0  0  0  0  0  0  0
   -4.7040    1.6338   -0.3466 C   0  0  0  0  0  0  0  0  0  0  0  0
   -2.3306    2.9330    1.1149 C   0  0  0  0  0  0  0  0  0  0  0  0
   -2.1547    1.2189    1.2399 S   0  0  0  0  0  0  0  0  0  0  0  0
   -3.9327    6.1858    0.7877 C   0  0  0  0  0  0  0  0  0  0  0  0
   -3.7105    7.5301    0.5644 C   0  0  0  0  0  0  0  0  0  0  0  0
   -2.4106    8.2111    0.5837 C   0  0  0  0  0  0  0  0  0  0  0  0
   -1.3025    7.7085    0.7065 O   0  0  0  0  0  0  0  0  0  0  0  0
   -2.7067    9.6332    0.4163 C   0  0  0  0  0  0  0  0  0  0  0  0
   -4.1229    9.8062    0.2847 C   0  0  0  0  0  0  0  0  0  0  0  0
   -4.4779   11.1068    0.1224 C   0  0  0  0  0  0  0  0  0  0  0  0
   -3.0840   12.1324    0.1310 S   0  0  0  0  0  0  0  0  0  0  0  0
   -1.9895   10.7865    0.3547 C   0  0  0  0  0  0  0  0  0  0  0  0
   -0.5252   10.9709    0.4624 C   0  0  0  0  0  0  0  0  0  0  0  0
   -4.7582    8.5023    0.3436 C   0  0  0  0  0  0  0  0  0  0  0  0
   -6.1081    8.2937    0.1790 C   0  0  0  0  0  0  0  0  0  0  0  0
   -6.7470    7.0460    0.0921 C   0  0  0  0  0  0  0  0  0  0  0  0
   -7.3242    6.0584   -0.0296 N   0  0  0  0  0  0  0  0  0  0  0  0
   -6.9944    9.3768    0.0249 C   0  0  0  0  0  0  0  0  0  0  0  0
   -7.7293   10.2519   -0.0890 N   0  0  0  0  0  0  0  0  0  0  0  0
    3.9598   -8.2480   -3.8051 H   0  0  0  0  0  0  0  0  0  0  0  0
    0.8438  -10.5269   -8.0844 H   0  0  0  0  0  0  0  0  0  0  0  0
   -3.0592   -7.3849   -6.2773 H   0  0  0  0  0  0  0  0  0  0  0  0
   -2.3521   -7.3966   -4.6479 H   0  0  0  0  0  0  0  0  0  0  0  0
   -3.3074   -8.7766   -5.2282 H   0  0  0  0  0  0  0  0  0  0  0  0
    5.0069   -7.0900   -2.0056 H   0  0  0  0  0  0  0  0  0  0  0  0
    6.6472   -5.4738   -1.5663 H   0  0  0  0  0  0  0  0  0  0  0  0
    6.6736   -6.5797   -0.1629 H   0  0  0  0  0  0  0  0  0  0  0  0
    7.7605   -4.7975    1.2067 H   0  0  0  0  0  0  0  0  0  0  0  0
    7.7273   -3.7012   -0.1745 H   0  0  0  0  0  0  0  0  0  0  0  0
    8.7397   -5.1532   -0.2223 H   0  0  0  0  0  0  0  0  0  0  0  0
    5.4575   -0.6338   -2.5916 H   0  0  0  0  0  0  0  0  0  0  0  0
    7.2545    0.6951   -1.5489 H   0  0  0  0  0  0  0  0  0  0  0  0
    8.0026   -0.0843    3.2992 H   0  0  0  0  0  0  0  0  0  0  0  0
    8.8129   -1.1065    2.0763 H   0  0  0  0  0  0  0  0  0  0  0  0
    9.6622    0.2900    2.7832 H   0  0  0  0  0  0  0  0  0  0  0  0
    6.0647   -0.7292    2.3030 H   0  0  0  0  0  0  0  0  0  0  0  0
    4.3144   -2.0715    1.2703 H   0  0  0  0  0  0  0  0  0  0  0  0
    6.1057   -3.1434   -2.3393 H   0  0  0  0  0  0  0  0  0  0  0  0
    6.3518   -4.5771   -4.2953 H   0  0  0  0  0  0  0  0  0  0  0  0
    6.5788   -5.1434   -6.5420 H   0  0  0  0  0  0  0  0  0  0  0  0
    6.0723   -6.6735   -7.2921 H   0  0  0  0  0  0  0  0  0  0  0  0
    6.4192   -6.6410   -5.5553 H   0  0  0  0  0  0  0  0  0  0  0  0
    2.1513   -4.2943   -5.0332 H   0  0  0  0  0  0  0  0  0  0  0  0
    1.9060   -2.8501   -3.0620 H   0  0  0  0  0  0  0  0  0  0  0  0
   -2.5958   -3.3620    3.2024 H   0  0  0  0  0  0  0  0  0  0  0  0
   -3.8198   -5.2441    2.1873 H   0  0  0  0  0  0  0  0  0  0  0  0
   -4.1641   -5.3361   -2.7671 H   0  0  0  0  0  0  0  0  0  0  0  0
   -4.0788   -7.0925   -2.5182 H   0  0  0  0  0  0  0  0  0  0  0  0
   -2.6504   -6.0906   -2.1608 H   0  0  0  0  0  0  0  0  0  0  0  0
   -3.0287   -3.6606   -1.7045 H   0  0  0  0  0  0  0  0  0  0  0  0
   -1.8448   -1.7799   -0.6956 H   0  0  0  0  0  0  0  0  0  0  0  0
   -3.7231   -0.9765    2.9043 H   0  0  0  0  0  0  0  0  0  0  0  0
   -4.1741    0.0021    5.1224 H   0  0  0  0  0  0  0  0  0  0  0  0
   -1.2233    1.5734    9.0052 H   0  0  0  0  0  0  0  0  0  0  0  0
   -0.3530    1.8984    7.4910 H   0  0  0  0  0  0  0  0  0  0  0  0
   -0.4722    0.2239    8.1258 H   0  0  0  0  0  0  0  0  0  0  0  0
    0.0340    0.3300    5.8182 H   0  0  0  0  0  0  0  0  0  0  0  0
    0.4744   -0.6729    3.6475 H   0  0  0  0  0  0  0  0  0  0  0  0
    2.5925    5.2774    1.9760 H   0  0  0  0  0  0  0  0  0  0  0  0
    2.7327    7.4981    0.9141 H   0  0  0  0  0  0  0  0  0  0  0  0
   -0.6110    8.1649   -1.8339 H   0  0  0  0  0  0  0  0  0  0  0  0
   -0.0332    9.6642   -2.6042 H   0  0  0  0  0  0  0  0  0  0  0  0
    0.2769    8.1041   -3.3905 H   0  0  0  0  0  0  0  0  0  0  0  0
    0.6575    5.9914   -2.5046 H   0  0  0  0  0  0  0  0  0  0  0  0
    0.5191    3.7861   -1.4485 H   0  0  0  0  0  0  0  0  0  0  0  0
    1.0321    1.8408    3.3084 H   0  0  0  0  0  0  0  0  0  0  0  0
    2.8785    0.9974    4.7027 H   0  0  0  0  0  0  0  0  0  0  0  0
    7.4118    2.4770    3.4004 H   0  0  0  0  0  0  0  0  0  0  0  0
    6.3494    3.4372    4.4704 H   0  0  0  0  0  0  0  0  0  0  0  0
    7.5855    2.3613    5.1666 H   0  0  0  0  0  0  0  0  0  0  0  0
    5.7062    2.4597    1.8512 H   0  0  0  0  0  0  0  0  0  0  0  0
    3.8770    3.2692    0.4502 H   0  0  0  0  0  0  0  0  0  0  0  0
   -7.3336    3.3572    1.0134 H   0  0  0  0  0  0  0  0  0  0  0  0
   -8.9879    4.5441    2.3951 H   0  0  0  0  0  0  0  0  0  0  0  0
   -8.6769    7.7684    6.3646 H   0  0  0  0  0  0  0  0  0  0  0  0
   -7.3736    6.5718    6.5230 H   0  0  0  0  0  0  0  0  0  0  0  0
   -7.2432    7.9006    5.3234 H   0  0  0  0  0  0  0  0  0  0  0  0
   -5.8329    6.0541    4.8607 H   0  0  0  0  0  0  0  0  0  0  0  0
   -4.2024    4.8575    3.5107 H   0  0  0  0  0  0  0  0  0  0  0  0
   -5.9194    1.4435    2.8034 H   0  0  0  0  0  0  0  0  0  0  0  0
   -6.4305   -0.8247    2.0649 H   0  0  0  0  0  0  0  0  0  0  0  0
   -5.8262   -3.0765    1.6674 H   0  0  0  0  0  0  0  0  0  0  0  0
   -7.5136   -2.7067    1.1676 H   0  0  0  0  0  0  0  0  0  0  0  0
   -6.6623   -4.1197    0.5016 H   0  0  0  0  0  0  0  0  0  0  0  0
   -4.7322    0.0368   -1.7647 H   0  0  0  0  0  0  0  0  0  0  0  0
   -4.2320    2.3352   -1.0186 H   0  0  0  0  0  0  0  0  0  0  0  0
   -4.9719    5.8807    0.7921 H   0  0  0  0  0  0  0  0  0  0  0  0
   -5.4477   11.5456    0.0002 H   0  0  0  0  0  0  0  0  0  0  0  0
   -0.1358   11.5144   -0.3975 H   0  0  0  0  0  0  0  0  0  0  0  0
   -0.0428    9.9977    0.5218 H   0  0  0  0  0  0  0  0  0  0  0  0
   -0.2774   11.5448    1.3554 H   0  0  0  0  0  0  0  0  0  0  0  0
  1  2  2  0  0  0  0
  2  3  1  0  0  0  0
  3  4  2  0  0  0  0
  3  5  1  0  0  0  0
  5  6  1  0  0  0  0
  6  7  2  0  0  0  0
  7  8  1  0  0  0  0
  8  9  1  0  0  0  0
  9 10  1  0  0  0  0
  6 11  1  0  0  0  0
 11 12  2  0  0  0  0
 12 13  1  0  0  0  0
 13 14  3  0  0  0  0
 12 15  1  0  0  0  0
 15 16  3  0  0  0  0
  1 17  1  0  0  0  0
 17 18  2  0  0  0  0
 18 19  1  0  0  0  0
 19 20  1  0  0  0  0
 20 21  1  0  0  0  0
 21 22  1  0  0  0  0
 19 23  2  0  0  0  0
 23 24  1  0  0  0  0
 23 25  1  0  0  0  0
 25 26  2  0  0  0  0
 26 27  1  0  0  0  0
 27 28  1  0  0  0  0
 28 29  2  0  0  0  0
 29 30  1  0  0  0  0
 30 31  2  0  0  0  0
 31 32  1  0  0  0  0
 32 33  1  0  0  0  0
 31 34  1  0  0  0  0
 34 35  2  0  0  0  0
 27 36  1  0  0  0  0
 36 37  2  0  0  0  0
 37 38  1  0  0  0  0
 38 39  2  0  0  0  0
 39 40  1  0  0  0  0
 40 41  1  0  0  0  0
 39 42  1  0  0  0  0
 42 43  2  0  0  0  0
 26 44  1  0  0  0  0
 44 45  1  0  0  0  0
 45 46  1  0  0  0  0
 46 47  2  0  0  0  0
 47 48  1  0  0  0  0
 48 49  1  0  0  0  0
 49 50  2  0  0  0  0
 50 51  1  0  0  0  0
 51 52  2  0  0  0  0
 52 53  1  0  0  0  0
 53 54  1  0  0  0  0
 52 55  1  0  0  0  0
 55 56  2  0  0  0  0
 48 57  1  0  0  0  0
 57 58  2  0  0  0  0
 58 59  1  0  0  0  0
 59 60  2  0  0  0  0
 60 61  1  0  0  0  0
 61 62  1  0  0  0  0
 60 63  1  0  0  0  0
 63 64  2  0  0  0  0
 47 65  1  0  0  0  0
 65 66  1  0  0  0  0
 46 67  1  0  0  0  0
 67 68  2  0  0  0  0
 68 69  1  0  0  0  0
 69 70  1  0  0  0  0
 70 71  2  0  0  0  0
 71 72  1  0  0  0  0
 72 73  2  0  0  0  0
 73 74  1  0  0  0  0
 74 75  1  0  0  0  0
 73 76  1  0  0  0  0
 76 77  2  0  0  0  0
 69 78  1  0  0  0  0
 78 79  2  0  0  0  0
 79 80  1  0  0  0  0
 80 81  2  0  0  0  0
 81 82  1  0  0  0  0
 82 83  1  0  0  0  0
 81 84  1  0  0  0  0
 84 85  2  0  0  0  0
 68 86  1  0  0  0  0
 86 87  1  0  0  0  0
 87 88  1  0  0  0  0
 88 89  2  0  0  0  0
 89 90  1  0  0  0  0
 90 91  1  0  0  0  0
 91 92  2  0  0  0  0
 92 93  1  0  0  0  0
 93 94  2  0  0  0  0
 94 95  1  0  0  0  0
 95 96  1  0  0  0  0
 94 97  1  0  0  0  0
 97 98  2  0  0  0  0
 90 99  1  0  0  0  0
 99100  2  0  0  0  0
100101  1  0  0  0  0
101102  2  0  0  0  0
102103  1  0  0  0  0
103104  1  0  0  0  0
102105  1  0  0  0  0
105106  2  0  0  0  0
 89107  1  0  0  0  0
107108  1  0  0  0  0
 88109  1  0  0  0  0
109110  2  0  0  0  0
110111  1  0  0  0  0
111112  2  0  0  0  0
111113  1  0  0  0  0
113114  1  0  0  0  0
114115  2  0  0  0  0
115116  1  0  0  0  0
116117  1  0  0  0  0
117118  1  0  0  0  0
114119  1  0  0  0  0
119120  2  0  0  0  0
120121  1  0  0  0  0
121122  3  0  0  0  0
120123  1  0  0  0  0
123124  3  0  0  0  0
 11  2  1  0  0  0  0
 24 17  1  0  0  0  0
 66 25  1  0  0  0  0
108 67  1  0  0  0  0
119110  1  0  0  0  0
  9  5  2  0  0  0  0
 35 28  1  0  0  0  0
 43 36  1  0  0  0  0
 65 44  2  0  0  0  0
 77 70  1  0  0  0  0
 85 78  1  0  0  0  0
107 86  2  0  0  0  0
117113  2  0  0  0  0
 56 49  1  0  0  0  0
 64 57  1  0  0  0  0
 98 91  1  0  0  0  0
106 99  1  0  0  0  0
  1125  1  0  0  0  0
  7126  1  0  0  0  0
 10127  1  0  0  0  0
 10128  1  0  0  0  0
 10129  1  0  0  0  0
 18130  1  0  0  0  0
 21131  1  0  0  0  0
 21132  1  0  0  0  0
 22133  1  0  0  0  0
 22134  1  0  0  0  0
 22135  1  0  0  0  0
 29136  1  0  0  0  0
 30137  1  0  0  0  0
 33138  1  0  0  0  0
 33139  1  0  0  0  0
 33140  1  0  0  0  0
 34141  1  0  0  0  0
 35142  1  0  0  0  0
 37143  1  0  0  0  0
 38144  1  0  0  0  0
 41145  1  0  0  0  0
 41146  1  0  0  0  0
 41147  1  0  0  0  0
 42148  1  0  0  0  0
 43149  1  0  0  0  0
 50150  1  0  0  0  0
 51151  1  0  0  0  0
 54152  1  0  0  0  0
 54153  1  0  0  0  0
 54154  1  0  0  0  0
 55155  1  0  0  0  0
 56156  1  0  0  0  0
 58157  1  0  0  0  0
 59158  1  0  0  0  0
 62159  1  0  0  0  0
 62160  1  0  0  0  0
 62161  1  0  0  0  0
 63162  1  0  0  0  0
 64163  1  0  0  0  0
 71164  1  0  0  0  0
 72165  1  0  0  0  0
 75166  1  0  0  0  0
 75167  1  0  0  0  0
 75168  1  0  0  0  0
 76169  1  0  0  0  0
 77170  1  0  0  0  0
 79171  1  0  0  0  0
 80172  1  0  0  0  0
 83173  1  0  0  0  0
 83174  1  0  0  0  0
 83175  1  0  0  0  0
 84176  1  0  0  0  0
 85177  1  0  0  0  0
 92178  1  0  0  0  0
 93179  1  0  0  0  0
 96180  1  0  0  0  0
 96181  1  0  0  0  0
 96182  1  0  0  0  0
 97183  1  0  0  0  0
 98184  1  0  0  0  0
100185  1  0  0  0  0
101186  1  0  0  0  0
104187  1  0  0  0  0
104188  1  0  0  0  0
104189  1  0  0  0  0
105190  1  0  0  0  0
106191  1  0  0  0  0
109192  1  0  0  0  0
115193  1  0  0  0  0
118194  1  0  0  0  0
118195  1  0  0  0  0
118196  1  0  0  0  0
M  END
