211

C         -8.35180       -3.56180       -3.31920
C         -9.09840       -3.28280       -2.22530
C         -8.53900       -2.67400       -0.97280
O         -7.37350       -2.51740       -0.68060
C         -9.71670       -2.25990       -0.20870
C        -10.91120       -2.65450       -0.89690
C        -12.04260       -2.30950       -0.22500
S        -11.65860       -1.49650        1.24840
C         -9.93790       -1.61880        0.97180
C         -8.94690       -1.07490        1.92490
C        -10.55110       -3.33370       -2.12070
C        -11.42100       -3.97020       -2.96390
C        -12.81160       -3.95610       -2.73120
N        -13.94460       -3.94380       -2.55060
C        -11.03530       -4.71800       -4.09320
N        -10.76340       -5.35950       -5.00580
C         -6.90330       -3.45360       -3.31450
C         -6.31110       -2.46260       -4.11160
C         -5.01820       -2.05210       -3.89320
C         -4.21820       -2.65530       -2.90960
C         -4.70790       -3.80750       -2.28570
C         -4.13950       -4.76270       -1.35410
C         -2.91230       -5.10240       -0.90300
C         -1.60140       -4.64750       -1.27800
C         -0.50600       -4.62520       -0.36180
C          0.64440       -4.20210       -0.92900
S          0.44830       -3.84710       -2.60730
C         -1.21210       -4.25460       -2.53140
C         -5.26590       -5.65030       -0.95530
O         -5.24290       -6.58350       -0.18120
N         -6.36090       -5.27760       -1.69960
C         -7.55040       -6.09870       -1.72640
C         -8.34860       -6.01050       -0.43020
C         -6.06360       -4.16890       -2.46440
C         -3.02240       -1.97650       -2.46410
C         -2.13070       -1.20790       -3.18530
N         -2.14380       -1.11860       -4.58960
C         -1.47590       -2.19010       -5.25240
C         -0.10070       -2.13440       -5.43930
C          0.56760       -3.17660       -6.05440
C         -0.14020       -4.29200       -6.48360
S          0.59370       -5.69120       -7.26530
C          2.37050       -5.32020       -7.25680
C         -1.52170       -4.34410       -6.30220
C         -2.18710       -3.30150       -5.69150
C         -2.23240        0.11000       -5.23290
C         -2.49290        1.29130       -4.53980
C         -2.64010        2.48680       -5.21500
C         -2.54340        2.52870       -6.59730
S         -2.74420        4.02060       -7.53210
C         -1.95850        5.24920       -6.44800
C         -2.31970        1.34960       -7.29800
C         -2.16000        0.15750       -6.62810
C         -1.17750       -0.59930       -2.33560
S          0.20580        0.41200       -2.57460
C          0.48920        0.48750       -0.83910
C         -0.40780       -0.31320       -0.13830
N         -0.35840       -0.59770        1.22190
C          0.85570       -0.87290        1.85120
C          1.91230       -1.44220        1.14530
C          3.14510       -1.62280        1.74110
C          3.35050       -1.21800        3.05280
S          4.91790       -1.29090        3.86760
C          5.84840       -2.50290        2.88590
C          2.28730       -0.67960        3.77490
C          1.05320       -0.51790        3.18790
C         -1.58040       -0.68440        1.90070
C         -1.83560       -1.72590        2.78840
C         -3.07810       -1.85210        3.37640
C         -4.08590       -0.94470        3.07620
S         -5.71210       -1.06480        3.76730
C         -5.92040       -2.86140        3.95230
C         -3.82290        0.12220        2.22290
C         -2.58000        0.25420        1.64470
C         -1.36790       -0.88910       -0.99420
S         -2.73720       -1.90390       -0.73920
C          1.44930        1.32860       -0.19990
C          2.75020        1.69930       -0.51420
N          3.42130        1.38470       -1.68870
C          2.83340        1.67430       -2.92580
C          1.97880        2.76810       -3.07280
C          1.39040        3.03010       -4.29000
C          1.63950        2.21030       -5.38720
S          0.85140        2.65270       -6.90100
C          1.08540        1.19820       -7.95610
C          2.50360        1.13020       -5.24890
C          3.09670        0.86810       -4.03100
C          4.79660        1.12410       -1.59800
C          5.27230        0.35390       -0.53910
C          6.62680        0.18190       -0.34760
C          7.53070        0.77430       -1.21700
S          9.27730        0.66300       -0.97500
C          9.38450        0.57780        0.83910
C          7.06010        1.48340       -2.31690
C          5.70690        1.66080       -2.50700
C          3.35530        2.40850        0.55680
S          4.96540        2.95440        0.85870
C          4.49630        3.50680        2.47030
C          3.14970        3.16760        2.77040
N          2.55110        3.28250        3.99330
C          3.27490        3.16530        5.19850
C          2.92800        3.96520        6.28150
C          3.65120        3.90210        7.45680
C          4.73970        3.04700        7.55570
S          5.78260        2.96570        8.97570
C          5.46100        4.54610        9.81060
C          5.04530        2.19540        6.49370
C          4.31620        2.24550        5.32800
C          1.14560        3.26870        4.07450
C          0.37720        4.10230        3.26120
C         -0.99760        4.03100        3.30210
C         -1.63670        3.13130        4.15450
S         -3.39480        3.07960        4.07270
C         -3.86050        1.83840        5.30960
C         -0.87310        2.33910        5.00310
C          0.50490        2.41260        4.96480
C          2.52090        2.60390        1.64850
S          0.93130        2.00190        1.34670
C          5.31060        4.26770        3.30410
C          6.64030        4.61570        3.18190
C          7.57930        4.12480        2.16400
O          7.35150        3.34490        1.25030
C          8.87340        4.71840        2.50050
C          8.73540        5.49430        3.69730
C          9.90020        6.07520        4.08420
S         11.17640        5.68830        2.98340
C         10.12690        4.71960        1.97340
C         10.61820        4.07050        0.73740
C          7.34970        5.45260        4.12350
C          6.86410        6.12480        5.22050
C          7.71940        6.84570        6.07600
N          8.39110        7.42670        6.80440
C          5.52150        6.21930        5.61720
N          4.44780        6.36890        6.00350
H         -8.83420       -3.74230       -4.27290
H        -13.06950       -2.46650       -0.48820
H         -9.02970        0.00990        1.98850
H         -7.94420       -1.33020        1.58990
H         -9.10860       -1.47400        2.92520
H         -6.92590       -1.93640       -4.82650
H         -4.63310       -1.19960       -4.42960
H         -2.91930       -5.87490       -0.13890
H         -0.60370       -4.89390        0.67440
H          1.60850       -4.08970       -0.47490
H         -1.79950       -4.23980       -3.42660
H         -8.15480       -5.80660       -2.58860
H         -7.22410       -7.13640       -1.86150
H         -8.63220       -4.98460       -0.20990
H         -7.74140       -6.38300        0.39060
H         -9.24730       -6.61670       -0.50980
H          0.44650       -1.26780       -5.09410
H          1.63540       -3.10890       -6.18380
H          2.84970       -6.18750       -7.70020
H          2.57200       -4.44080       -7.86190
H          2.71660       -5.18870       -6.23580
H         -2.06230       -5.21310       -6.64500
H         -3.25670       -3.34050       -5.55030
H         -2.59650        1.27820       -3.46560
H         -2.83950        3.38440       -4.65060
H         -1.81110        6.13550       -7.05650
H         -1.00090        4.85780       -6.11820
H         -2.60290        5.48530       -5.60610
H         -2.27200        1.37890       -8.37570
H         -1.98750       -0.75190       -7.18500
H          1.76970       -1.73280        0.11530
H          3.93840       -2.07910        1.16980
H          6.10030       -2.09230        1.91240
H          5.26650       -3.41440        2.78750
H          6.75600       -2.70100        3.44760
H          2.45040       -0.37720        4.79810
H          0.23890       -0.07970        3.74420
H         -1.05960       -2.44550        3.00390
H         -3.25780       -2.66990        4.05650
H         -5.59140       -3.35270        3.04170
H         -5.37000       -3.22320        4.81590
H         -6.98210       -3.02790        4.10360
H         -4.59990        0.84190        2.01870
H         -2.37430        1.08140        0.98210
H          1.78200        3.41000       -2.22710
H          0.73090        3.87650       -4.40310
H          0.70060        0.31740       -7.45020
H          0.50280        1.39340       -8.85080
H          2.13360        1.08610       -8.21850
H          2.72300        0.48660       -6.08590
H          3.76590        0.02700       -3.92540
H          4.56640       -0.08200        0.15260
H          6.97430       -0.39840        0.49230
H          9.16760       -0.42790        1.18820
H          8.69120        1.30150        1.25770
H         10.40660        0.83670        1.09570
H          7.76800        1.92520       -3.00100
H          5.35090        2.25160       -3.33760
H          2.10390        4.65590        6.19420
H          3.36980        4.54380        8.27480
H          6.26050        4.66520       10.53520
H          5.49510        5.35170        9.08310
H          4.50320        4.51630       10.32220
H          5.86170        1.49740        6.59430
H          4.56000        1.58440        4.51010
H          0.86660        4.80210        2.60060
H         -1.59590        4.66810        2.66960
H         -4.94050        1.75030        5.24430
H         -3.40540        0.88380        5.06360
H         -3.57400        2.17640        6.30120
H         -1.33820        1.65180        5.69120
H          1.09460        1.78750        5.61860
H          4.80760        4.65700        4.18060
H         10.11000        6.70100        4.92820
H          9.80110        3.53640        0.25850
H         11.42550        3.37330        0.96000
H         11.00920        4.81610        0.04530
