
  xtb     02122223353D
 energy: -355.510339808518 gnorm: 0.000769063244 xtb: 6.4.1 (unknown)
211229  0     0  0            999 V2000
   -8.3518   -3.5618   -3.3192 C   0  0  0  0  0  0  0  0  0  0  0  0
   -9.0984   -3.2828   -2.2253 C   0  0  0  0  0  0  0  0  0  0  0  0
   -8.5390   -2.6740   -0.9728 C   0  0  0  0  0  0  0  0  0  0  0  0
   -7.3735   -2.5174   -0.6806 O   0  0  0  0  0  0  0  0  0  0  0  0
   -9.7167   -2.2599   -0.2087 C   0  0  0  0  0  0  0  0  0  0  0  0
  -10.9112   -2.6545   -0.8969 C   0  0  0  0  0  0  0  0  0  0  0  0
  -12.0426   -2.3095   -0.2250 C   0  0  0  0  0  0  0  0  0  0  0  0
  -11.6586   -1.4965    1.2484 S   0  0  0  0  0  0  0  0  0  0  0  0
   -9.9379   -1.6188    0.9718 C   0  0  0  0  0  0  0  0  0  0  0  0
   -8.9469   -1.0749    1.9249 C   0  0  0  0  0  0  0  0  0  0  0  0
  -10.5511   -3.3337   -2.1207 C   0  0  0  0  0  0  0  0  0  0  0  0
  -11.4210   -3.9702   -2.9639 C   0  0  0  0  0  0  0  0  0  0  0  0
  -12.8116   -3.9561   -2.7312 C   0  0  0  0  0  0  0  0  0  0  0  0
  -13.9446   -3.9438   -2.5506 N   0  0  0  0  0  0  0  0  0  0  0  0
  -11.0353   -4.7180   -4.0932 C   0  0  0  0  0  0  0  0  0  0  0  0
  -10.7634   -5.3595   -5.0058 N   0  0  0  0  0  0  0  0  0  0  0  0
   -6.9033   -3.4536   -3.3145 C   0  0  0  0  0  0  0  0  0  0  0  0
   -6.3111   -2.4626   -4.1116 C   0  0  0  0  0  0  0  0  0  0  0  0
   -5.0182   -2.0521   -3.8932 C   0  0  0  0  0  0  0  0  0  0  0  0
   -4.2182   -2.6553   -2.9096 C   0  0  0  0  0  0  0  0  0  0  0  0
   -4.7079   -3.8075   -2.2857 C   0  0  0  0  0  0  0  0  0  0  0  0
   -4.1395   -4.7627   -1.3541 C   0  0  0  0  0  0  0  0  0  0  0  0
   -2.9123   -5.1024   -0.9030 C   0  0  0  0  0  0  0  0  0  0  0  0
   -1.6014   -4.6475   -1.2780 C   0  0  0  0  0  0  0  0  0  0  0  0
   -0.5060   -4.6252   -0.3618 C   0  0  0  0  0  0  0  0  0  0  0  0
    0.6444   -4.2021   -0.9290 C   0  0  0  0  0  0  0  0  0  0  0  0
    0.4483   -3.8471   -2.6073 S   0  0  0  0  0  0  0  0  0  0  0  0
   -1.2121   -4.2546   -2.5314 C   0  0  0  0  0  0  0  0  0  0  0  0
   -5.2659   -5.6503   -0.9553 C   0  0  0  0  0  0  0  0  0  0  0  0
   -5.2429   -6.5835   -0.1812 O   0  0  0  0  0  0  0  0  0  0  0  0
   -6.3609   -5.2776   -1.6996 N   0  0  0  0  0  0  0  0  0  0  0  0
   -7.5504   -6.0987   -1.7264 C   0  0  0  0  0  0  0  0  0  0  0  0
   -8.3486   -6.0105   -0.4302 C   0  0  0  0  0  0  0  0  0  0  0  0
   -6.0636   -4.1689   -2.4644 C   0  0  0  0  0  0  0  0  0  0  0  0
   -3.0224   -1.9765   -2.4641 C   0  0  0  0  0  0  0  0  0  0  0  0
   -2.1307   -1.2079   -3.1853 C   0  0  0  0  0  0  0  0  0  0  0  0
   -2.1438   -1.1186   -4.5896 N   0  0  0  0  0  0  0  0  0  0  0  0
   -1.4759   -2.1901   -5.2524 C   0  0  0  0  0  0  0  0  0  0  0  0
   -0.1007   -2.1344   -5.4393 C   0  0  0  0  0  0  0  0  0  0  0  0
    0.5676   -3.1766   -6.0544 C   0  0  0  0  0  0  0  0  0  0  0  0
   -0.1402   -4.2920   -6.4836 C   0  0  0  0  0  0  0  0  0  0  0  0
    0.5937   -5.6912   -7.2653 S   0  0  0  0  0  0  0  0  0  0  0  0
    2.3705   -5.3202   -7.2568 C   0  0  0  0  0  0  0  0  0  0  0  0
   -1.5217   -4.3441   -6.3022 C   0  0  0  0  0  0  0  0  0  0  0  0
   -2.1871   -3.3015   -5.6915 C   0  0  0  0  0  0  0  0  0  0  0  0
   -2.2324    0.1100   -5.2329 C   0  0  0  0  0  0  0  0  0  0  0  0
   -2.4929    1.2913   -4.5398 C   0  0  0  0  0  0  0  0  0  0  0  0
   -2.6401    2.4868   -5.2150 C   0  0  0  0  0  0  0  0  0  0  0  0
   -2.5434    2.5287   -6.5973 C   0  0  0  0  0  0  0  0  0  0  0  0
   -2.7442    4.0206   -7.5321 S   0  0  0  0  0  0  0  0  0  0  0  0
   -1.9585    5.2492   -6.4480 C   0  0  0  0  0  0  0  0  0  0  0  0
   -2.3197    1.3496   -7.2980 C   0  0  0  0  0  0  0  0  0  0  0  0
   -2.1600    0.1575   -6.6281 C   0  0  0  0  0  0  0  0  0  0  0  0
   -1.1775   -0.5993   -2.3356 C   0  0  0  0  0  0  0  0  0  0  0  0
    0.2058    0.4120   -2.5746 S   0  0  0  0  0  0  0  0  0  0  0  0
    0.4892    0.4875   -0.8391 C   0  0  0  0  0  0  0  0  0  0  0  0
   -0.4078   -0.3132   -0.1383 C   0  0  0  0  0  0  0  0  0  0  0  0
   -0.3584   -0.5977    1.2219 N   0  0  0  0  0  0  0  0  0  0  0  0
    0.8557   -0.8729    1.8512 C   0  0  0  0  0  0  0  0  0  0  0  0
    1.9123   -1.4422    1.1453 C   0  0  0  0  0  0  0  0  0  0  0  0
    3.1451   -1.6228    1.7411 C   0  0  0  0  0  0  0  0  0  0  0  0
    3.3505   -1.2180    3.0528 C   0  0  0  0  0  0  0  0  0  0  0  0
    4.9179   -1.2909    3.8676 S   0  0  0  0  0  0  0  0  0  0  0  0
    5.8484   -2.5029    2.8859 C   0  0  0  0  0  0  0  0  0  0  0  0
    2.2873   -0.6796    3.7749 C   0  0  0  0  0  0  0  0  0  0  0  0
    1.0532   -0.5179    3.1879 C   0  0  0  0  0  0  0  0  0  0  0  0
   -1.5804   -0.6844    1.9007 C   0  0  0  0  0  0  0  0  0  0  0  0
   -1.8356   -1.7259    2.7884 C   0  0  0  0  0  0  0  0  0  0  0  0
   -3.0781   -1.8521    3.3764 C   0  0  0  0  0  0  0  0  0  0  0  0
   -4.0859   -0.9447    3.0762 C   0  0  0  0  0  0  0  0  0  0  0  0
   -5.7121   -1.0648    3.7673 S   0  0  0  0  0  0  0  0  0  0  0  0
   -5.9204   -2.8614    3.9523 C   0  0  0  0  0  0  0  0  0  0  0  0
   -3.8229    0.1222    2.2229 C   0  0  0  0  0  0  0  0  0  0  0  0
   -2.5800    0.2542    1.6447 C   0  0  0  0  0  0  0  0  0  0  0  0
   -1.3679   -0.8891   -0.9942 C   0  0  0  0  0  0  0  0  0  0  0  0
   -2.7372   -1.9039   -0.7392 S   0  0  0  0  0  0  0  0  0  0  0  0
    1.4493    1.3286   -0.1999 C   0  0  0  0  0  0  0  0  0  0  0  0
    2.7502    1.6993   -0.5142 C   0  0  0  0  0  0  0  0  0  0  0  0
    3.4213    1.3847   -1.6887 N   0  0  0  0  0  0  0  0  0  0  0  0
    2.8334    1.6743   -2.9258 C   0  0  0  0  0  0  0  0  0  0  0  0
    1.9788    2.7681   -3.0728 C   0  0  0  0  0  0  0  0  0  0  0  0
    1.3904    3.0301   -4.2900 C   0  0  0  0  0  0  0  0  0  0  0  0
    1.6395    2.2103   -5.3872 C   0  0  0  0  0  0  0  0  0  0  0  0
    0.8514    2.6527   -6.9010 S   0  0  0  0  0  0  0  0  0  0  0  0
    1.0854    1.1982   -7.9561 C   0  0  0  0  0  0  0  0  0  0  0  0
    2.5036    1.1302   -5.2489 C   0  0  0  0  0  0  0  0  0  0  0  0
    3.0967    0.8681   -4.0310 C   0  0  0  0  0  0  0  0  0  0  0  0
    4.7966    1.1241   -1.5980 C   0  0  0  0  0  0  0  0  0  0  0  0
    5.2723    0.3539   -0.5391 C   0  0  0  0  0  0  0  0  0  0  0  0
    6.6268    0.1819   -0.3476 C   0  0  0  0  0  0  0  0  0  0  0  0
    7.5307    0.7743   -1.2170 C   0  0  0  0  0  0  0  0  0  0  0  0
    9.2773    0.6630   -0.9750 S   0  0  0  0  0  0  0  0  0  0  0  0
    9.3845    0.5778    0.8391 C   0  0  0  0  0  0  0  0  0  0  0  0
    7.0601    1.4834   -2.3169 C   0  0  0  0  0  0  0  0  0  0  0  0
    5.7069    1.6608   -2.5070 C   0  0  0  0  0  0  0  0  0  0  0  0
    3.3553    2.4085    0.5568 C   0  0  0  0  0  0  0  0  0  0  0  0
    4.9654    2.9544    0.8587 S   0  0  0  0  0  0  0  0  0  0  0  0
    4.4963    3.5068    2.4703 C   0  0  0  0  0  0  0  0  0  0  0  0
    3.1497    3.1676    2.7704 C   0  0  0  0  0  0  0  0  0  0  0  0
    2.5511    3.2825    3.9933 N   0  0  0  0  0  0  0  0  0  0  0  0
    3.2749    3.1653    5.1985 C   0  0  0  0  0  0  0  0  0  0  0  0
    2.9280    3.9652    6.2815 C   0  0  0  0  0  0  0  0  0  0  0  0
    3.6512    3.9021    7.4568 C   0  0  0  0  0  0  0  0  0  0  0  0
    4.7397    3.0470    7.5557 C   0  0  0  0  0  0  0  0  0  0  0  0
    5.7826    2.9657    8.9757 S   0  0  0  0  0  0  0  0  0  0  0  0
    5.4610    4.5461    9.8106 C   0  0  0  0  0  0  0  0  0  0  0  0
    5.0453    2.1954    6.4937 C   0  0  0  0  0  0  0  0  0  0  0  0
    4.3162    2.2455    5.3280 C   0  0  0  0  0  0  0  0  0  0  0  0
    1.1456    3.2687    4.0745 C   0  0  0  0  0  0  0  0  0  0  0  0
    0.3772    4.1023    3.2612 C   0  0  0  0  0  0  0  0  0  0  0  0
   -0.9976    4.0310    3.3021 C   0  0  0  0  0  0  0  0  0  0  0  0
   -1.6367    3.1313    4.1545 C   0  0  0  0  0  0  0  0  0  0  0  0
   -3.3948    3.0796    4.0727 S   0  0  0  0  0  0  0  0  0  0  0  0
   -3.8605    1.8384    5.3096 C   0  0  0  0  0  0  0  0  0  0  0  0
   -0.8731    2.3391    5.0031 C   0  0  0  0  0  0  0  0  0  0  0  0
    0.5049    2.4126    4.9648 C   0  0  0  0  0  0  0  0  0  0  0  0
    2.5209    2.6039    1.6485 C   0  0  0  0  0  0  0  0  0  0  0  0
    0.9313    2.0019    1.3467 S   0  0  0  0  0  0  0  0  0  0  0  0
    5.3106    4.2677    3.3041 C   0  0  0  0  0  0  0  0  0  0  0  0
    6.6403    4.6157    3.1819 C   0  0  0  0  0  0  0  0  0  0  0  0
    7.5793    4.1248    2.1640 C   0  0  0  0  0  0  0  0  0  0  0  0
    7.3515    3.3449    1.2503 O   0  0  0  0  0  0  0  0  0  0  0  0
    8.8734    4.7184    2.5005 C   0  0  0  0  0  0  0  0  0  0  0  0
    8.7354    5.4943    3.6973 C   0  0  0  0  0  0  0  0  0  0  0  0
    9.9002    6.0752    4.0842 C   0  0  0  0  0  0  0  0  0  0  0  0
   11.1764    5.6883    2.9834 S   0  0  0  0  0  0  0  0  0  0  0  0
   10.1269    4.7196    1.9734 C   0  0  0  0  0  0  0  0  0  0  0  0
   10.6182    4.0705    0.7374 C   0  0  0  0  0  0  0  0  0  0  0  0
    7.3497    5.4526    4.1235 C   0  0  0  0  0  0  0  0  0  0  0  0
    6.8641    6.1248    5.2205 C   0  0  0  0  0  0  0  0  0  0  0  0
    7.7194    6.8457    6.0760 C   0  0  0  0  0  0  0  0  0  0  0  0
    8.3911    7.4267    6.8044 N   0  0  0  0  0  0  0  0  0  0  0  0
    5.5215    6.2193    5.6172 C   0  0  0  0  0  0  0  0  0  0  0  0
    4.4478    6.3689    6.0035 N   0  0  0  0  0  0  0  0  0  0  0  0
   -8.8342   -3.7423   -4.2729 H   0  0  0  0  0  0  0  0  0  0  0  0
  -13.0695   -2.4665   -0.4882 H   0  0  0  0  0  0  0  0  0  0  0  0
   -9.0297    0.0099    1.9885 H   0  0  0  0  0  0  0  0  0  0  0  0
   -7.9442   -1.3302    1.5899 H   0  0  0  0  0  0  0  0  0  0  0  0
   -9.1086   -1.4740    2.9252 H   0  0  0  0  0  0  0  0  0  0  0  0
   -6.9259   -1.9364   -4.8265 H   0  0  0  0  0  0  0  0  0  0  0  0
   -4.6331   -1.1996   -4.4296 H   0  0  0  0  0  0  0  0  0  0  0  0
   -2.9193   -5.8749   -0.1389 H   0  0  0  0  0  0  0  0  0  0  0  0
   -0.6037   -4.8939    0.6744 H   0  0  0  0  0  0  0  0  0  0  0  0
    1.6085   -4.0897   -0.4749 H   0  0  0  0  0  0  0  0  0  0  0  0
   -1.7995   -4.2398   -3.4266 H   0  0  0  0  0  0  0  0  0  0  0  0
   -8.1548   -5.8066   -2.5886 H   0  0  0  0  0  0  0  0  0  0  0  0
   -7.2241   -7.1364   -1.8615 H   0  0  0  0  0  0  0  0  0  0  0  0
   -8.6322   -4.9846   -0.2099 H   0  0  0  0  0  0  0  0  0  0  0  0
   -7.7414   -6.3830    0.3906 H   0  0  0  0  0  0  0  0  0  0  0  0
   -9.2473   -6.6167   -0.5098 H   0  0  0  0  0  0  0  0  0  0  0  0
    0.4465   -1.2678   -5.0941 H   0  0  0  0  0  0  0  0  0  0  0  0
    1.6354   -3.1089   -6.1838 H   0  0  0  0  0  0  0  0  0  0  0  0
    2.8497   -6.1875   -7.7002 H   0  0  0  0  0  0  0  0  0  0  0  0
    2.5720   -4.4408   -7.8619 H   0  0  0  0  0  0  0  0  0  0  0  0
    2.7166   -5.1887   -6.2358 H   0  0  0  0  0  0  0  0  0  0  0  0
   -2.0623   -5.2131   -6.6450 H   0  0  0  0  0  0  0  0  0  0  0  0
   -3.2567   -3.3405   -5.5503 H   0  0  0  0  0  0  0  0  0  0  0  0
   -2.5965    1.2782   -3.4656 H   0  0  0  0  0  0  0  0  0  0  0  0
   -2.8395    3.3844   -4.6506 H   0  0  0  0  0  0  0  0  0  0  0  0
   -1.8111    6.1355   -7.0565 H   0  0  0  0  0  0  0  0  0  0  0  0
   -1.0009    4.8578   -6.1182 H   0  0  0  0  0  0  0  0  0  0  0  0
   -2.6029    5.4853   -5.6061 H   0  0  0  0  0  0  0  0  0  0  0  0
   -2.2720    1.3789   -8.3757 H   0  0  0  0  0  0  0  0  0  0  0  0
   -1.9875   -0.7519   -7.1850 H   0  0  0  0  0  0  0  0  0  0  0  0
    1.7697   -1.7328    0.1153 H   0  0  0  0  0  0  0  0  0  0  0  0
    3.9384   -2.0791    1.1698 H   0  0  0  0  0  0  0  0  0  0  0  0
    6.1003   -2.0923    1.9124 H   0  0  0  0  0  0  0  0  0  0  0  0
    5.2665   -3.4144    2.7875 H   0  0  0  0  0  0  0  0  0  0  0  0
    6.7560   -2.7010    3.4476 H   0  0  0  0  0  0  0  0  0  0  0  0
    2.4504   -0.3772    4.7981 H   0  0  0  0  0  0  0  0  0  0  0  0
    0.2389   -0.0797    3.7442 H   0  0  0  0  0  0  0  0  0  0  0  0
   -1.0596   -2.4455    3.0039 H   0  0  0  0  0  0  0  0  0  0  0  0
   -3.2578   -2.6699    4.0565 H   0  0  0  0  0  0  0  0  0  0  0  0
   -5.5914   -3.3527    3.0417 H   0  0  0  0  0  0  0  0  0  0  0  0
   -5.3700   -3.2232    4.8159 H   0  0  0  0  0  0  0  0  0  0  0  0
   -6.9821   -3.0279    4.1036 H   0  0  0  0  0  0  0  0  0  0  0  0
   -4.5999    0.8419    2.0187 H   0  0  0  0  0  0  0  0  0  0  0  0
   -2.3743    1.0814    0.9821 H   0  0  0  0  0  0  0  0  0  0  0  0
    1.7820    3.4100   -2.2271 H   0  0  0  0  0  0  0  0  0  0  0  0
    0.7309    3.8765   -4.4031 H   0  0  0  0  0  0  0  0  0  0  0  0
    0.7006    0.3174   -7.4502 H   0  0  0  0  0  0  0  0  0  0  0  0
    0.5028    1.3934   -8.8508 H   0  0  0  0  0  0  0  0  0  0  0  0
    2.1336    1.0861   -8.2185 H   0  0  0  0  0  0  0  0  0  0  0  0
    2.7230    0.4866   -6.0859 H   0  0  0  0  0  0  0  0  0  0  0  0
    3.7659    0.0270   -3.9254 H   0  0  0  0  0  0  0  0  0  0  0  0
    4.5664   -0.0820    0.1526 H   0  0  0  0  0  0  0  0  0  0  0  0
    6.9743   -0.3984    0.4923 H   0  0  0  0  0  0  0  0  0  0  0  0
    9.1676   -0.4279    1.1882 H   0  0  0  0  0  0  0  0  0  0  0  0
    8.6912    1.3015    1.2577 H   0  0  0  0  0  0  0  0  0  0  0  0
   10.4066    0.8367    1.0957 H   0  0  0  0  0  0  0  0  0  0  0  0
    7.7680    1.9252   -3.0010 H   0  0  0  0  0  0  0  0  0  0  0  0
    5.3509    2.2516   -3.3376 H   0  0  0  0  0  0  0  0  0  0  0  0
    2.1039    4.6559    6.1942 H   0  0  0  0  0  0  0  0  0  0  0  0
    3.3698    4.5438    8.2748 H   0  0  0  0  0  0  0  0  0  0  0  0
    6.2605    4.6652   10.5352 H   0  0  0  0  0  0  0  0  0  0  0  0
    5.4951    5.3517    9.0831 H   0  0  0  0  0  0  0  0  0  0  0  0
    4.5032    4.5163   10.3222 H   0  0  0  0  0  0  0  0  0  0  0  0
    5.8617    1.4974    6.5943 H   0  0  0  0  0  0  0  0  0  0  0  0
    4.5600    1.5844    4.5101 H   0  0  0  0  0  0  0  0  0  0  0  0
    0.8666    4.8021    2.6006 H   0  0  0  0  0  0  0  0  0  0  0  0
   -1.5959    4.6681    2.6696 H   0  0  0  0  0  0  0  0  0  0  0  0
   -4.9405    1.7503    5.2443 H   0  0  0  0  0  0  0  0  0  0  0  0
   -3.4054    0.8838    5.0636 H   0  0  0  0  0  0  0  0  0  0  0  0
   -3.5740    2.1764    6.3012 H   0  0  0  0  0  0  0  0  0  0  0  0
   -1.3382    1.6518    5.6912 H   0  0  0  0  0  0  0  0  0  0  0  0
    1.0946    1.7875    5.6186 H   0  0  0  0  0  0  0  0  0  0  0  0
    4.8076    4.6570    4.1806 H   0  0  0  0  0  0  0  0  0  0  0  0
   10.1100    6.7010    4.9282 H   0  0  0  0  0  0  0  0  0  0  0  0
    9.8011    3.5364    0.2585 H   0  0  0  0  0  0  0  0  0  0  0  0
   11.4255    3.3733    0.9600 H   0  0  0  0  0  0  0  0  0  0  0  0
   11.0092    4.8161    0.0453 H   0  0  0  0  0  0  0  0  0  0  0  0
  1  2  2  0  0  0  0
  2  3  1  0  0  0  0
  3  4  2  0  0  0  0
  3  5  1  0  0  0  0
  5  6  1  0  0  0  0
  6  7  2  0  0  0  0
  7  8  1  0  0  0  0
  8  9  1  0  0  0  0
  9 10  1  0  0  0  0
  6 11  1  0  0  0  0
 11 12  2  0  0  0  0
 12 13  1  0  0  0  0
 13 14  3  0  0  0  0
 12 15  1  0  0  0  0
 15 16  3  0  0  0  0
  1 17  1  0  0  0  0
 17 18  2  0  0  0  0
 18 19  1  0  0  0  0
 19 20  2  0  0  0  0
 20 21  1  0  0  0  0
 21 22  1  0  0  0  0
 22 23  2  0  0  0  0
 23 24  1  0  0  0  0
 24 25  1  0  0  0  0
 25 26  2  0  0  0  0
 26 27  1  0  0  0  0
 27 28  1  0  0  0  0
 22 29  1  0  0  0  0
 29 30  2  0  0  0  0
 29 31  1  0  0  0  0
 31 32  1  0  0  0  0
 32 33  1  0  0  0  0
 31 34  1  0  0  0  0
 20 35  1  0  0  0  0
 35 36  2  0  0  0  0
 36 37  1  0  0  0  0
 37 38  1  0  0  0  0
 38 39  2  0  0  0  0
 39 40  1  0  0  0  0
 40 41  2  0  0  0  0
 41 42  1  0  0  0  0
 42 43  1  0  0  0  0
 41 44  1  0  0  0  0
 44 45  2  0  0  0  0
 37 46  1  0  0  0  0
 46 47  2  0  0  0  0
 47 48  1  0  0  0  0
 48 49  2  0  0  0  0
 49 50  1  0  0  0  0
 50 51  1  0  0  0  0
 49 52  1  0  0  0  0
 52 53  2  0  0  0  0
 36 54  1  0  0  0  0
 54 55  1  0  0  0  0
 55 56  1  0  0  0  0
 56 57  2  0  0  0  0
 57 58  1  0  0  0  0
 58 59  1  0  0  0  0
 59 60  2  0  0  0  0
 60 61  1  0  0  0  0
 61 62  2  0  0  0  0
 62 63  1  0  0  0  0
 63 64  1  0  0  0  0
 62 65  1  0  0  0  0
 65 66  2  0  0  0  0
 58 67  1  0  0  0  0
 67 68  2  0  0  0  0
 68 69  1  0  0  0  0
 69 70  2  0  0  0  0
 70 71  1  0  0  0  0
 71 72  1  0  0  0  0
 70 73  1  0  0  0  0
 73 74  2  0  0  0  0
 57 75  1  0  0  0  0
 75 76  1  0  0  0  0
 56 77  1  0  0  0  0
 77 78  2  0  0  0  0
 78 79  1  0  0  0  0
 79 80  1  0  0  0  0
 80 81  2  0  0  0  0
 81 82  1  0  0  0  0
 82 83  2  0  0  0  0
 83 84  1  0  0  0  0
 84 85  1  0  0  0  0
 83 86  1  0  0  0  0
 86 87  2  0  0  0  0
 79 88  1  0  0  0  0
 88 89  2  0  0  0  0
 89 90  1  0  0  0  0
 90 91  2  0  0  0  0
 91 92  1  0  0  0  0
 92 93  1  0  0  0  0
 91 94  1  0  0  0  0
 94 95  2  0  0  0  0
 78 96  1  0  0  0  0
 96 97  1  0  0  0  0
 97 98  1  0  0  0  0
 98 99  2  0  0  0  0
 99100  1  0  0  0  0
100101  1  0  0  0  0
101102  2  0  0  0  0
102103  1  0  0  0  0
103104  2  0  0  0  0
104105  1  0  0  0  0
105106  1  0  0  0  0
104107  1  0  0  0  0
107108  2  0  0  0  0
100109  1  0  0  0  0
109110  2  0  0  0  0
110111  1  0  0  0  0
111112  2  0  0  0  0
112113  1  0  0  0  0
113114  1  0  0  0  0
112115  1  0  0  0  0
115116  2  0  0  0  0
 99117  1  0  0  0  0
117118  1  0  0  0  0
 98119  1  0  0  0  0
119120  2  0  0  0  0
120121  1  0  0  0  0
121122  2  0  0  0  0
121123  1  0  0  0  0
123124  1  0  0  0  0
124125  2  0  0  0  0
125126  1  0  0  0  0
126127  1  0  0  0  0
127128  1  0  0  0  0
124129  1  0  0  0  0
129130  2  0  0  0  0
130131  1  0  0  0  0
131132  3  0  0  0  0
130133  1  0  0  0  0
133134  3  0  0  0  0
 11  2  1  0  0  0  0
 34 17  1  0  0  0  0
 76 35  1  0  0  0  0
118 77  1  0  0  0  0
129120  1  0  0  0  0
  9  5  2  0  0  0  0
 34 21  2  0  0  0  0
 45 38  1  0  0  0  0
 53 46  1  0  0  0  0
 75 54  2  0  0  0  0
 87 80  1  0  0  0  0
 95 88  1  0  0  0  0
117 96  2  0  0  0  0
127123  2  0  0  0  0
 28 24  2  0  0  0  0
 66 59  1  0  0  0  0
 74 67  1  0  0  0  0
108101  1  0  0  0  0
116109  1  0  0  0  0
  1135  1  0  0  0  0
  7136  1  0  0  0  0
 10137  1  0  0  0  0
 10138  1  0  0  0  0
 10139  1  0  0  0  0
 18140  1  0  0  0  0
 19141  1  0  0  0  0
 23142  1  0  0  0  0
 25143  1  0  0  0  0
 26144  1  0  0  0  0
 28145  1  0  0  0  0
 32146  1  0  0  0  0
 32147  1  0  0  0  0
 33148  1  0  0  0  0
 33149  1  0  0  0  0
 33150  1  0  0  0  0
 39151  1  0  0  0  0
 40152  1  0  0  0  0
 43153  1  0  0  0  0
 43154  1  0  0  0  0
 43155  1  0  0  0  0
 44156  1  0  0  0  0
 45157  1  0  0  0  0
 47158  1  0  0  0  0
 48159  1  0  0  0  0
 51160  1  0  0  0  0
 51161  1  0  0  0  0
 51162  1  0  0  0  0
 52163  1  0  0  0  0
 53164  1  0  0  0  0
 60165  1  0  0  0  0
 61166  1  0  0  0  0
 64167  1  0  0  0  0
 64168  1  0  0  0  0
 64169  1  0  0  0  0
 65170  1  0  0  0  0
 66171  1  0  0  0  0
 68172  1  0  0  0  0
 69173  1  0  0  0  0
 72174  1  0  0  0  0
 72175  1  0  0  0  0
 72176  1  0  0  0  0
 73177  1  0  0  0  0
 74178  1  0  0  0  0
 81179  1  0  0  0  0
 82180  1  0  0  0  0
 85181  1  0  0  0  0
 85182  1  0  0  0  0
 85183  1  0  0  0  0
 86184  1  0  0  0  0
 87185  1  0  0  0  0
 89186  1  0  0  0  0
 90187  1  0  0  0  0
 93188  1  0  0  0  0
 93189  1  0  0  0  0
 93190  1  0  0  0  0
 94191  1  0  0  0  0
 95192  1  0  0  0  0
102193  1  0  0  0  0
103194  1  0  0  0  0
106195  1  0  0  0  0
106196  1  0  0  0  0
106197  1  0  0  0  0
107198  1  0  0  0  0
108199  1  0  0  0  0
110200  1  0  0  0  0
111201  1  0  0  0  0
114202  1  0  0  0  0
114203  1  0  0  0  0
114204  1  0  0  0  0
115205  1  0  0  0  0
116206  1  0  0  0  0
119207  1  0  0  0  0
125208  1  0  0  0  0
128209  1  0  0  0  0
128210  1  0  0  0  0
128211  1  0  0  0  0
M  END
