
  xtb     02112202253D
 energy: -287.676530773358 gnorm: 0.000541332436 xtb: 6.4.1 (unknown)
144159  0     0  0            999 V2000
    2.0818   -1.4250    7.8962 C   0  0  0  0  0  0  0  0  0  0  0  0
    1.9208   -0.2037    8.4997 C   0  0  0  0  0  0  0  0  0  0  0  0
    1.9865    1.0931    7.7915 C   0  0  0  0  0  0  0  0  0  0  0  0
    2.2051    1.2997    6.6201 O   0  0  0  0  0  0  0  0  0  0  0  0
    1.8895    2.1215    8.8609 C   0  0  0  0  0  0  0  0  0  0  0  0
    1.8448    1.4968   10.1190 C   0  0  0  0  0  0  0  0  0  0  0  0
    1.7849    2.2515   11.2783 C   0  0  0  0  0  0  0  0  0  0  0  0
    1.7620    3.6337   11.1573 C   0  0  0  0  0  0  0  0  0  0  0  0
    1.7033    4.3823   12.2626 F   0  0  0  0  0  0  0  0  0  0  0  0
    1.7964    4.2680    9.9181 C   0  0  0  0  0  0  0  0  0  0  0  0
    1.7618    5.6025    9.8427 F   0  0  0  0  0  0  0  0  0  0  0  0
    1.8673    3.4997    8.7539 C   0  0  0  0  0  0  0  0  0  0  0  0
    1.8970    4.1107    7.5714 F   0  0  0  0  0  0  0  0  0  0  0  0
    1.8560    0.0464    9.9186 C   0  0  0  0  0  0  0  0  0  0  0  0
    1.7296   -0.8927   10.9110 C   0  0  0  0  0  0  0  0  0  0  0  0
    1.6543   -0.5890   12.2857 C   0  0  0  0  0  0  0  0  0  0  0  0
    1.5961   -0.4039   13.4172 N   0  0  0  0  0  0  0  0  0  0  0  0
    1.6289   -2.2841   10.6982 C   0  0  0  0  0  0  0  0  0  0  0  0
    1.5124   -3.4234   10.6166 N   0  0  0  0  0  0  0  0  0  0  0  0
    1.9006   -1.6972    6.5212 C   0  0  0  0  0  0  0  0  0  0  0  0
    1.0006   -1.0118    5.6759 C   0  0  0  0  0  0  0  0  0  0  0  0
    0.9078   -1.2945    4.2603 C   0  0  0  0  0  0  0  0  0  0  0  0
   -0.0287   -0.5445    3.6684 N   0  0  0  0  0  0  0  0  0  0  0  0
   -0.7156    0.3940    4.7694 S   0  0  0  0  0  4  0  0  0  0  0  0
    0.1059   -0.0996    6.0520 N   0  0  0  0  0  0  0  0  0  0  0  0
    1.6555   -2.3059    3.6211 C   0  0  0  0  0  0  0  0  0  0  0  0
    2.5086   -3.0309    4.4724 C   0  0  0  0  0  0  0  0  0  0  0  0
    3.3717   -3.9812    4.1059 N   0  0  0  0  0  0  0  0  0  0  0  0
    4.1787   -4.4883    5.3911 S   0  0  0  0  0  0  0  0  0  0  0  0
    3.5190   -3.5179    6.4839 N   0  0  0  0  0  0  0  0  0  0  0  0
    2.6092   -2.7454    5.8910 C   0  0  0  0  0  0  0  0  0  0  0  0
    1.4956   -2.4866    2.2032 C   0  0  0  0  0  0  0  0  0  0  0  0
    1.0716   -3.5868    1.4676 C   0  0  0  0  0  0  0  0  0  0  0  0
    0.7912   -4.8594    1.9540 N   0  0  0  0  0  0  0  0  0  0  0  0
    1.8223   -5.6690    2.4470 C   0  0  0  0  0  0  0  0  0  0  0  0
    1.5967   -6.5265    3.5234 C   0  0  0  0  0  0  0  0  0  0  0  0
    2.6248   -7.2971    4.0157 C   0  0  0  0  0  0  0  0  0  0  0  0
    3.8955   -7.2317    3.4438 C   0  0  0  0  0  0  0  0  0  0  0  0
    5.1419   -8.2282    4.1948 S   0  0  0  0  0  0  0  0  0  0  0  0
    6.6690   -7.7184    3.3566 C   0  0  0  0  0  0  0  0  0  0  0  0
    4.1138   -6.4019    2.3527 C   0  0  0  0  0  0  0  0  0  0  0  0
    3.0833   -5.6260    1.8615 C   0  0  0  0  0  0  0  0  0  0  0  0
   -0.4723   -5.3875    1.6831 C   0  0  0  0  0  0  0  0  0  0  0  0
   -0.6534   -6.7505    1.4348 C   0  0  0  0  0  0  0  0  0  0  0  0
   -1.9047   -7.2417    1.1457 C   0  0  0  0  0  0  0  0  0  0  0  0
   -3.0088   -6.3908    1.0852 C   0  0  0  0  0  0  0  0  0  0  0  0
   -4.5539   -7.1405    0.6933 S   0  0  0  0  0  0  0  0  0  0  0  0
   -5.6860   -5.7365    0.4884 C   0  0  0  0  0  0  0  0  0  0  0  0
   -2.8356   -5.0359    1.3386 C   0  0  0  0  0  0  0  0  0  0  0  0
   -1.5819   -4.5430    1.6381 C   0  0  0  0  0  0  0  0  0  0  0  0
    0.7928   -3.2188    0.1270 C   0  0  0  0  0  0  0  0  0  0  0  0
    0.1663   -4.0733   -1.2452 S   0  0  0  0  0  0  0  0  0  0  0  0
    0.3035   -2.6306   -2.2152 C   0  0  0  0  0  0  0  0  0  0  0  0
    0.7564   -1.5401   -1.5042 C   0  0  0  0  0  0  0  0  0  0  0  0
    0.8628   -0.2529   -2.0357 N   0  0  0  0  0  0  0  0  0  0  0  0
   -0.2150    0.3005   -2.7308 C   0  0  0  0  0  0  0  0  0  0  0  0
   -0.0112    1.1162   -3.8457 C   0  0  0  0  0  0  0  0  0  0  0  0
   -1.0829    1.6620   -4.5237 C   0  0  0  0  0  0  0  0  0  0  0  0
   -2.3756    1.4088   -4.0896 C   0  0  0  0  0  0  0  0  0  0  0  0
   -3.7632    2.1621   -4.9257 S   0  0  0  0  0  0  0  0  0  0  0  0
   -4.3213    3.2757   -3.5936 C   0  0  0  0  0  0  0  0  0  0  0  0
   -2.5942    0.5756   -3.0030 C   0  0  0  0  0  0  0  0  0  0  0  0
   -1.5237    0.0283   -2.3274 C   0  0  0  0  0  0  0  0  0  0  0  0
    2.0441    0.4598   -1.8023 C   0  0  0  0  0  0  0  0  0  0  0  0
    2.0337    1.8439   -1.6542 C   0  0  0  0  0  0  0  0  0  0  0  0
    3.2016    2.5358   -1.4003 C   0  0  0  0  0  0  0  0  0  0  0  0
    4.4046    1.8536   -1.2749 C   0  0  0  0  0  0  0  0  0  0  0  0
    5.9586    2.6238   -0.9506 S   0  0  0  0  0  0  0  0  0  0  0  0
    5.5387    4.3693   -0.6863 C   0  0  0  0  0  0  0  0  0  0  0  0
    4.4189    0.4675   -1.4166 C   0  0  0  0  0  0  0  0  0  0  0  0
    3.2569   -0.2207   -1.6812 C   0  0  0  0  0  0  0  0  0  0  0  0
    1.0429   -1.8878   -0.1619 C   0  0  0  0  0  0  0  0  0  0  0  0
    1.5933   -1.0306    1.2264 S   0  0  0  0  0  0  0  0  0  0  0  0
   -0.1175   -2.5081   -3.6063 C   0  0  0  0  0  0  0  0  0  0  0  0
   -1.4698   -2.6202   -3.9443 C   0  0  0  0  0  0  0  0  0  0  0  0
   -1.8789   -2.0901   -5.1453 C   0  0  0  0  0  0  0  0  0  0  0  0
   -3.2671   -1.8050   -5.6018 C   0  0  0  0  0  0  0  0  0  0  0  0
   -4.3001   -2.1916   -5.1126 O   0  0  0  0  0  0  0  0  0  0  0  0
   -3.0815   -0.8715   -6.7438 C   0  0  0  0  0  0  0  0  0  0  0  0
   -1.7078   -0.7510   -7.0356 C   0  0  0  0  0  0  0  0  0  0  0  0
   -0.9617   -1.5085   -6.0405 C   0  0  0  0  0  0  0  0  0  0  0  0
    0.3930   -1.5516   -5.7747 C   0  0  0  0  0  0  0  0  0  0  0  0
    0.8018   -2.0350   -4.5414 C   0  0  0  0  0  0  0  0  0  0  0  0
   -1.2778    0.1228   -8.0143 C   0  0  0  0  0  0  0  0  0  0  0  0
   -2.2041    0.9881   -8.5789 C   0  0  0  0  0  0  0  0  0  0  0  0
   -3.5474    0.9518   -8.2048 C   0  0  0  0  0  0  0  0  0  0  0  0
   -4.0101   -0.0572   -7.3445 C   0  0  0  0  0  0  0  0  0  0  0  0
   -4.4711    2.0281   -8.4999 C   0  0  0  0  0  0  0  0  0  0  0  0
   -4.2057    3.3145   -8.1890 C   0  0  0  0  0  0  0  0  0  0  0  0
   -3.0016    3.7910   -7.4508 C   0  0  0  0  0  0  0  0  0  0  0  0
   -1.8815    3.3444   -7.4636 O   0  0  0  0  0  0  0  0  0  0  0  0
   -3.4845    4.9711   -6.6942 C   0  0  0  0  0  0  0  0  0  0  0  0
   -2.8508    5.6510   -5.6684 C   0  0  0  0  0  0  0  0  0  0  0  0
   -1.2672    5.2467   -5.1774 Cl  0  0  0  0  0  0  0  0  0  0  0  0
   -3.5523    6.6710   -5.0129 C   0  0  0  0  0  0  0  0  0  0  0  0
   -2.8066    7.5384   -3.7406 Cl  0  0  0  0  0  0  0  0  0  0  0  0
   -4.8717    6.9547   -5.3672 C   0  0  0  0  0  0  0  0  0  0  0  0
   -5.7334    8.1489   -4.4965 Cl  0  0  0  0  0  0  0  0  0  0  0  0
   -5.5101    6.2652   -6.4096 C   0  0  0  0  0  0  0  0  0  0  0  0
   -7.1758    6.5603   -6.6908 Cl  0  0  0  0  0  0  0  0  0  0  0  0
   -4.7912    5.3033   -7.1101 C   0  0  0  0  0  0  0  0  0  0  0  0
   -5.1603    4.4210   -8.2091 C   0  0  0  0  0  0  0  0  0  0  0  0
   -6.0774    4.6148   -9.1993 C   0  0  0  0  0  0  0  0  0  0  0  0
   -6.2771    3.6650  -10.2307 C   0  0  0  0  0  0  0  0  0  0  0  0
   -6.4803    2.9308  -11.0875 N   0  0  0  0  0  0  0  0  0  0  0  0
   -6.8175    5.7923   -9.4466 C   0  0  0  0  0  0  0  0  0  0  0  0
   -7.3943    6.7262   -9.7787 N   0  0  0  0  0  0  0  0  0  0  0  0
    2.4172   -2.2679    8.4874 H   0  0  0  0  0  0  0  0  0  0  0  0
    1.7582    1.8160   12.2634 H   0  0  0  0  0  0  0  0  0  0  0  0
    0.6186   -6.5666    3.9791 H   0  0  0  0  0  0  0  0  0  0  0  0
    2.4627   -7.9493    4.8602 H   0  0  0  0  0  0  0  0  0  0  0  0
    6.6432   -8.0203    2.3137 H   0  0  0  0  0  0  0  0  0  0  0  0
    6.8029   -6.6453    3.4558 H   0  0  0  0  0  0  0  0  0  0  0  0
    7.4714   -8.2404    3.8687 H   0  0  0  0  0  0  0  0  0  0  0  0
    5.0784   -6.3487    1.8756 H   0  0  0  0  0  0  0  0  0  0  0  0
    3.2574   -4.9731    1.0197 H   0  0  0  0  0  0  0  0  0  0  0  0
    0.1955   -7.4163    1.4527 H   0  0  0  0  0  0  0  0  0  0  0  0
   -2.0431   -8.2931    0.9468 H   0  0  0  0  0  0  0  0  0  0  0  0
   -6.6281   -6.1674    0.1639 H   0  0  0  0  0  0  0  0  0  0  0  0
   -5.3056   -5.0647   -0.2752 H   0  0  0  0  0  0  0  0  0  0  0  0
   -5.8245   -5.2244    1.4362 H   0  0  0  0  0  0  0  0  0  0  0  0
   -3.6699   -4.3537    1.3154 H   0  0  0  0  0  0  0  0  0  0  0  0
   -1.4604   -3.4901    1.8482 H   0  0  0  0  0  0  0  0  0  0  0  0
    0.9957    1.3172   -4.1788 H   0  0  0  0  0  0  0  0  0  0  0  0
   -0.9256    2.2770   -5.3961 H   0  0  0  0  0  0  0  0  0  0  0  0
   -4.6249    2.6900   -2.7320 H   0  0  0  0  0  0  0  0  0  0  0  0
   -3.5142    3.9530   -3.3312 H   0  0  0  0  0  0  0  0  0  0  0  0
   -5.1658    3.8324   -3.9866 H   0  0  0  0  0  0  0  0  0  0  0  0
   -3.6026    0.3581   -2.6849 H   0  0  0  0  0  0  0  0  0  0  0  0
   -1.6956   -0.6078   -1.4719 H   0  0  0  0  0  0  0  0  0  0  0  0
    1.1013    2.3827   -1.7315 H   0  0  0  0  0  0  0  0  0  0  0  0
    3.1549    3.6073   -1.2923 H   0  0  0  0  0  0  0  0  0  0  0  0
    4.8396    4.4597    0.1397 H   0  0  0  0  0  0  0  0  0  0  0  0
    6.4743    4.8583   -0.4328 H   0  0  0  0  0  0  0  0  0  0  0  0
    5.1348    4.7997   -1.5982 H   0  0  0  0  0  0  0  0  0  0  0  0
    5.3558   -0.0595   -1.3220 H   0  0  0  0  0  0  0  0  0  0  0  0
    3.2837   -1.2941   -1.7970 H   0  0  0  0  0  0  0  0  0  0  0  0
   -2.1851   -3.0179   -3.2404 H   0  0  0  0  0  0  0  0  0  0  0  0
    1.1136   -1.1512   -6.4706 H   0  0  0  0  0  0  0  0  0  0  0  0
    1.8466   -1.9921   -4.2709 H   0  0  0  0  0  0  0  0  0  0  0  0
   -0.2361    0.1907   -8.2861 H   0  0  0  0  0  0  0  0  0  0  0  0
   -1.8826    1.7109   -9.3113 H   0  0  0  0  0  0  0  0  0  0  0  0
   -5.0528   -0.1181   -7.0736 H   0  0  0  0  0  0  0  0  0  0  0  0
   -5.4753    1.7516   -8.7974 H   0  0  0  0  0  0  0  0  0  0  0  0
  1  2  2  0  0  0  0
  2  3  1  0  0  0  0
  3  4  2  0  0  0  0
  3  5  1  0  0  0  0
  5  6  2  0  0  0  0
  6  7  1  0  0  0  0
  7  8  2  0  0  0  0
  8  9  1  0  0  0  0
  8 10  1  0  0  0  0
 10 11  1  0  0  0  0
 10 12  2  0  0  0  0
 12 13  1  0  0  0  0
  6 14  1  0  0  0  0
 14 15  2  0  0  0  0
 15 16  1  0  0  0  0
 16 17  3  0  0  0  0
 15 18  1  0  0  0  0
 18 19  3  0  0  0  0
  1 20  1  0  0  0  0
 20 21  2  0  0  0  0
 21 22  1  0  0  0  0
 22 23  1  0  0  0  0
 23 24  2  0  0  0  0
 24 25  2  0  0  0  0
 22 26  2  0  0  0  0
 26 27  1  0  0  0  0
 27 28  2  0  0  0  0
 28 29  1  0  0  0  0
 29 30  1  0  0  0  0
 30 31  2  0  0  0  0
 26 32  1  0  0  0  0
 32 33  2  0  0  0  0
 33 34  1  0  0  0  0
 34 35  1  0  0  0  0
 35 36  2  0  0  0  0
 36 37  1  0  0  0  0
 37 38  2  0  0  0  0
 38 39  1  0  0  0  0
 39 40  1  0  0  0  0
 38 41  1  0  0  0  0
 41 42  2  0  0  0  0
 34 43  1  0  0  0  0
 43 44  2  0  0  0  0
 44 45  1  0  0  0  0
 45 46  2  0  0  0  0
 46 47  1  0  0  0  0
 47 48  1  0  0  0  0
 46 49  1  0  0  0  0
 49 50  2  0  0  0  0
 33 51  1  0  0  0  0
 51 52  1  0  0  0  0
 52 53  1  0  0  0  0
 53 54  2  0  0  0  0
 54 55  1  0  0  0  0
 55 56  1  0  0  0  0
 56 57  2  0  0  0  0
 57 58  1  0  0  0  0
 58 59  2  0  0  0  0
 59 60  1  0  0  0  0
 60 61  1  0  0  0  0
 59 62  1  0  0  0  0
 62 63  2  0  0  0  0
 55 64  1  0  0  0  0
 64 65  2  0  0  0  0
 65 66  1  0  0  0  0
 66 67  2  0  0  0  0
 67 68  1  0  0  0  0
 68 69  1  0  0  0  0
 67 70  1  0  0  0  0
 70 71  2  0  0  0  0
 54 72  1  0  0  0  0
 72 73  1  0  0  0  0
 53 74  1  0  0  0  0
 74 75  2  0  0  0  0
 75 76  1  0  0  0  0
 76 77  1  0  0  0  0
 77 78  2  0  0  0  0
 77 79  1  0  0  0  0
 79 80  2  0  0  0  0
 80 81  1  0  0  0  0
 81 82  1  0  0  0  0
 82 83  2  0  0  0  0
 80 84  1  0  0  0  0
 84 85  2  0  0  0  0
 85 86  1  0  0  0  0
 86 87  2  0  0  0  0
 86 88  1  0  0  0  0
 88 89  2  0  0  0  0
 89 90  1  0  0  0  0
 90 91  2  0  0  0  0
 90 92  1  0  0  0  0
 92 93  2  0  0  0  0
 93 94  1  0  0  0  0
 93 95  1  0  0  0  0
 95 96  1  0  0  0  0
 95 97  2  0  0  0  0
 97 98  1  0  0  0  0
 97 99  1  0  0  0  0
 99100  1  0  0  0  0
 99101  2  0  0  0  0
101102  1  0  0  0  0
102103  2  0  0  0  0
103104  1  0  0  0  0
104105  3  0  0  0  0
103106  1  0  0  0  0
106107  3  0  0  0  0
 14  2  1  0  0  0  0
 31 20  1  0  0  0  0
 73 32  1  0  0  0  0
 83 74  1  0  0  0  0
102 89  1  0  0  0  0
 12  5  1  0  0  0  0
 25 21  1  0  0  0  0
 31 27  1  0  0  0  0
 42 35  1  0  0  0  0
 50 43  1  0  0  0  0
 72 51  2  0  0  0  0
 81 76  2  0  0  0  0
101 92  1  0  0  0  0
 63 56  1  0  0  0  0
 71 64  1  0  0  0  0
 87 79  1  0  0  0  0
  1108  1  0  0  0  0
  7109  1  0  0  0  0
 36110  1  0  0  0  0
 37111  1  0  0  0  0
 40112  1  0  0  0  0
 40113  1  0  0  0  0
 40114  1  0  0  0  0
 41115  1  0  0  0  0
 42116  1  0  0  0  0
 44117  1  0  0  0  0
 45118  1  0  0  0  0
 48119  1  0  0  0  0
 48120  1  0  0  0  0
 48121  1  0  0  0  0
 49122  1  0  0  0  0
 50123  1  0  0  0  0
 57124  1  0  0  0  0
 58125  1  0  0  0  0
 61126  1  0  0  0  0
 61127  1  0  0  0  0
 61128  1  0  0  0  0
 62129  1  0  0  0  0
 63130  1  0  0  0  0
 65131  1  0  0  0  0
 66132  1  0  0  0  0
 69133  1  0  0  0  0
 69134  1  0  0  0  0
 69135  1  0  0  0  0
 70136  1  0  0  0  0
 71137  1  0  0  0  0
 75138  1  0  0  0  0
 82139  1  0  0  0  0
 83140  1  0  0  0  0
 84141  1  0  0  0  0
 85142  1  0  0  0  0
 87143  1  0  0  0  0
 88144  1  0  0  0  0
M  END
