
  xtb     02042203423D
 energy: -296.021382954858 gnorm: 0.000864911496 xtb: 6.4.1 (unknown)
157172  0     0  0            999 V2000
    2.3419    5.3133   -7.0407 C   0  0  0  0  0  0  0  0  0  0  0  0
    3.0373    6.3660   -7.6046 C   0  0  0  0  0  0  0  0  0  0  0  0
    3.8831    7.3212   -6.8819 C   0  0  0  0  0  0  0  0  0  0  0  0
    4.1833    7.3131   -5.7056 O   0  0  0  0  0  0  0  0  0  0  0  0
    4.1987    8.3895   -7.8656 C   0  0  0  0  0  0  0  0  0  0  0  0
    3.5569    8.1125   -9.0850 C   0  0  0  0  0  0  0  0  0  0  0  0
    3.6715    8.9802  -10.1567 C   0  0  0  0  0  0  0  0  0  0  0  0
    4.4391   10.1245   -9.9894 C   0  0  0  0  0  0  0  0  0  0  0  0
    4.5619   10.9793  -11.0091 F   0  0  0  0  0  0  0  0  0  0  0  0
    5.0871   10.4108   -8.7910 C   0  0  0  0  0  0  0  0  0  0  0  0
    5.8242   11.5197   -8.6717 F   0  0  0  0  0  0  0  0  0  0  0  0
    4.9619    9.5317   -7.7124 C   0  0  0  0  0  0  0  0  0  0  0  0
    5.5873    9.8077   -6.5701 F   0  0  0  0  0  0  0  0  0  0  0  0
    2.8467    6.8396   -8.9519 C   0  0  0  0  0  0  0  0  0  0  0  0
    2.2055    6.1766   -9.9702 C   0  0  0  0  0  0  0  0  0  0  0  0
    1.6552    4.8823   -9.8633 C   0  0  0  0  0  0  0  0  0  0  0  0
    1.2174    3.8202   -9.8651 N   0  0  0  0  0  0  0  0  0  0  0  0
    2.0506    6.6871  -11.2744 C   0  0  0  0  0  0  0  0  0  0  0  0
    1.8825    7.0552  -12.3489 N   0  0  0  0  0  0  0  0  0  0  0  0
    2.5325    4.6033   -5.8513 C   0  0  0  0  0  0  0  0  0  0  0  0
    3.6530    4.2481   -5.0688 C   0  0  0  0  0  0  0  0  0  0  0  0
    5.0585    4.5833   -5.4406 C   0  0  0  0  0  0  0  0  0  0  0  0
    5.4496    4.0870   -6.8330 C   0  0  0  0  0  0  0  0  0  0  0  0
    3.2825    3.4836   -3.9645 C   0  0  0  0  0  0  0  0  0  0  0  0
    1.8935    3.2797   -3.8825 C   0  0  0  0  0  0  0  0  0  0  0  0
    1.0347    3.9106   -5.2072 S   0  0  0  0  0  0  0  0  0  0  0  0
    1.5734    2.6221   -2.6870 C   0  0  0  0  0  0  0  0  0  0  0  0
    2.7463    2.3933   -1.9652 C   0  0  0  0  0  0  0  0  0  0  0  0
    3.9580    2.8686   -2.7417 C   0  0  0  0  0  0  0  0  0  0  0  0
    4.7504    3.9502   -1.9836 C   0  0  0  0  0  0  0  0  0  0  0  0
    5.3407    3.5075   -0.6508 C   0  0  0  0  0  0  0  0  0  0  0  0
    4.7574    1.5767   -3.0412 C   0  0  0  0  0  0  0  0  0  0  0  0
    6.0717    1.7133   -3.7964 C   0  0  0  0  0  0  0  0  0  0  0  0
    2.5106    1.7079   -0.7867 C   0  0  0  0  0  0  0  0  0  0  0  0
    1.1585    1.4437   -0.5780 C   0  0  0  0  0  0  0  0  0  0  0  0
    0.1674    2.0304   -1.8968 S   0  0  0  0  0  0  0  0  0  0  0  0
    0.6431    0.6835    0.4948 C   0  0  0  0  0  0  0  0  0  0  0  0
   -0.6688    0.3864    0.8739 C   0  0  0  0  0  0  0  0  0  0  0  0
   -1.8296    0.9359    0.3690 N   0  0  0  0  0  0  0  0  0  0  0  0
   -2.9915    0.1386    0.4781 C   0  0  0  0  0  0  0  0  0  0  0  0
   -2.9992   -1.1465   -0.0561 C   0  0  0  0  0  0  0  0  0  0  0  0
   -4.0457   -2.0106    0.2035 C   0  0  0  0  0  0  0  0  0  0  0  0
   -5.1031   -1.5934    1.0013 C   0  0  0  0  0  0  0  0  0  0  0  0
   -6.4248   -2.6379    1.5210 S   0  0  0  0  0  0  0  0  0  0  0  0
   -5.9511   -4.2907    0.9504 C   0  0  0  0  0  0  0  0  0  0  0  0
   -5.1410   -0.2752    1.4571 C   0  0  0  0  0  0  0  0  0  0  0  0
   -4.0990    0.5851    1.1982 C   0  0  0  0  0  0  0  0  0  0  0  0
   -1.9584    2.2970    0.0802 C   0  0  0  0  0  0  0  0  0  0  0  0
   -1.1533    3.2590    0.6934 C   0  0  0  0  0  0  0  0  0  0  0  0
   -1.2786    4.5862    0.3530 C   0  0  0  0  0  0  0  0  0  0  0  0
   -2.2149    4.9913   -0.5977 C   0  0  0  0  0  0  0  0  0  0  0  0
   -2.2571    6.7129   -0.9694 S   0  0  0  0  0  0  0  0  0  0  0  0
   -3.4869    6.8469   -2.2971 C   0  0  0  0  0  0  0  0  0  0  0  0
   -3.0424    4.0415   -1.1839 C   0  0  0  0  0  0  0  0  0  0  0  0
   -2.9122    2.7094   -0.8485 C   0  0  0  0  0  0  0  0  0  0  0  0
   -0.6860   -0.6117    1.8754 C   0  0  0  0  0  0  0  0  0  0  0  0
   -1.9686   -1.4093    2.7165 S   0  0  0  0  0  0  0  0  0  0  0  0
   -0.8093   -2.4689    3.5159 C   0  0  0  0  0  0  0  0  0  0  0  0
    0.5249   -2.0502    3.2977 C   0  0  0  0  0  0  0  0  0  0  0  0
    1.6561   -2.4576    3.9520 N   0  0  0  0  0  0  0  0  0  0  0  0
    2.8748   -2.3099    3.2492 C   0  0  0  0  0  0  0  0  0  0  0  0
    3.0212   -2.8970    1.9973 C   0  0  0  0  0  0  0  0  0  0  0  0
    4.1600   -2.6762    1.2475 C   0  0  0  0  0  0  0  0  0  0  0  0
    5.1652   -1.8553    1.7435 C   0  0  0  0  0  0  0  0  0  0  0  0
    6.6150   -1.4196    0.8453 S   0  0  0  0  0  0  0  0  0  0  0  0
    6.3069   -2.0678   -0.8231 C   0  0  0  0  0  0  0  0  0  0  0  0
    5.0440   -1.3150    3.0248 C   0  0  0  0  0  0  0  0  0  0  0  0
    3.9120   -1.5410    3.7742 C   0  0  0  0  0  0  0  0  0  0  0  0
    1.6822   -2.9388    5.2568 C   0  0  0  0  0  0  0  0  0  0  0  0
    2.7521   -3.7385    5.6782 C   0  0  0  0  0  0  0  0  0  0  0  0
    2.7552   -4.2905    6.9355 C   0  0  0  0  0  0  0  0  0  0  0  0
    1.6974   -4.0588    7.8177 C   0  0  0  0  0  0  0  0  0  0  0  0
    1.7648   -4.8818    9.3682 S   0  0  0  0  0  0  0  0  0  0  0  0
    0.0815   -4.7103   10.0239 C   0  0  0  0  0  0  0  0  0  0  0  0
    0.6753   -3.1967    7.4340 C   0  0  0  0  0  0  0  0  0  0  0  0
    0.6770   -2.6332    6.1754 C   0  0  0  0  0  0  0  0  0  0  0  0
    0.5583   -1.0407    2.3056 C   0  0  0  0  0  0  0  0  0  0  0  0
    1.8222   -0.1830    1.4859 S   0  0  0  0  0  0  0  0  0  0  0  0
   -1.3588   -3.6264    4.1014 C   0  0  0  0  0  0  0  0  0  0  0  0
   -0.6690   -4.8122    4.4588 C   0  0  0  0  0  0  0  0  0  0  0  0
   -1.3528   -5.9667    5.0028 C   0  0  0  0  0  0  0  0  0  0  0  0
   -0.5113   -6.9649    5.2536 N   0  0  0  0  0  0  0  0  0  0  0  0
    0.9773   -6.5266    4.8285 S   0  0  0  0  0  4  0  0  0  0  0  0
    0.6330   -5.0460    4.2988 N   0  0  0  0  0  0  0  0  0  0  0  0
   -2.7644   -6.0568    5.1167 C   0  0  0  0  0  0  0  0  0  0  0  0
   -3.4548   -4.8733    4.7611 C   0  0  0  0  0  0  0  0  0  0  0  0
   -4.7646   -4.6524    4.8740 N   0  0  0  0  0  0  0  0  0  0  0  0
   -5.1090   -3.1733    4.3636 S   0  0  0  0  0  0  0  0  0  0  0  0
   -3.6082   -2.7085    4.0149 N   0  0  0  0  0  0  0  0  0  0  0  0
   -2.7655   -3.7098    4.2740 C   0  0  0  0  0  0  0  0  0  0  0  0
   -3.3842   -7.2359    5.5589 C   0  0  0  0  0  0  0  0  0  0  0  0
   -4.6537   -7.6453    5.2069 C   0  0  0  0  0  0  0  0  0  0  0  0
   -5.3302   -7.2501    3.9624 C   0  0  0  0  0  0  0  0  0  0  0  0
   -4.9303   -6.5202    3.0794 O   0  0  0  0  0  0  0  0  0  0  0  0
   -6.5661   -8.0778    3.9160 C   0  0  0  0  0  0  0  0  0  0  0  0
   -6.5955   -8.9479    5.0197 C   0  0  0  0  0  0  0  0  0  0  0  0
   -7.6314   -9.8509    5.1795 C   0  0  0  0  0  0  0  0  0  0  0  0
   -8.6382   -9.8658    4.2236 C   0  0  0  0  0  0  0  0  0  0  0  0
   -9.6474  -10.7324    4.3543 F   0  0  0  0  0  0  0  0  0  0  0  0
   -8.6310   -9.0036    3.1309 C   0  0  0  0  0  0  0  0  0  0  0  0
   -9.6240   -9.0386    2.2350 F   0  0  0  0  0  0  0  0  0  0  0  0
   -7.5771   -8.1011    2.9753 C   0  0  0  0  0  0  0  0  0  0  0  0
   -7.5780   -7.2714    1.9288 F   0  0  0  0  0  0  0  0  0  0  0  0
   -5.4214   -8.6739    5.8509 C   0  0  0  0  0  0  0  0  0  0  0  0
   -5.1679   -9.2231    7.0851 C   0  0  0  0  0  0  0  0  0  0  0  0
   -5.9541  -10.2279    7.6809 C   0  0  0  0  0  0  0  0  0  0  0  0
   -6.5540  -11.0547    8.2054 N   0  0  0  0  0  0  0  0  0  0  0  0
   -4.1159   -8.8149    7.9304 C   0  0  0  0  0  0  0  0  0  0  0  0
   -3.3133   -8.5032    8.6907 N   0  0  0  0  0  0  0  0  0  0  0  0
    1.4432    5.0180   -7.5737 H   0  0  0  0  0  0  0  0  0  0  0  0
    3.1907    8.8099  -11.1056 H   0  0  0  0  0  0  0  0  0  0  0  0
    5.1771    5.6687   -5.3908 H   0  0  0  0  0  0  0  0  0  0  0  0
    5.7321    4.1487   -4.7072 H   0  0  0  0  0  0  0  0  0  0  0  0
    5.2957    3.0123   -6.9152 H   0  0  0  0  0  0  0  0  0  0  0  0
    6.5001    4.2999   -7.0156 H   0  0  0  0  0  0  0  0  0  0  0  0
    4.8635    4.5698   -7.6093 H   0  0  0  0  0  0  0  0  0  0  0  0
    4.0742    4.7910   -1.8112 H   0  0  0  0  0  0  0  0  0  0  0  0
    5.5534    4.3124   -2.6244 H   0  0  0  0  0  0  0  0  0  0  0  0
    6.0125    2.6619   -0.7716 H   0  0  0  0  0  0  0  0  0  0  0  0
    4.5592    3.2380    0.0534 H   0  0  0  0  0  0  0  0  0  0  0  0
    5.9089    4.3300   -0.2225 H   0  0  0  0  0  0  0  0  0  0  0  0
    4.0976    0.9093   -3.6025 H   0  0  0  0  0  0  0  0  0  0  0  0
    4.9565    1.1018   -2.0785 H   0  0  0  0  0  0  0  0  0  0  0  0
    6.7383    2.4229   -3.3138 H   0  0  0  0  0  0  0  0  0  0  0  0
    6.5705    0.7458   -3.8121 H   0  0  0  0  0  0  0  0  0  0  0  0
    5.9063    2.0154   -4.8249 H   0  0  0  0  0  0  0  0  0  0  0  0
    3.2554    1.3905   -0.0790 H   0  0  0  0  0  0  0  0  0  0  0  0
   -2.1570   -1.4804   -0.6447 H   0  0  0  0  0  0  0  0  0  0  0  0
   -4.0127   -3.0101   -0.1981 H   0  0  0  0  0  0  0  0  0  0  0  0
   -5.9039   -4.3112   -0.1341 H   0  0  0  0  0  0  0  0  0  0  0  0
   -6.7365   -4.9570    1.2922 H   0  0  0  0  0  0  0  0  0  0  0  0
   -5.0100   -4.5914    1.4004 H   0  0  0  0  0  0  0  0  0  0  0  0
   -5.9823    0.0496    2.0492 H   0  0  0  0  0  0  0  0  0  0  0  0
   -4.1114    1.5919    1.5877 H   0  0  0  0  0  0  0  0  0  0  0  0
   -0.4291    2.9618    1.4368 H   0  0  0  0  0  0  0  0  0  0  0  0
   -0.6514    5.3295    0.8206 H   0  0  0  0  0  0  0  0  0  0  0  0
   -3.1833    6.2398   -3.1449 H   0  0  0  0  0  0  0  0  0  0  0  0
   -3.4969    7.8952   -2.5791 H   0  0  0  0  0  0  0  0  0  0  0  0
   -4.4669    6.5561   -1.9302 H   0  0  0  0  0  0  0  0  0  0  0  0
   -3.7859    4.3227   -1.9114 H   0  0  0  0  0  0  0  0  0  0  0  0
   -3.5470    1.9731   -1.3180 H   0  0  0  0  0  0  0  0  0  0  0  0
    2.2286   -3.5206    1.6116 H   0  0  0  0  0  0  0  0  0  0  0  0
    4.2456   -3.1407    0.2791 H   0  0  0  0  0  0  0  0  0  0  0  0
    6.3047   -3.1538   -0.8111 H   0  0  0  0  0  0  0  0  0  0  0  0
    5.3693   -1.6735   -1.2045 H   0  0  0  0  0  0  0  0  0  0  0  0
    7.1334   -1.7118   -1.4306 H   0  0  0  0  0  0  0  0  0  0  0  0
    5.8406   -0.6980    3.4104 H   0  0  0  0  0  0  0  0  0  0  0  0
    3.8091   -1.1035    4.7556 H   0  0  0  0  0  0  0  0  0  0  0  0
    3.5517   -3.9649    4.9907 H   0  0  0  0  0  0  0  0  0  0  0  0
    3.5653   -4.9309    7.2482 H   0  0  0  0  0  0  0  0  0  0  0  0
    0.0403   -5.3562   10.8953 H   0  0  0  0  0  0  0  0  0  0  0  0
   -0.1068   -3.6827   10.3207 H   0  0  0  0  0  0  0  0  0  0  0  0
   -0.6354   -5.0489    9.2821 H   0  0  0  0  0  0  0  0  0  0  0  0
   -0.1268   -2.9528    8.1120 H   0  0  0  0  0  0  0  0  0  0  0  0
   -0.1167   -1.9548    5.9029 H   0  0  0  0  0  0  0  0  0  0  0  0
   -2.7739   -7.8828    6.1766 H   0  0  0  0  0  0  0  0  0  0  0  0
   -7.6869  -10.5408    6.0054 H   0  0  0  0  0  0  0  0  0  0  0  0
  1  2  2  0  0  0  0
  2  3  1  0  0  0  0
  3  4  2  0  0  0  0
  3  5  1  0  0  0  0
  5  6  2  0  0  0  0
  6  7  1  0  0  0  0
  7  8  2  0  0  0  0
  8  9  1  0  0  0  0
  8 10  1  0  0  0  0
 10 11  1  0  0  0  0
 10 12  2  0  0  0  0
 12 13  1  0  0  0  0
  6 14  1  0  0  0  0
 14 15  2  0  0  0  0
 15 16  1  0  0  0  0
 16 17  3  0  0  0  0
 15 18  1  0  0  0  0
 18 19  3  0  0  0  0
  1 20  1  0  0  0  0
 20 21  2  0  0  0  0
 21 22  1  0  0  0  0
 22 23  1  0  0  0  0
 21 24  1  0  0  0  0
 24 25  2  0  0  0  0
 25 26  1  0  0  0  0
 25 27  1  0  0  0  0
 27 28  2  0  0  0  0
 28 29  1  0  0  0  0
 29 30  1  0  0  0  0
 30 31  1  0  0  0  0
 29 32  1  0  0  0  0
 32 33  1  0  0  0  0
 28 34  1  0  0  0  0
 34 35  2  0  0  0  0
 35 36  1  0  0  0  0
 35 37  1  0  0  0  0
 37 38  2  0  0  0  0
 38 39  1  0  0  0  0
 39 40  1  0  0  0  0
 40 41  2  0  0  0  0
 41 42  1  0  0  0  0
 42 43  2  0  0  0  0
 43 44  1  0  0  0  0
 44 45  1  0  0  0  0
 43 46  1  0  0  0  0
 46 47  2  0  0  0  0
 39 48  1  0  0  0  0
 48 49  2  0  0  0  0
 49 50  1  0  0  0  0
 50 51  2  0  0  0  0
 51 52  1  0  0  0  0
 52 53  1  0  0  0  0
 51 54  1  0  0  0  0
 54 55  2  0  0  0  0
 38 56  1  0  0  0  0
 56 57  1  0  0  0  0
 57 58  1  0  0  0  0
 58 59  2  0  0  0  0
 59 60  1  0  0  0  0
 60 61  1  0  0  0  0
 61 62  2  0  0  0  0
 62 63  1  0  0  0  0
 63 64  2  0  0  0  0
 64 65  1  0  0  0  0
 65 66  1  0  0  0  0
 64 67  1  0  0  0  0
 67 68  2  0  0  0  0
 60 69  1  0  0  0  0
 69 70  2  0  0  0  0
 70 71  1  0  0  0  0
 71 72  2  0  0  0  0
 72 73  1  0  0  0  0
 73 74  1  0  0  0  0
 72 75  1  0  0  0  0
 75 76  2  0  0  0  0
 59 77  1  0  0  0  0
 77 78  1  0  0  0  0
 58 79  1  0  0  0  0
 79 80  2  0  0  0  0
 80 81  1  0  0  0  0
 81 82  1  0  0  0  0
 82 83  2  0  0  0  0
 83 84  2  0  0  0  0
 81 85  2  0  0  0  0
 85 86  1  0  0  0  0
 86 87  2  0  0  0  0
 87 88  1  0  0  0  0
 88 89  1  0  0  0  0
 89 90  2  0  0  0  0
 85 91  1  0  0  0  0
 91 92  2  0  0  0  0
 92 93  1  0  0  0  0
 93 94  2  0  0  0  0
 93 95  1  0  0  0  0
 95 96  2  0  0  0  0
 96 97  1  0  0  0  0
 97 98  2  0  0  0  0
 98 99  1  0  0  0  0
 98100  1  0  0  0  0
100101  1  0  0  0  0
100102  2  0  0  0  0
102103  1  0  0  0  0
 96104  1  0  0  0  0
104105  2  0  0  0  0
105106  1  0  0  0  0
106107  3  0  0  0  0
105108  1  0  0  0  0
108109  3  0  0  0  0
 14  2  1  0  0  0  0
 26 20  1  0  0  0  0
 36 27  1  0  0  0  0
 78 37  1  0  0  0  0
 90 79  1  0  0  0  0
104 92  1  0  0  0  0
 12  5  1  0  0  0  0
 29 24  1  0  0  0  0
 47 40  1  0  0  0  0
 55 48  1  0  0  0  0
 77 56  2  0  0  0  0
 84 80  1  0  0  0  0
 90 86  1  0  0  0  0
102 95  1  0  0  0  0
 68 61  1  0  0  0  0
 76 69  1  0  0  0  0
  1110  1  0  0  0  0
  7111  1  0  0  0  0
 22112  1  0  0  0  0
 22113  1  0  0  0  0
 23114  1  0  0  0  0
 23115  1  0  0  0  0
 23116  1  0  0  0  0
 30117  1  0  0  0  0
 30118  1  0  0  0  0
 31119  1  0  0  0  0
 31120  1  0  0  0  0
 31121  1  0  0  0  0
 32122  1  0  0  0  0
 32123  1  0  0  0  0
 33124  1  0  0  0  0
 33125  1  0  0  0  0
 33126  1  0  0  0  0
 34127  1  0  0  0  0
 41128  1  0  0  0  0
 42129  1  0  0  0  0
 45130  1  0  0  0  0
 45131  1  0  0  0  0
 45132  1  0  0  0  0
 46133  1  0  0  0  0
 47134  1  0  0  0  0
 49135  1  0  0  0  0
 50136  1  0  0  0  0
 53137  1  0  0  0  0
 53138  1  0  0  0  0
 53139  1  0  0  0  0
 54140  1  0  0  0  0
 55141  1  0  0  0  0
 62142  1  0  0  0  0
 63143  1  0  0  0  0
 66144  1  0  0  0  0
 66145  1  0  0  0  0
 66146  1  0  0  0  0
 67147  1  0  0  0  0
 68148  1  0  0  0  0
 70149  1  0  0  0  0
 71150  1  0  0  0  0
 74151  1  0  0  0  0
 74152  1  0  0  0  0
 74153  1  0  0  0  0
 75154  1  0  0  0  0
 76155  1  0  0  0  0
 91156  1  0  0  0  0
 97157  1  0  0  0  0
M  END
