
  xtb     02082209513D
 energy: -443.097513747121 gnorm: 0.000898955549 xtb: 6.4.1 (unknown)
252273  0     0  0            999 V2000
    2.8561    1.6767    8.9738 C   0  0  0  0  0  0  0  0  0  0  0  0
    3.0059    2.7926    9.7783 C   0  0  0  0  0  0  0  0  0  0  0  0
    2.3585    4.0940    9.5901 C   0  0  0  0  0  0  0  0  0  0  0  0
    1.8506    4.5464    8.5852 O   0  0  0  0  0  0  0  0  0  0  0  0
    2.4587    4.7789   10.9046 C   0  0  0  0  0  0  0  0  0  0  0  0
    3.2115    3.9858   11.7879 C   0  0  0  0  0  0  0  0  0  0  0  0
    3.4461    4.4013   13.0865 C   0  0  0  0  0  0  0  0  0  0  0  0
    2.9115    5.6185   13.4861 C   0  0  0  0  0  0  0  0  0  0  0  0
    3.1133    6.0370   14.7386 F   0  0  0  0  0  0  0  0  0  0  0  0
    2.1689    6.4193   12.6225 C   0  0  0  0  0  0  0  0  0  0  0  0
    1.6735    7.5864   13.0463 F   0  0  0  0  0  0  0  0  0  0  0  0
    1.9422    5.9952   11.3104 C   0  0  0  0  0  0  0  0  0  0  0  0
    1.2323    6.7645   10.4896 F   0  0  0  0  0  0  0  0  0  0  0  0
    3.6505    2.7919   11.0650 C   0  0  0  0  0  0  0  0  0  0  0  0
    4.6183    1.9186   11.5034 C   0  0  0  0  0  0  0  0  0  0  0  0
    5.1689    1.9292   12.7998 C   0  0  0  0  0  0  0  0  0  0  0  0
    5.6377    1.8739   13.8465 N   0  0  0  0  0  0  0  0  0  0  0  0
    5.2902    1.0075   10.6723 C   0  0  0  0  0  0  0  0  0  0  0  0
    5.9650    0.3299   10.0343 N   0  0  0  0  0  0  0  0  0  0  0  0
    2.2098    1.5430    7.7464 C   0  0  0  0  0  0  0  0  0  0  0  0
    1.8022    0.3092    7.1696 C   0  0  0  0  0  0  0  0  0  0  0  0
    1.8145   -0.9278    7.7698 N   0  0  0  0  0  0  0  0  0  0  0  0
    2.9373   -1.4531    8.4216 C   0  0  0  0  0  0  0  0  0  0  0  0
    2.7770   -2.2578    9.5509 C   0  0  0  0  0  0  0  0  0  0  0  0
    3.8786   -2.7995   10.1720 C   0  0  0  0  0  0  0  0  0  0  0  0
    5.1607   -2.5565    9.6784 C   0  0  0  0  0  0  0  0  0  0  0  0
    6.4984   -3.2925   10.5464 S   0  0  0  0  0  0  0  0  0  0  0  0
    7.9371   -2.3516    9.9640 C   0  0  0  0  0  0  0  0  0  0  0  0
    5.3191   -1.7723    8.5396 C   0  0  0  0  0  0  0  0  0  0  0  0
    4.2162   -1.2221    7.9211 C   0  0  0  0  0  0  0  0  0  0  0  0
    0.6927   -1.7505    7.5535 C   0  0  0  0  0  0  0  0  0  0  0  0
   -0.5838   -1.1942    7.6020 C   0  0  0  0  0  0  0  0  0  0  0  0
   -1.6999   -1.9564    7.3263 C   0  0  0  0  0  0  0  0  0  0  0  0
   -1.5588   -3.3036    7.0190 C   0  0  0  0  0  0  0  0  0  0  0  0
   -2.9015   -4.3647    6.5997 S   0  0  0  0  0  0  0  0  0  0  0  0
   -4.3628   -3.2991    6.7296 C   0  0  0  0  0  0  0  0  0  0  0  0
   -0.2859   -3.8747    7.0203 C   0  0  0  0  0  0  0  0  0  0  0  0
    0.8293   -3.1095    7.2745 C   0  0  0  0  0  0  0  0  0  0  0  0
    1.2063    0.5107    5.9156 C   0  0  0  0  0  0  0  0  0  0  0  0
    0.5399   -0.5699    4.7290 S   0  0  0  0  0  0  0  0  0  0  0  0
    0.1677    0.7968    3.7010 C   0  0  0  0  0  0  0  0  0  0  0  0
    0.4787    2.0160    4.2872 C   0  0  0  0  0  0  0  0  0  0  0  0
    0.0025    3.2206    3.7563 N   0  0  0  0  0  0  0  0  0  0  0  0
   -1.3972    3.3279    3.7407 C   0  0  0  0  0  0  0  0  0  0  0  0
   -2.0821    3.9076    2.6763 C   0  0  0  0  0  0  0  0  0  0  0  0
   -3.4638    3.9106    2.6455 C   0  0  0  0  0  0  0  0  0  0  0  0
   -4.1853    3.3445    3.6873 C   0  0  0  0  0  0  0  0  0  0  0  0
   -5.9532    3.2509    3.7167 S   0  0  0  0  0  0  0  0  0  0  0  0
   -6.4625    4.6590    2.6946 C   0  0  0  0  0  0  0  0  0  0  0  0
   -3.5081    2.7862    4.7665 C   0  0  0  0  0  0  0  0  0  0  0  0
   -2.1316    2.7728    4.7913 C   0  0  0  0  0  0  0  0  0  0  0  0
    0.8795    4.2076    3.3235 C   0  0  0  0  0  0  0  0  0  0  0  0
    0.4956    5.5452    3.2328 C   0  0  0  0  0  0  0  0  0  0  0  0
    1.3902    6.4942    2.7894 C   0  0  0  0  0  0  0  0  0  0  0  0
    2.6843    6.1317    2.4319 C   0  0  0  0  0  0  0  0  0  0  0  0
    3.7674    7.4019    1.8316 S   0  0  0  0  0  0  0  0  0  0  0  0
    5.4036    6.8080    2.3504 C   0  0  0  0  0  0  0  0  0  0  0  0
    3.0764    4.8049    2.5287 C   0  0  0  0  0  0  0  0  0  0  0  0
    2.1829    3.8547    2.9759 C   0  0  0  0  0  0  0  0  0  0  0  0
    1.1247    1.8449    5.5273 C   0  0  0  0  0  0  0  0  0  0  0  0
    1.7556    2.9152    6.7191 S   0  0  0  0  0  0  0  0  0  0  0  0
   -0.2852    0.6017    2.3691 C   0  0  0  0  0  0  0  0  0  0  0  0
   -0.8101   -0.5555    1.8246 C   0  0  0  0  0  0  0  0  0  0  0  0
   -1.1664   -1.6910    2.5781 N   0  0  0  0  0  0  0  0  0  0  0  0
   -0.2809   -2.7613    2.6637 C   0  0  0  0  0  0  0  0  0  0  0  0
   -0.4881   -3.7953    3.5791 C   0  0  0  0  0  0  0  0  0  0  0  0
    0.4311   -4.8127    3.7017 C   0  0  0  0  0  0  0  0  0  0  0  0
    1.5885   -4.8209    2.9308 C   0  0  0  0  0  0  0  0  0  0  0  0
    2.7142   -6.1709    3.1659 S   0  0  0  0  0  0  0  0  0  0  0  0
    4.2965   -5.4877    2.5870 C   0  0  0  0  0  0  0  0  0  0  0  0
    1.8045   -3.7998    2.0191 C   0  0  0  0  0  0  0  0  0  0  0  0
    0.8805   -2.7820    1.8914 C   0  0  0  0  0  0  0  0  0  0  0  0
   -2.5143   -1.7423    2.9688 C   0  0  0  0  0  0  0  0  0  0  0  0
   -3.1133   -0.6025    3.5008 C   0  0  0  0  0  0  0  0  0  0  0  0
   -4.4501   -0.5955    3.8497 C   0  0  0  0  0  0  0  0  0  0  0  0
   -5.2176   -1.7385    3.6753 C   0  0  0  0  0  0  0  0  0  0  0  0
   -6.9351   -1.8387    4.0807 S   0  0  0  0  0  0  0  0  0  0  0  0
   -7.2590   -0.3021    4.9914 C   0  0  0  0  0  0  0  0  0  0  0  0
   -4.6268   -2.8803    3.1347 C   0  0  0  0  0  0  0  0  0  0  0  0
   -3.2964   -2.8826    2.7777 C   0  0  0  0  0  0  0  0  0  0  0  0
   -0.9630   -0.4428    0.4290 C   0  0  0  0  0  0  0  0  0  0  0  0
   -1.3654   -1.5584   -0.8247 S   0  0  0  0  0  0  0  0  0  0  0  0
   -0.9318   -0.3695   -2.0545 C   0  0  0  0  0  0  0  0  0  0  0  0
   -0.4837    0.8225   -1.4999 C   0  0  0  0  0  0  0  0  0  0  0  0
    0.0871    1.8715   -2.1982 N   0  0  0  0  0  0  0  0  0  0  0  0
    0.8776    1.5986   -3.3246 C   0  0  0  0  0  0  0  0  0  0  0  0
    0.8452    2.4366   -4.4332 C   0  0  0  0  0  0  0  0  0  0  0  0
    1.5460    2.1149   -5.5818 C   0  0  0  0  0  0  0  0  0  0  0  0
    2.2755    0.9358   -5.6463 C   0  0  0  0  0  0  0  0  0  0  0  0
    3.0961    0.3512   -7.0968 S   0  0  0  0  0  0  0  0  0  0  0  0
    2.4960    1.4584   -8.4014 C   0  0  0  0  0  0  0  0  0  0  0  0
    2.3802    0.1405   -4.5072 C   0  0  0  0  0  0  0  0  0  0  0  0
    1.7000    0.4707   -3.3585 C   0  0  0  0  0  0  0  0  0  0  0  0
    0.0219    3.1706   -1.6725 C   0  0  0  0  0  0  0  0  0  0  0  0
   -1.1442    3.6223   -1.0544 C   0  0  0  0  0  0  0  0  0  0  0  0
   -1.2241    4.9132   -0.5832 C   0  0  0  0  0  0  0  0  0  0  0  0
   -0.1329    5.7742   -0.6752 C   0  0  0  0  0  0  0  0  0  0  0  0
   -0.3649    7.3987   -0.0340 S   0  0  0  0  0  0  0  0  0  0  0  0
    1.1037    8.3055   -0.5871 C   0  0  0  0  0  0  0  0  0  0  0  0
    1.0443    5.3155   -1.2522 C   0  0  0  0  0  0  0  0  0  0  0  0
    1.1144    4.0309   -1.7552 C   0  0  0  0  0  0  0  0  0  0  0  0
   -0.5415    0.7741   -0.0869 C   0  0  0  0  0  0  0  0  0  0  0  0
   -0.0182    1.8486    1.1612 S   0  0  0  0  0  0  0  0  0  0  0  0
   -0.8731   -0.8089   -3.4158 C   0  0  0  0  0  0  0  0  0  0  0  0
   -1.3054   -0.2031   -4.5944 C   0  0  0  0  0  0  0  0  0  0  0  0
   -2.2091    0.8316   -4.6340 N   0  0  0  0  0  0  0  0  0  0  0  0
   -2.6441    1.3811   -5.8645 C   0  0  0  0  0  0  0  0  0  0  0  0
   -1.7594    1.9899   -6.7440 C   0  0  0  0  0  0  0  0  0  0  0  0
   -2.2029    2.4809   -7.9577 C   0  0  0  0  0  0  0  0  0  0  0  0
   -3.5432    2.3730   -8.3018 C   0  0  0  0  0  0  0  0  0  0  0  0
   -4.1865    2.9181   -9.8483 S   0  0  0  0  0  0  0  0  0  0  0  0
   -2.7250    2.8200  -10.9192 C   0  0  0  0  0  0  0  0  0  0  0  0
   -4.4427    1.8162   -7.3952 C   0  0  0  0  0  0  0  0  0  0  0  0
   -3.9988    1.3224   -6.1901 C   0  0  0  0  0  0  0  0  0  0  0  0
   -3.0420    1.1052   -3.5288 C   0  0  0  0  0  0  0  0  0  0  0  0
   -3.5938    0.0992   -2.7412 C   0  0  0  0  0  0  0  0  0  0  0  0
   -4.3652    0.4087   -1.6379 C   0  0  0  0  0  0  0  0  0  0  0  0
   -4.6258    1.7356   -1.3262 C   0  0  0  0  0  0  0  0  0  0  0  0
   -5.5370    2.2509    0.0909 S   0  0  0  0  0  0  0  0  0  0  0  0
   -5.9453    0.7138    0.9561 C   0  0  0  0  0  0  0  0  0  0  0  0
   -4.1470    2.7432   -2.1620 C   0  0  0  0  0  0  0  0  0  0  0  0
   -3.3567    2.4324   -3.2468 C   0  0  0  0  0  0  0  0  0  0  0  0
   -0.7578   -0.8698   -5.7235 C   0  0  0  0  0  0  0  0  0  0  0  0
   -0.6874   -0.5406   -7.4243 S   0  0  0  0  0  0  0  0  0  0  0  0
    0.2947   -1.9868   -7.6926 C   0  0  0  0  0  0  0  0  0  0  0  0
    0.4264   -2.7546   -6.4993 C   0  0  0  0  0  0  0  0  0  0  0  0
    0.9552   -4.0050   -6.4089 N   0  0  0  0  0  0  0  0  0  0  0  0
    1.4719   -4.4191   -5.1571 C   0  0  0  0  0  0  0  0  0  0  0  0
    0.9138   -5.5022   -4.4900 C   0  0  0  0  0  0  0  0  0  0  0  0
    1.3708   -5.8583   -3.2368 C   0  0  0  0  0  0  0  0  0  0  0  0
    2.3978   -5.1362   -2.6413 C   0  0  0  0  0  0  0  0  0  0  0  0
    3.0154   -5.4708   -1.0286 S   0  0  0  0  0  0  0  0  0  0  0  0
    1.8772   -6.7170   -0.3654 C   0  0  0  0  0  0  0  0  0  0  0  0
    2.9940   -4.0833   -3.3355 C   0  0  0  0  0  0  0  0  0  0  0  0
    2.5359   -3.7269   -4.5839 C   0  0  0  0  0  0  0  0  0  0  0  0
    0.8379   -4.9793   -7.4137 C   0  0  0  0  0  0  0  0  0  0  0  0
   -0.2726   -5.0241   -8.2596 C   0  0  0  0  0  0  0  0  0  0  0  0
   -0.3498   -5.9809   -9.2437 C   0  0  0  0  0  0  0  0  0  0  0  0
    0.6671   -6.9252   -9.3982 C   0  0  0  0  0  0  0  0  0  0  0  0
    0.4830   -8.0752  -10.7189 S   0  0  0  0  0  0  0  0  0  0  0  0
    2.1192   -8.8514  -10.8380 C   0  0  0  0  0  0  0  0  0  0  0  0
    1.7421   -6.9180   -8.5207 C   0  0  0  0  0  0  0  0  0  0  0  0
    1.8297   -5.9474   -7.5420 C   0  0  0  0  0  0  0  0  0  0  0  0
   -0.0742   -2.0393   -5.4009 C   0  0  0  0  0  0  0  0  0  0  0  0
   -0.0305   -2.3259   -3.6989 S   0  0  0  0  0  0  0  0  0  0  0  0
    1.0029   -2.2835   -8.8421 C   0  0  0  0  0  0  0  0  0  0  0  0
    1.1210   -1.6152  -10.0514 C   0  0  0  0  0  0  0  0  0  0  0  0
    0.4206   -0.4028  -10.4500 C   0  0  0  0  0  0  0  0  0  0  0  0
   -0.3866    0.2528   -9.8127 O   0  0  0  0  0  0  0  0  0  0  0  0
    0.8851   -0.1108  -11.8327 C   0  0  0  0  0  0  0  0  0  0  0  0
    1.7628   -1.1273  -12.2506 C   0  0  0  0  0  0  0  0  0  0  0  0
    2.3168   -1.1045  -13.5180 C   0  0  0  0  0  0  0  0  0  0  0  0
    1.9887   -0.0494  -14.3586 C   0  0  0  0  0  0  0  0  0  0  0  0
    2.5102   -0.0103  -15.5878 F   0  0  0  0  0  0  0  0  0  0  0  0
    1.1418    0.9771  -13.9534 C   0  0  0  0  0  0  0  0  0  0  0  0
    0.8619    1.9919  -14.7784 F   0  0  0  0  0  0  0  0  0  0  0  0
    0.5867    0.9446  -12.6723 C   0  0  0  0  0  0  0  0  0  0  0  0
   -0.2037    1.9478  -12.2858 F   0  0  0  0  0  0  0  0  0  0  0  0
    1.9542   -2.0575  -11.1353 C   0  0  0  0  0  0  0  0  0  0  0  0
    2.8237   -3.1251  -11.1545 C   0  0  0  0  0  0  0  0  0  0  0  0
    3.1778   -3.9268  -10.0541 C   0  0  0  0  0  0  0  0  0  0  0  0
    3.5752   -4.6038   -9.2131 N   0  0  0  0  0  0  0  0  0  0  0  0
    3.5335   -3.5511  -12.2944 C   0  0  0  0  0  0  0  0  0  0  0  0
    4.1280   -3.9699  -13.1836 N   0  0  0  0  0  0  0  0  0  0  0  0
    3.2310    0.7461    9.3891 H   0  0  0  0  0  0  0  0  0  0  0  0
    4.0150    3.8225   13.7951 H   0  0  0  0  0  0  0  0  0  0  0  0
    1.7855   -2.4415    9.9372 H   0  0  0  0  0  0  0  0  0  0  0  0
    3.7630   -3.4113   11.0532 H   0  0  0  0  0  0  0  0  0  0  0  0
    7.6982   -1.2934   10.0006 H   0  0  0  0  0  0  0  0  0  0  0  0
    8.2133   -2.6672    8.9619 H   0  0  0  0  0  0  0  0  0  0  0  0
    8.7412   -2.5813   10.6560 H   0  0  0  0  0  0  0  0  0  0  0  0
    6.2950   -1.5942    8.1217 H   0  0  0  0  0  0  0  0  0  0  0  0
    4.3385   -0.6119    7.0383 H   0  0  0  0  0  0  0  0  0  0  0  0
   -0.7009   -0.1492    7.8505 H   0  0  0  0  0  0  0  0  0  0  0  0
   -2.6700   -1.4882    7.3575 H   0  0  0  0  0  0  0  0  0  0  0  0
   -5.2047   -3.9179    6.4350 H   0  0  0  0  0  0  0  0  0  0  0  0
   -4.4893   -2.9669    7.7561 H   0  0  0  0  0  0  0  0  0  0  0  0
   -4.2689   -2.4619    6.0442 H   0  0  0  0  0  0  0  0  0  0  0  0
   -0.1838   -4.9257    6.8020 H   0  0  0  0  0  0  0  0  0  0  0  0
    1.8112   -3.5560    7.2443 H   0  0  0  0  0  0  0  0  0  0  0  0
   -1.5244    4.3348    1.8582 H   0  0  0  0  0  0  0  0  0  0  0  0
   -3.9704    4.3353    1.7937 H   0  0  0  0  0  0  0  0  0  0  0  0
   -5.8941    5.5346    2.9924 H   0  0  0  0  0  0  0  0  0  0  0  0
   -7.5178    4.8100    2.8995 H   0  0  0  0  0  0  0  0  0  0  0  0
   -6.3185    4.4293    1.6432 H   0  0  0  0  0  0  0  0  0  0  0  0
   -4.0711    2.3700    5.5882 H   0  0  0  0  0  0  0  0  0  0  0  0
   -1.6185    2.3404    5.6374 H   0  0  0  0  0  0  0  0  0  0  0  0
   -0.4980    5.8437    3.5271 H   0  0  0  0  0  0  0  0  0  0  0  0
    1.0926    7.5290    2.7247 H   0  0  0  0  0  0  0  0  0  0  0  0
    5.3424    6.4473    3.3725 H   0  0  0  0  0  0  0  0  0  0  0  0
    5.7560    6.0293    1.6797 H   0  0  0  0  0  0  0  0  0  0  0  0
    6.0657    7.6665    2.2947 H   0  0  0  0  0  0  0  0  0  0  0  0
    4.0727    4.4999    2.2490 H   0  0  0  0  0  0  0  0  0  0  0  0
    2.4910    2.8214    3.0420 H   0  0  0  0  0  0  0  0  0  0  0  0
   -1.3612   -3.7909    4.2106 H   0  0  0  0  0  0  0  0  0  0  0  0
    0.2621   -5.6117    4.4064 H   0  0  0  0  0  0  0  0  0  0  0  0
    4.3120   -5.4216    1.5025 H   0  0  0  0  0  0  0  0  0  0  0  0
    5.0589   -6.1831    2.9238 H   0  0  0  0  0  0  0  0  0  0  0  0
    4.4513   -4.5140    3.0412 H   0  0  0  0  0  0  0  0  0  0  0  0
    2.6829   -3.7877    1.3940 H   0  0  0  0  0  0  0  0  0  0  0  0
    1.0737   -1.9934    1.1803 H   0  0  0  0  0  0  0  0  0  0  0  0
   -2.5366    0.2992    3.6416 H   0  0  0  0  0  0  0  0  0  0  0  0
   -4.8769    0.3117    4.2454 H   0  0  0  0  0  0  0  0  0  0  0  0
   -7.1353    0.5640    4.3475 H   0  0  0  0  0  0  0  0  0  0  0  0
   -6.6032   -0.2420    5.8549 H   0  0  0  0  0  0  0  0  0  0  0  0
   -8.2918   -0.3724    5.3177 H   0  0  0  0  0  0  0  0  0  0  0  0
   -5.2302   -3.7627    2.9875 H   0  0  0  0  0  0  0  0  0  0  0  0
   -2.8593   -3.7644    2.3356 H   0  0  0  0  0  0  0  0  0  0  0  0
    0.2519    3.3386   -4.3990 H   0  0  0  0  0  0  0  0  0  0  0  0
    1.5058    2.7866   -6.4245 H   0  0  0  0  0  0  0  0  0  0  0  0
    1.4107    1.4247   -8.4407 H   0  0  0  0  0  0  0  0  0  0  0  0
    2.9125    1.0705   -9.3267 H   0  0  0  0  0  0  0  0  0  0  0  0
    2.8608    2.4679   -8.2346 H   0  0  0  0  0  0  0  0  0  0  0  0
    3.0027   -0.7395   -4.5341 H   0  0  0  0  0  0  0  0  0  0  0  0
    1.7938   -0.1526   -2.4818 H   0  0  0  0  0  0  0  0  0  0  0  0
   -1.9946    2.9651   -0.9699 H   0  0  0  0  0  0  0  0  0  0  0  0
   -2.1439    5.2788   -0.1529 H   0  0  0  0  0  0  0  0  0  0  0  0
    1.2034    8.2151   -1.6645 H   0  0  0  0  0  0  0  0  0  0  0  0
    0.9257    9.3419   -0.3178 H   0  0  0  0  0  0  0  0  0  0  0  0
    1.9873    7.9421   -0.0703 H   0  0  0  0  0  0  0  0  0  0  0  0
    1.9145    5.9489   -1.3127 H   0  0  0  0  0  0  0  0  0  0  0  0
    2.0306    3.6864   -2.2121 H   0  0  0  0  0  0  0  0  0  0  0  0
   -0.7217    2.0800   -6.4706 H   0  0  0  0  0  0  0  0  0  0  0  0
   -1.4957    2.9395   -8.6286 H   0  0  0  0  0  0  0  0  0  0  0  0
   -2.1673    1.9240  -10.6672 H   0  0  0  0  0  0  0  0  0  0  0  0
   -3.0957    2.7604  -11.9373 H   0  0  0  0  0  0  0  0  0  0  0  0
   -2.1095    3.7078  -10.8089 H   0  0  0  0  0  0  0  0  0  0  0  0
   -5.4870    1.7558   -7.6601 H   0  0  0  0  0  0  0  0  0  0  0  0
   -4.6958    0.8692   -5.5005 H   0  0  0  0  0  0  0  0  0  0  0  0
   -3.4306   -0.9377   -2.9939 H   0  0  0  0  0  0  0  0  0  0  0  0
   -4.7594   -0.3951   -1.0371 H   0  0  0  0  0  0  0  0  0  0  0  0
   -6.4751    1.0226    1.8519 H   0  0  0  0  0  0  0  0  0  0  0  0
   -6.5924    0.0967    0.3396 H   0  0  0  0  0  0  0  0  0  0  0  0
   -5.0352    0.1879    1.2317 H   0  0  0  0  0  0  0  0  0  0  0  0
   -4.3838    3.7719   -1.9377 H   0  0  0  0  0  0  0  0  0  0  0  0
   -2.9686    3.2165   -3.8788 H   0  0  0  0  0  0  0  0  0  0  0  0
    0.1063   -6.0535   -4.9487 H   0  0  0  0  0  0  0  0  0  0  0  0
    0.9104   -6.6917   -2.7321 H   0  0  0  0  0  0  0  0  0  0  0  0
    0.8628   -6.3300   -0.3888 H   0  0  0  0  0  0  0  0  0  0  0  0
    1.9685   -7.6418   -0.9272 H   0  0  0  0  0  0  0  0  0  0  0  0
    2.1791   -6.8843    0.6648 H   0  0  0  0  0  0  0  0  0  0  0  0
    3.8132   -3.5495   -2.8788 H   0  0  0  0  0  0  0  0  0  0  0  0
    2.9900   -2.9147   -5.1310 H   0  0  0  0  0  0  0  0  0  0  0  0
   -1.0669   -4.3016   -8.1464 H   0  0  0  0  0  0  0  0  0  0  0  0
   -1.2006   -6.0134   -9.9067 H   0  0  0  0  0  0  0  0  0  0  0  0
    2.2932   -9.4975   -9.9825 H   0  0  0  0  0  0  0  0  0  0  0  0
    2.8812   -8.0817  -10.9159 H   0  0  0  0  0  0  0  0  0  0  0  0
    2.0964   -9.4447  -11.7467 H   0  0  0  0  0  0  0  0  0  0  0  0
    2.5316   -7.6463   -8.5982 H   0  0  0  0  0  0  0  0  0  0  0  0
    2.6816   -5.9307   -6.8810 H   0  0  0  0  0  0  0  0  0  0  0  0
    1.5992   -3.1833   -8.7644 H   0  0  0  0  0  0  0  0  0  0  0  0
    2.9881   -1.8652  -13.8798 H   0  0  0  0  0  0  0  0  0  0  0  0
  1  2  2  0  0  0  0
  2  3  1  0  0  0  0
  3  4  2  0  0  0  0
  3  5  1  0  0  0  0
  5  6  2  0  0  0  0
  6  7  1  0  0  0  0
  7  8  2  0  0  0  0
  8  9  1  0  0  0  0
  8 10  1  0  0  0  0
 10 11  1  0  0  0  0
 10 12  2  0  0  0  0
 12 13  1  0  0  0  0
  6 14  1  0  0  0  0
 14 15  2  0  0  0  0
 15 16  1  0  0  0  0
 16 17  3  0  0  0  0
 15 18  1  0  0  0  0
 18 19  3  0  0  0  0
  1 20  1  0  0  0  0
 20 21  2  0  0  0  0
 21 22  1  0  0  0  0
 22 23  1  0  0  0  0
 23 24  2  0  0  0  0
 24 25  1  0  0  0  0
 25 26  2  0  0  0  0
 26 27  1  0  0  0  0
 27 28  1  0  0  0  0
 26 29  1  0  0  0  0
 29 30  2  0  0  0  0
 22 31  1  0  0  0  0
 31 32  2  0  0  0  0
 32 33  1  0  0  0  0
 33 34  2  0  0  0  0
 34 35  1  0  0  0  0
 35 36  1  0  0  0  0
 34 37  1  0  0  0  0
 37 38  2  0  0  0  0
 21 39  1  0  0  0  0
 39 40  1  0  0  0  0
 40 41  1  0  0  0  0
 41 42  2  0  0  0  0
 42 43  1  0  0  0  0
 43 44  1  0  0  0  0
 44 45  2  0  0  0  0
 45 46  1  0  0  0  0
 46 47  2  0  0  0  0
 47 48  1  0  0  0  0
 48 49  1  0  0  0  0
 47 50  1  0  0  0  0
 50 51  2  0  0  0  0
 43 52  1  0  0  0  0
 52 53  2  0  0  0  0
 53 54  1  0  0  0  0
 54 55  2  0  0  0  0
 55 56  1  0  0  0  0
 56 57  1  0  0  0  0
 55 58  1  0  0  0  0
 58 59  2  0  0  0  0
 42 60  1  0  0  0  0
 60 61  1  0  0  0  0
 41 62  1  0  0  0  0
 62 63  2  0  0  0  0
 63 64  1  0  0  0  0
 64 65  1  0  0  0  0
 65 66  2  0  0  0  0
 66 67  1  0  0  0  0
 67 68  2  0  0  0  0
 68 69  1  0  0  0  0
 69 70  1  0  0  0  0
 68 71  1  0  0  0  0
 71 72  2  0  0  0  0
 64 73  1  0  0  0  0
 73 74  2  0  0  0  0
 74 75  1  0  0  0  0
 75 76  2  0  0  0  0
 76 77  1  0  0  0  0
 77 78  1  0  0  0  0
 76 79  1  0  0  0  0
 79 80  2  0  0  0  0
 63 81  1  0  0  0  0
 81 82  1  0  0  0  0
 82 83  1  0  0  0  0
 83 84  2  0  0  0  0
 84 85  1  0  0  0  0
 85 86  1  0  0  0  0
 86 87  2  0  0  0  0
 87 88  1  0  0  0  0
 88 89  2  0  0  0  0
 89 90  1  0  0  0  0
 90 91  1  0  0  0  0
 89 92  1  0  0  0  0
 92 93  2  0  0  0  0
 85 94  1  0  0  0  0
 94 95  2  0  0  0  0
 95 96  1  0  0  0  0
 96 97  2  0  0  0  0
 97 98  1  0  0  0  0
 98 99  1  0  0  0  0
 97100  1  0  0  0  0
100101  2  0  0  0  0
 84102  1  0  0  0  0
102103  1  0  0  0  0
 83104  1  0  0  0  0
104105  2  0  0  0  0
105106  1  0  0  0  0
106107  1  0  0  0  0
107108  2  0  0  0  0
108109  1  0  0  0  0
109110  2  0  0  0  0
110111  1  0  0  0  0
111112  1  0  0  0  0
110113  1  0  0  0  0
113114  2  0  0  0  0
106115  1  0  0  0  0
115116  2  0  0  0  0
116117  1  0  0  0  0
117118  2  0  0  0  0
118119  1  0  0  0  0
119120  1  0  0  0  0
118121  1  0  0  0  0
121122  2  0  0  0  0
105123  1  0  0  0  0
123124  1  0  0  0  0
124125  1  0  0  0  0
125126  2  0  0  0  0
126127  1  0  0  0  0
127128  1  0  0  0  0
128129  2  0  0  0  0
129130  1  0  0  0  0
130131  2  0  0  0  0
131132  1  0  0  0  0
132133  1  0  0  0  0
131134  1  0  0  0  0
134135  2  0  0  0  0
127136  1  0  0  0  0
136137  2  0  0  0  0
137138  1  0  0  0  0
138139  2  0  0  0  0
139140  1  0  0  0  0
140141  1  0  0  0  0
139142  1  0  0  0  0
142143  2  0  0  0  0
126144  1  0  0  0  0
144145  1  0  0  0  0
125146  1  0  0  0  0
146147  2  0  0  0  0
147148  1  0  0  0  0
148149  2  0  0  0  0
148150  1  0  0  0  0
150151  2  0  0  0  0
151152  1  0  0  0  0
152153  2  0  0  0  0
153154  1  0  0  0  0
153155  1  0  0  0  0
155156  1  0  0  0  0
155157  2  0  0  0  0
157158  1  0  0  0  0
151159  1  0  0  0  0
159160  2  0  0  0  0
160161  1  0  0  0  0
161162  3  0  0  0  0
160163  1  0  0  0  0
163164  3  0  0  0  0
 14  2  1  0  0  0  0
 61 20  1  0  0  0  0
103 62  1  0  0  0  0
145104  1  0  0  0  0
159147  1  0  0  0  0
 12  5  1  0  0  0  0
 30 23  1  0  0  0  0
 38 31  1  0  0  0  0
 60 39  2  0  0  0  0
 72 65  1  0  0  0  0
 80 73  1  0  0  0  0
102 81  2  0  0  0  0
114107  1  0  0  0  0
122115  1  0  0  0  0
144123  2  0  0  0  0
157150  1  0  0  0  0
 51 44  1  0  0  0  0
 59 52  1  0  0  0  0
 93 86  1  0  0  0  0
101 94  1  0  0  0  0
135128  1  0  0  0  0
143136  1  0  0  0  0
  1165  1  0  0  0  0
  7166  1  0  0  0  0
 24167  1  0  0  0  0
 25168  1  0  0  0  0
 28169  1  0  0  0  0
 28170  1  0  0  0  0
 28171  1  0  0  0  0
 29172  1  0  0  0  0
 30173  1  0  0  0  0
 32174  1  0  0  0  0
 33175  1  0  0  0  0
 36176  1  0  0  0  0
 36177  1  0  0  0  0
 36178  1  0  0  0  0
 37179  1  0  0  0  0
 38180  1  0  0  0  0
 45181  1  0  0  0  0
 46182  1  0  0  0  0
 49183  1  0  0  0  0
 49184  1  0  0  0  0
 49185  1  0  0  0  0
 50186  1  0  0  0  0
 51187  1  0  0  0  0
 53188  1  0  0  0  0
 54189  1  0  0  0  0
 57190  1  0  0  0  0
 57191  1  0  0  0  0
 57192  1  0  0  0  0
 58193  1  0  0  0  0
 59194  1  0  0  0  0
 66195  1  0  0  0  0
 67196  1  0  0  0  0
 70197  1  0  0  0  0
 70198  1  0  0  0  0
 70199  1  0  0  0  0
 71200  1  0  0  0  0
 72201  1  0  0  0  0
 74202  1  0  0  0  0
 75203  1  0  0  0  0
 78204  1  0  0  0  0
 78205  1  0  0  0  0
 78206  1  0  0  0  0
 79207  1  0  0  0  0
 80208  1  0  0  0  0
 87209  1  0  0  0  0
 88210  1  0  0  0  0
 91211  1  0  0  0  0
 91212  1  0  0  0  0
 91213  1  0  0  0  0
 92214  1  0  0  0  0
 93215  1  0  0  0  0
 95216  1  0  0  0  0
 96217  1  0  0  0  0
 99218  1  0  0  0  0
 99219  1  0  0  0  0
 99220  1  0  0  0  0
100221  1  0  0  0  0
101222  1  0  0  0  0
108223  1  0  0  0  0
109224  1  0  0  0  0
112225  1  0  0  0  0
112226  1  0  0  0  0
112227  1  0  0  0  0
113228  1  0  0  0  0
114229  1  0  0  0  0
116230  1  0  0  0  0
117231  1  0  0  0  0
120232  1  0  0  0  0
120233  1  0  0  0  0
120234  1  0  0  0  0
121235  1  0  0  0  0
122236  1  0  0  0  0
129237  1  0  0  0  0
130238  1  0  0  0  0
133239  1  0  0  0  0
133240  1  0  0  0  0
133241  1  0  0  0  0
134242  1  0  0  0  0
135243  1  0  0  0  0
137244  1  0  0  0  0
138245  1  0  0  0  0
141246  1  0  0  0  0
141247  1  0  0  0  0
141248  1  0  0  0  0
142249  1  0  0  0  0
143250  1  0  0  0  0
146251  1  0  0  0  0
152252  1  0  0  0  0
M  END
