208

C          4.72070       -6.43450       -0.64170
C          5.01280       -7.31800        0.37540
C          6.42720       -7.63110        0.66510
O          7.39420       -7.33340        0.00580
C          6.39490       -8.33300        1.97730
C          5.05810       -8.54030        2.36110
C          4.75540       -9.16550        3.55680
C          5.80950       -9.55720        4.36870
F          5.53970      -10.13210        5.54910
C          7.13850       -9.35150        4.01180
F          8.12070       -9.73880        4.83080
C          7.43540       -8.73940        2.79070
F          8.70570       -8.55420        2.44810
C          4.18320       -7.99190        1.32430
C          2.83840       -8.26480        1.18030
C          2.05590       -8.90060        2.15900
N          1.36200       -9.37110        2.94480
C          2.12150       -7.97470        0.00890
N          1.50430       -7.77730       -0.94080
C          3.61600       -5.60760       -0.83470
C          2.57420       -5.16810        0.01440
N          2.45350       -5.33360        1.36420
C          1.19310       -4.98040        1.93840
C          1.08700       -3.79330        2.65370
C         -0.13260       -3.39330        3.16260
C         -1.25700       -4.19040        2.97720
S         -2.86140       -3.76890        3.55750
C         -2.71250       -2.01510        4.00640
C         -1.13560       -5.40520        2.30340
C          0.07730       -5.79690        1.77900
C          3.49620       -5.48020        2.28530
C          4.79960       -5.04510        2.04080
C          5.78400       -5.23060        2.98550
C          5.49750       -5.84550        4.20380
S          6.85150       -6.10940        5.29220
C          6.08940       -6.74170        6.81410
C          4.18770       -6.22910        4.47640
C          3.20470       -6.04780        3.52890
C          1.62590       -4.42430       -0.73110
S          0.11710       -3.69530       -0.35460
C         -0.05720       -3.05370       -1.99060
C          0.98760       -3.48760       -2.80420
N          1.15990       -3.32300       -4.17520
C          2.42130       -2.79900       -4.51300
C          3.31770       -3.44620       -5.35770
C          4.55470       -2.89170       -5.62770
C          4.92080       -1.68230       -5.05040
S          6.46590       -0.87700       -5.31390
C          7.33780       -1.96160       -6.47710
C          4.03280       -1.04080       -4.18640
C          2.80250       -1.59540       -3.91540
C          0.29010       -3.89420       -5.09490
C         -0.81600       -4.63190       -4.67340
C         -1.67700       -5.21400       -5.58140
C         -1.45070       -5.08420       -6.94460
S         -2.47650       -5.78360       -8.20010
C         -3.66880       -6.79300       -7.27680
C         -0.34730       -4.35310       -7.37580
C          0.50650       -3.76250       -6.47020
C          1.94380       -4.22290       -2.06320
S          3.45020       -4.95090       -2.47350
C         -1.02920       -2.00830       -2.13940
C         -1.95610       -1.79980       -1.11150
F         -2.28820       -2.80120       -0.27020
C         -2.46990       -0.54770       -0.79520
F         -3.17600       -0.43620        0.34810
C         -2.11870        0.57320       -1.52610
C         -1.55090        0.31120       -2.80340
N         -1.61480        1.28430       -3.72030
C         -1.21230        1.04320       -4.94400
C         -1.46330        2.10380       -5.97100
C         -2.29260        3.25900       -5.42760
C         -0.63280       -0.21470       -5.26680
N         -0.52660       -1.16450       -4.36240
C         -1.01040       -0.96550       -3.12840
C         -0.17940       -0.54840       -6.65270
C          1.25950       -0.09950       -6.91210
C         -2.13630        1.89460       -0.94410
C         -1.02170        2.71370       -0.84190
N          0.22300        2.44730       -1.45160
C          0.53400        3.12760       -2.64150
C          1.22480        2.49450       -3.67850
C          1.56140        3.18440       -4.81990
C          1.18060        4.51380       -4.99010
S          1.63760        5.27400       -6.51690
C          1.11160        6.99830       -6.31790
C          0.45170        5.13490       -3.98830
C          0.13890        4.44860       -2.82910
C          1.05710        1.46390       -0.92540
C          0.60100        0.51950       -0.00030
C          1.40990       -0.51950        0.41070
C          2.71300       -0.63180       -0.05810
S          3.66070       -2.03900        0.44640
C          5.03710       -2.05470       -0.73890
C          3.22300        0.38080       -0.85830
C          2.41020        1.41340       -1.27550
C         -1.27180        3.78710        0.03810
S         -0.33830        5.12850        0.59310
C         -1.66520        5.65870        1.64330
C         -2.81740        4.84940        1.48440
N         -4.05510        5.05480        2.01470
C         -4.54530        6.30680        2.39310
C         -5.37130        6.41430        3.51630
C         -5.81380        7.64760        3.93540
C         -5.45200        8.80640        3.24660
S         -5.99450       10.32730        3.93880
C         -5.40630       11.59010        2.77710
C         -4.68560        8.69540        2.09030
C         -4.23780        7.45940        1.67180
C         -4.90190        3.93120        2.16690
C         -6.20290        3.95810        1.67030
C         -6.98830        2.82990        1.75090
C         -6.49110        1.66020        2.32700
S         -7.54940        0.25590        2.30750
C         -6.44130       -1.11580        2.74040
C         -5.21560        1.65730        2.88030
C         -4.42740        2.78680        2.79950
C         -2.54690        3.78340        0.59350
S         -3.47690        2.44510        0.01370
C         -1.41630        6.76770        2.44350
C         -2.09940        7.10390        3.60260
C         -2.72550        6.11340        4.48280
O         -2.76330        4.90880        4.33120
C         -3.18170        6.88520        5.66980
C         -2.83550        8.23830        5.51150
C         -3.15740        9.17070        6.47950
C         -3.83490        8.72960        7.60850
F         -4.15640        9.61050        8.56000
C         -4.19100        7.39540        7.77930
F         -4.85510        7.00890        8.87380
C         -3.85630        6.46000        6.79660
F         -4.21550        5.18640        6.95750
C         -2.17770        8.39370        4.21320
C         -1.86360        9.58860        3.60970
C         -1.43030        9.69070        2.27330
N         -1.13330        9.84930        1.17490
C         -2.03150       10.85110        4.20640
N         -2.16000       11.91230        4.62730
H          5.51270       -6.32550       -1.37750
H          3.74450       -9.34620        3.88320
H          1.96330       -3.17430        2.78150
H         -0.19350       -2.45780        3.69430
H         -2.37860       -1.44630        3.14390
H         -2.04140       -1.89210        4.85110
H         -3.71290       -1.70590        4.29150
H         -2.00710       -6.02850        2.18140
H          0.15700       -6.72270        1.23110
H          5.03250       -4.53200        1.12350
H          6.79200       -4.90070        2.78790
H          6.90800       -6.85850        7.51750
H          5.37450       -6.01890        7.19520
H          5.62160       -7.70520        6.63830
H          3.92400       -6.68050        5.41850
H          2.19680       -6.36970        3.74520
H          3.05780       -4.40160       -5.78650
H          5.22870       -3.42200       -6.28020
H          7.50680       -2.93400       -6.02430
H          6.77300       -2.04500       -7.40100
H          8.28920       -1.47550       -6.67010
H          4.31980       -0.09910       -3.74320
H          2.11640       -1.10140       -3.24170
H         -1.00860       -4.76730       -3.62100
H         -2.51840       -5.77410       -5.20680
H         -4.30080       -6.15780       -6.66280
H         -4.27090       -7.29420       -8.02820
H         -3.14160       -7.52740       -6.67510
H         -0.16790       -4.25000       -8.43530
H          1.35380       -3.20410       -6.83500
H         -0.50420        2.47740       -6.33740
H         -1.98200        1.65040       -6.82030
H         -1.78870        3.71850       -4.58340
H         -3.26200        2.90150       -5.09130
H         -2.44120        4.00540       -6.20380
H         -0.83870       -0.07570       -7.38150
H         -0.24760       -1.62950       -6.76920
H          1.93070       -0.52660       -6.17110
H          1.34000        0.98330       -6.87080
H          1.57480       -0.42790       -7.89930
H          1.49670        1.45310       -3.59470
H          2.12650        2.69690       -5.60020
H          0.02970        7.05220       -6.23800
H          1.59540        7.43280       -5.44820
H          1.43990        7.50980       -7.21740
H          0.12200        6.15620       -4.08760
H         -0.41970        4.96360       -2.06550
H         -0.39030        0.59390        0.41390
H          1.02700       -1.25900        1.09780
H          5.53390       -3.01260       -0.61770
H          4.64850       -1.96710       -1.74990
H          5.73660       -1.25530       -0.51280
H          4.25870        0.38270       -1.15730
H          2.83930        2.20160       -1.87400
H         -5.63930        5.52390        4.06440
H         -6.43370        7.73520        4.81430
H         -5.83520       11.41870        1.79440
H         -4.32090       11.59780        2.74480
H         -5.76280       12.53440        3.17650
H         -4.42000        9.56540        1.51190
H         -3.63850        7.39200        0.77640
H         -6.58140        4.85590        1.20470
H         -7.99030        2.83240        1.35090
H         -7.00420       -2.02300        2.54460
H         -6.18430       -1.06890        3.79480
H         -5.55820       -1.08420        2.10960
H         -4.82560        0.78410        3.37590
H         -3.44270        2.80130        3.23970
H         -0.58270        7.39070        2.14150
H         -2.90780       10.21550        6.39620
