157

C          2.34190        5.31330       -7.04070
C          3.03730        6.36600       -7.60460
C          3.88310        7.32120       -6.88190
O          4.18330        7.31310       -5.70560
C          4.19870        8.38950       -7.86560
C          3.55690        8.11250       -9.08500
C          3.67150        8.98020      -10.15670
C          4.43910       10.12450       -9.98940
F          4.56190       10.97930      -11.00910
C          5.08710       10.41080       -8.79100
F          5.82420       11.51970       -8.67170
C          4.96190        9.53170       -7.71240
F          5.58730        9.80770       -6.57010
C          2.84670        6.83960       -8.95190
C          2.20550        6.17660       -9.97020
C          1.65520        4.88230       -9.86330
N          1.21740        3.82020       -9.86510
C          2.05060        6.68710      -11.27440
N          1.88250        7.05520      -12.34890
C          2.53250        4.60330       -5.85130
C          3.65300        4.24810       -5.06880
C          5.05850        4.58330       -5.44060
C          5.44960        4.08700       -6.83300
C          3.28250        3.48360       -3.96450
C          1.89350        3.27970       -3.88250
S          1.03470        3.91060       -5.20720
C          1.57340        2.62210       -2.68700
C          2.74630        2.39330       -1.96520
C          3.95800        2.86860       -2.74170
C          4.75040        3.95020       -1.98360
C          5.34070        3.50750       -0.65080
C          4.75740        1.57670       -3.04120
C          6.07170        1.71330       -3.79640
C          2.51060        1.70790       -0.78670
C          1.15850        1.44370       -0.57800
S          0.16740        2.03040       -1.89680
C          0.64310        0.68350        0.49480
C         -0.66880        0.38640        0.87390
N         -1.82960        0.93590        0.36900
C         -2.99150        0.13860        0.47810
C         -2.99920       -1.14650       -0.05610
C         -4.04570       -2.01060        0.20350
C         -5.10310       -1.59340        1.00130
S         -6.42480       -2.63790        1.52100
C         -5.95110       -4.29070        0.95040
C         -5.14100       -0.27520        1.45710
C         -4.09900        0.58510        1.19820
C         -1.95840        2.29700        0.08020
C         -1.15330        3.25900        0.69340
C         -1.27860        4.58620        0.35300
C         -2.21490        4.99130       -0.59770
S         -2.25710        6.71290       -0.96940
C         -3.48690        6.84690       -2.29710
C         -3.04240        4.04150       -1.18390
C         -2.91220        2.70940       -0.84850
C         -0.68600       -0.61170        1.87540
S         -1.96860       -1.40930        2.71650
C         -0.80930       -2.46890        3.51590
C          0.52490       -2.05020        3.29770
N          1.65610       -2.45760        3.95200
C          2.87480       -2.30990        3.24920
C          3.02120       -2.89700        1.99730
C          4.16000       -2.67620        1.24750
C          5.16520       -1.85530        1.74350
S          6.61500       -1.41960        0.84530
C          6.30690       -2.06780       -0.82310
C          5.04400       -1.31500        3.02480
C          3.91200       -1.54100        3.77420
C          1.68220       -2.93880        5.25680
C          2.75210       -3.73850        5.67820
C          2.75520       -4.29050        6.93550
C          1.69740       -4.05880        7.81770
S          1.76480       -4.88180        9.36820
C          0.08150       -4.71030       10.02390
C          0.67530       -3.19670        7.43400
C          0.67700       -2.63320        6.17540
C          0.55830       -1.04070        2.30560
S          1.82220       -0.18300        1.48590
C         -1.35880       -3.62640        4.10140
C         -0.66900       -4.81220        4.45880
C         -1.35280       -5.96670        5.00280
N         -0.51130       -6.96490        5.25360
S          0.97730       -6.52660        4.82850
N          0.63300       -5.04600        4.29880
C         -2.76440       -6.05680        5.11670
C         -3.45480       -4.87330        4.76110
N         -4.76460       -4.65240        4.87400
S         -5.10900       -3.17330        4.36360
N         -3.60820       -2.70850        4.01490
C         -2.76550       -3.70980        4.27400
C         -3.38420       -7.23590        5.55890
C         -4.65370       -7.64530        5.20690
C         -5.33020       -7.25010        3.96240
O         -4.93030       -6.52020        3.07940
C         -6.56610       -8.07780        3.91600
C         -6.59550       -8.94790        5.01970
C         -7.63140       -9.85090        5.17950
C         -8.63820       -9.86580        4.22360
F         -9.64740      -10.73240        4.35430
C         -8.63100       -9.00360        3.13090
F         -9.62400       -9.03860        2.23500
C         -7.57710       -8.10110        2.97530
F         -7.57800       -7.27140        1.92880
C         -5.42140       -8.67390        5.85090
C         -5.16790       -9.22310        7.08510
C         -5.95410      -10.22790        7.68090
N         -6.55400      -11.05470        8.20540
C         -4.11590       -8.81490        7.93040
N         -3.31330       -8.50320        8.69070
H          1.44320        5.01800       -7.57370
H          3.19070        8.80990      -11.10560
H          5.17710        5.66870       -5.39080
H          5.73210        4.14870       -4.70720
H          5.29570        3.01230       -6.91520
H          6.50010        4.29990       -7.01560
H          4.86350        4.56980       -7.60930
H          4.07420        4.79100       -1.81120
H          5.55340        4.31240       -2.62440
H          6.01250        2.66190       -0.77160
H          4.55920        3.23800        0.05340
H          5.90890        4.33000       -0.22250
H          4.09760        0.90930       -3.60250
H          4.95650        1.10180       -2.07850
H          6.73830        2.42290       -3.31380
H          6.57050        0.74580       -3.81210
H          5.90630        2.01540       -4.82490
H          3.25540        1.39050       -0.07900
H         -2.15700       -1.48040       -0.64470
H         -4.01270       -3.01010       -0.19810
H         -5.90390       -4.31120       -0.13410
H         -6.73650       -4.95700        1.29220
H         -5.01000       -4.59140        1.40040
H         -5.98230        0.04960        2.04920
H         -4.11140        1.59190        1.58770
H         -0.42910        2.96180        1.43680
H         -0.65140        5.32950        0.82060
H         -3.18330        6.23980       -3.14490
H         -3.49690        7.89520       -2.57910
H         -4.46690        6.55610       -1.93020
H         -3.78590        4.32270       -1.91140
H         -3.54700        1.97310       -1.31800
H          2.22860       -3.52060        1.61160
H          4.24560       -3.14070        0.27910
H          6.30470       -3.15380       -0.81110
H          5.36930       -1.67350       -1.20450
H          7.13340       -1.71180       -1.43060
H          5.84060       -0.69800        3.41040
H          3.80910       -1.10350        4.75560
H          3.55170       -3.96490        4.99070
H          3.56530       -4.93090        7.24820
H          0.04030       -5.35620       10.89530
H         -0.10680       -3.68270       10.32070
H         -0.63540       -5.04890        9.28210
H         -0.12680       -2.95280        8.11200
H         -0.11670       -1.95480        5.90290
H         -2.77390       -7.88280        6.17660
H         -7.68690      -10.54080        6.00540
