
  xtb     02032219103D
 energy: -289.208836319982 gnorm: 0.000441024678 xtb: 6.4.1 (unknown)
142157  0     0  0            999 V2000
   -9.9738   -4.7452   -0.7137 C   0  0  0  0  0  0  0  0  0  0  0  0
  -11.1815   -4.2089   -1.0546 C   0  0  0  0  0  0  0  0  0  0  0  0
  -12.2940   -5.1287   -1.4176 C   0  0  0  0  0  0  0  0  0  0  0  0
  -12.3445   -6.3164   -1.2244 O   0  0  0  0  0  0  0  0  0  0  0  0
  -13.2869   -4.2656   -2.1082 C   0  0  0  0  0  0  0  0  0  0  0  0
  -12.8645   -2.9242   -2.0555 C   0  0  0  0  0  0  0  0  0  0  0  0
  -13.6043   -1.9237   -2.6611 C   0  0  0  0  0  0  0  0  0  0  0  0
  -14.7729   -2.2841   -3.3171 C   0  0  0  0  0  0  0  0  0  0  0  0
  -15.4968   -1.3390   -3.9194 F   0  0  0  0  0  0  0  0  0  0  0  0
  -15.2140   -3.6050   -3.3690 C   0  0  0  0  0  0  0  0  0  0  0  0
  -16.3476   -3.9091   -4.0042 F   0  0  0  0  0  0  0  0  0  0  0  0
  -14.4606   -4.6096   -2.7558 C   0  0  0  0  0  0  0  0  0  0  0  0
  -14.8838   -5.8670   -2.8110 F   0  0  0  0  0  0  0  0  0  0  0  0
  -11.6299   -2.8536   -1.2705 C   0  0  0  0  0  0  0  0  0  0  0  0
  -11.1560   -1.7205   -0.6611 C   0  0  0  0  0  0  0  0  0  0  0  0
  -10.1665   -1.7283    0.3441 C   0  0  0  0  0  0  0  0  0  0  0  0
   -9.4017   -1.6811    1.1979 N   0  0  0  0  0  0  0  0  0  0  0  0
  -11.6310   -0.4200   -0.9203 C   0  0  0  0  0  0  0  0  0  0  0  0
  -11.9374    0.6659   -1.1325 N   0  0  0  0  0  0  0  0  0  0  0  0
   -8.7016   -4.1347   -0.7000 C   0  0  0  0  0  0  0  0  0  0  0  0
   -8.2466   -2.9456   -1.2399 C   0  0  0  0  0  0  0  0  0  0  0  0
   -6.8682   -2.8649   -0.9695 C   0  0  0  0  0  0  0  0  0  0  0  0
   -5.8866   -1.8768   -1.2239 C   0  0  0  0  0  0  0  0  0  0  0  0
   -6.1783   -0.5819   -1.7719 C   0  0  0  0  0  0  0  0  0  0  0  0
   -5.2879    0.3932   -2.1504 C   0  0  0  0  0  0  0  0  0  0  0  0
   -5.9277    1.5638   -2.5813 C   0  0  0  0  0  0  0  0  0  0  0  0
   -5.2389    2.6379   -3.0078 F   0  0  0  0  0  0  0  0  0  0  0  0
   -7.2943    1.5400   -2.5401 C   0  0  0  0  0  0  0  0  0  0  0  0
   -8.2397    2.6311   -2.9058 C   0  0  0  0  0  0  0  0  0  0  0  0
   -9.5689    2.1071   -3.4372 C   0  0  0  0  0  0  0  0  0  0  0  0
   -7.8159    0.0046   -1.9521 S   0  0  0  0  0  0  0  0  0  0  0  0
   -4.6064   -2.2621   -0.8202 C   0  0  0  0  0  0  0  0  0  0  0  0
   -4.2992   -3.4696   -0.1352 C   0  0  0  0  0  0  0  0  0  0  0  0
   -5.2972   -4.4103    0.1966 C   0  0  0  0  0  0  0  0  0  0  0  0
   -5.0779   -5.6106    0.9564 C   0  0  0  0  0  0  0  0  0  0  0  0
   -6.2445   -6.9059    0.8937 S   0  0  0  0  0  0  0  0  0  0  0  0
   -5.3244   -7.8851    1.9788 C   0  0  0  0  0  0  0  0  0  0  0  0
   -5.7765   -9.2370    2.4092 C   0  0  0  0  0  0  0  0  0  0  0  0
   -7.0832   -9.1660    3.2003 C   0  0  0  0  0  0  0  0  0  0  0  0
   -4.2033   -7.2069    2.3641 C   0  0  0  0  0  0  0  0  0  0  0  0
   -4.0453   -5.9306    1.8003 C   0  0  0  0  0  0  0  0  0  0  0  0
   -3.3026   -7.7235    3.2206 F   0  0  0  0  0  0  0  0  0  0  0  0
   -6.5604   -4.0687   -0.2800 C   0  0  0  0  0  0  0  0  0  0  0  0
   -7.6684   -4.8191   -0.1346 O   0  0  0  0  0  0  0  0  0  0  0  0
   -2.8999   -3.4304    0.0741 C   0  0  0  0  0  0  0  0  0  0  0  0
   -2.4468   -2.2530   -0.4633 C   0  0  0  0  0  0  0  0  0  0  0  0
   -3.4732   -1.5407   -1.0035 O   0  0  0  0  0  0  0  0  0  0  0  0
   -1.1147   -1.7334   -0.4511 C   0  0  0  0  0  0  0  0  0  0  0  0
   -0.5460   -0.7051   -1.1763 C   0  0  0  0  0  0  0  0  0  0  0  0
   -1.1978    0.0554   -2.2853 C   0  0  0  0  0  0  0  0  0  0  0  0
   -0.4144   -0.0743   -3.5919 C   0  0  0  0  0  0  0  0  0  0  0  0
    0.7825   -0.4918   -0.7627 C   0  0  0  0  0  0  0  0  0  0  0  0
    1.2275   -1.3440    0.2498 C   0  0  0  0  0  0  0  0  0  0  0  0
   -0.0077   -2.4564    0.7088 S   0  0  0  0  0  0  0  0  0  0  0  0
    2.5343   -1.0948    0.6778 C   0  0  0  0  0  0  0  0  0  0  0  0
    3.0912   -0.0392   -0.0065 C   0  0  0  0  0  0  0  0  0  0  0  0
    2.0115    0.6434   -1.1987 S   0  0  0  0  0  0  0  0  0  0  0  0
    4.3859    0.5195    0.1937 C   0  0  0  0  0  0  0  0  0  0  0  0
    5.0110    1.5733   -0.4233 C   0  0  0  0  0  0  0  0  0  0  0  0
    6.2803    1.7115    0.1911 C   0  0  0  0  0  0  0  0  0  0  0  0
    7.3642    2.6007    0.0272 C   0  0  0  0  0  0  0  0  0  0  0  0
    7.4340    3.6493   -0.9532 C   0  0  0  0  0  0  0  0  0  0  0  0
    6.6882    3.8394   -2.0880 C   0  0  0  0  0  0  0  0  0  0  0  0
    7.0472    5.0118   -2.7729 C   0  0  0  0  0  0  0  0  0  0  0  0
    6.4220    5.3899   -3.9010 F   0  0  0  0  0  0  0  0  0  0  0  0
    8.0532    5.7408   -2.2043 C   0  0  0  0  0  0  0  0  0  0  0  0
    8.6589    7.0185   -2.6762 C   0  0  0  0  0  0  0  0  0  0  0  0
    9.3207    6.8609   -4.0470 C   0  0  0  0  0  0  0  0  0  0  0  0
    8.5998    4.9380   -0.7770 S   0  0  0  0  0  0  0  0  0  0  0  0
    8.4017    2.3797    0.9303 C   0  0  0  0  0  0  0  0  0  0  0  0
    8.4423    1.3682    1.9282 C   0  0  0  0  0  0  0  0  0  0  0  0
    7.3561    0.4744    2.0897 C   0  0  0  0  0  0  0  0  0  0  0  0
    7.2651   -0.5608    3.0786 C   0  0  0  0  0  0  0  0  0  0  0  0
    5.9916   -1.7527    2.9789 S   0  0  0  0  0  0  0  0  0  0  0  0
    6.5328   -2.5649    4.4024 C   0  0  0  0  0  0  0  0  0  0  0  0
    5.8706   -3.7918    4.9240 C   0  0  0  0  0  0  0  0  0  0  0  0
    6.0383   -4.9693    3.9619 C   0  0  0  0  0  0  0  0  0  0  0  0
    7.6253   -1.9169    4.9071 C   0  0  0  0  0  0  0  0  0  0  0  0
    8.0480   -0.7926    4.1830 C   0  0  0  0  0  0  0  0  0  0  0  0
    8.2518   -2.3194    6.0266 F   0  0  0  0  0  0  0  0  0  0  0  0
    6.3207    0.6961    1.1821 C   0  0  0  0  0  0  0  0  0  0  0  0
    5.1747   -0.0189    1.1596 O   0  0  0  0  0  0  0  0  0  0  0  0
    9.6967    1.5310    2.5563 C   0  0  0  0  0  0  0  0  0  0  0  0
   10.3332    2.5807    1.9282 C   0  0  0  0  0  0  0  0  0  0  0  0
    9.5390    3.1025    0.9526 O   0  0  0  0  0  0  0  0  0  0  0  0
   11.5946    3.1663    2.1949 C   0  0  0  0  0  0  0  0  0  0  0  0
   12.2508    4.0629    1.4077 C   0  0  0  0  0  0  0  0  0  0  0  0
   13.2852    4.9599    1.9905 C   0  0  0  0  0  0  0  0  0  0  0  0
   13.8422    4.8351    3.0507 O   0  0  0  0  0  0  0  0  0  0  0  0
   13.4192    6.0606    0.9995 C   0  0  0  0  0  0  0  0  0  0  0  0
   12.6499    5.7670   -0.1426 C   0  0  0  0  0  0  0  0  0  0  0  0
   12.5702    6.6601   -1.1963 C   0  0  0  0  0  0  0  0  0  0  0  0
   13.2739    7.8512   -1.0933 C   0  0  0  0  0  0  0  0  0  0  0  0
   13.1994    8.7374   -2.0887 F   0  0  0  0  0  0  0  0  0  0  0  0
   14.0531    8.1545    0.0218 C   0  0  0  0  0  0  0  0  0  0  0  0
   14.7206    9.3091    0.0793 F   0  0  0  0  0  0  0  0  0  0  0  0
   14.1271    7.2472    1.0822 C   0  0  0  0  0  0  0  0  0  0  0  0
   14.8659    7.5465    2.1445 F   0  0  0  0  0  0  0  0  0  0  0  0
   12.0410    4.4497    0.0308 C   0  0  0  0  0  0  0  0  0  0  0  0
   11.5946    3.6442   -0.9809 C   0  0  0  0  0  0  0  0  0  0  0  0
   11.2668    2.2813   -0.8090 C   0  0  0  0  0  0  0  0  0  0  0  0
   11.0446    1.1588   -0.7271 N   0  0  0  0  0  0  0  0  0  0  0  0
   11.5077    4.0461   -2.3281 C   0  0  0  0  0  0  0  0  0  0  0  0
   11.4078    4.3266   -3.4366 N   0  0  0  0  0  0  0  0  0  0  0  0
   -9.9782   -5.8077   -0.4932 H   0  0  0  0  0  0  0  0  0  0  0  0
  -13.3086   -0.8876   -2.6526 H   0  0  0  0  0  0  0  0  0  0  0  0
   -8.8306   -2.2633   -1.8200 H   0  0  0  0  0  0  0  0  0  0  0  0
   -4.2220    0.2893   -2.1239 H   0  0  0  0  0  0  0  0  0  0  0  0
   -8.4275    3.2498   -2.0217 H   0  0  0  0  0  0  0  0  0  0  0  0
   -7.7528    3.2661   -3.6509 H   0  0  0  0  0  0  0  0  0  0  0  0
  -10.1962    2.9363   -3.7524 H   0  0  0  0  0  0  0  0  0  0  0  0
  -10.0978    1.5549   -2.6632 H   0  0  0  0  0  0  0  0  0  0  0  0
   -9.4082    1.4498   -4.2890 H   0  0  0  0  0  0  0  0  0  0  0  0
   -4.9919   -9.6824    3.0246 H   0  0  0  0  0  0  0  0  0  0  0  0
   -5.9239   -9.8692    1.5295 H   0  0  0  0  0  0  0  0  0  0  0  0
   -7.3917  -10.1633    3.5020 H   0  0  0  0  0  0  0  0  0  0  0  0
   -7.8695   -8.7263    2.5909 H   0  0  0  0  0  0  0  0  0  0  0  0
   -6.9545   -8.5575    4.0925 H   0  0  0  0  0  0  0  0  0  0  0  0
   -3.2301   -5.2822    2.0547 H   0  0  0  0  0  0  0  0  0  0  0  0
   -2.2805   -4.1774    0.5228 H   0  0  0  0  0  0  0  0  0  0  0  0
   -1.2587    1.1106   -2.0053 H   0  0  0  0  0  0  0  0  0  0  0  0
   -2.2064   -0.3228   -2.4358 H   0  0  0  0  0  0  0  0  0  0  0  0
   -0.9350    0.4556   -4.3852 H   0  0  0  0  0  0  0  0  0  0  0  0
    0.5817    0.3489   -3.4925 H   0  0  0  0  0  0  0  0  0  0  0  0
   -0.3217   -1.1202   -3.8766 H   0  0  0  0  0  0  0  0  0  0  0  0
    3.0547   -1.6359    1.4457 H   0  0  0  0  0  0  0  0  0  0  0  0
    4.5785    2.1735   -1.1953 H   0  0  0  0  0  0  0  0  0  0  0  0
    5.9376    3.1666   -2.4528 H   0  0  0  0  0  0  0  0  0  0  0  0
    9.3913    7.3546   -1.9391 H   0  0  0  0  0  0  0  0  0  0  0  0
    7.8751    7.7791   -2.7452 H   0  0  0  0  0  0  0  0  0  0  0  0
   10.0692    6.0718   -4.0250 H   0  0  0  0  0  0  0  0  0  0  0  0
    9.7990    7.7932   -4.3357 H   0  0  0  0  0  0  0  0  0  0  0  0
    8.5773    6.6060   -4.7973 H   0  0  0  0  0  0  0  0  0  0  0  0
    6.3126   -4.0374    5.8918 H   0  0  0  0  0  0  0  0  0  0  0  0
    4.8050   -3.5975    5.0711 H   0  0  0  0  0  0  0  0  0  0  0  0
    7.0925   -5.1921    3.8153 H   0  0  0  0  0  0  0  0  0  0  0  0
    5.5957   -4.7341    2.9966 H   0  0  0  0  0  0  0  0  0  0  0  0
    5.5498   -5.8523    4.3648 H   0  0  0  0  0  0  0  0  0  0  0  0
    8.8720   -0.1851    4.4991 H   0  0  0  0  0  0  0  0  0  0  0  0
   10.1301    0.9438    3.3376 H   0  0  0  0  0  0  0  0  0  0  0  0
   12.0309    2.9529    3.1626 H   0  0  0  0  0  0  0  0  0  0  0  0
   11.9813    6.4727   -2.0789 H   0  0  0  0  0  0  0  0  0  0  0  0
  1  2  2  0  0  0  0
  2  3  1  0  0  0  0
  3  4  2  0  0  0  0
  3  5  1  0  0  0  0
  5  6  2  0  0  0  0
  6  7  1  0  0  0  0
  7  8  2  0  0  0  0
  8  9  1  0  0  0  0
  8 10  1  0  0  0  0
 10 11  1  0  0  0  0
 10 12  2  0  0  0  0
 12 13  1  0  0  0  0
  6 14  1  0  0  0  0
 14 15  2  0  0  0  0
 15 16  1  0  0  0  0
 16 17  3  0  0  0  0
 15 18  1  0  0  0  0
 18 19  3  0  0  0  0
  1 20  1  0  0  0  0
 20 21  2  0  0  0  0
 21 22  1  0  0  0  0
 22 23  2  0  0  0  0
 23 24  1  0  0  0  0
 24 25  2  0  0  0  0
 25 26  1  0  0  0  0
 26 27  1  0  0  0  0
 26 28  2  0  0  0  0
 28 29  1  0  0  0  0
 29 30  1  0  0  0  0
 28 31  1  0  0  0  0
 23 32  1  0  0  0  0
 32 33  2  0  0  0  0
 33 34  1  0  0  0  0
 34 35  1  0  0  0  0
 35 36  1  0  0  0  0
 36 37  1  0  0  0  0
 37 38  1  0  0  0  0
 38 39  1  0  0  0  0
 37 40  2  0  0  0  0
 40 41  1  0  0  0  0
 40 42  1  0  0  0  0
 34 43  2  0  0  0  0
 43 44  1  0  0  0  0
 33 45  1  0  0  0  0
 45 46  2  0  0  0  0
 46 47  1  0  0  0  0
 46 48  1  0  0  0  0
 48 49  2  0  0  0  0
 49 50  1  0  0  0  0
 50 51  1  0  0  0  0
 49 52  1  0  0  0  0
 52 53  2  0  0  0  0
 53 54  1  0  0  0  0
 53 55  1  0  0  0  0
 55 56  2  0  0  0  0
 56 57  1  0  0  0  0
 56 58  1  0  0  0  0
 58 59  2  0  0  0  0
 59 60  1  0  0  0  0
 60 61  2  0  0  0  0
 61 62  1  0  0  0  0
 62 63  2  0  0  0  0
 63 64  1  0  0  0  0
 64 65  1  0  0  0  0
 64 66  2  0  0  0  0
 66 67  1  0  0  0  0
 67 68  1  0  0  0  0
 66 69  1  0  0  0  0
 61 70  1  0  0  0  0
 70 71  2  0  0  0  0
 71 72  1  0  0  0  0
 72 73  1  0  0  0  0
 73 74  1  0  0  0  0
 74 75  1  0  0  0  0
 75 76  1  0  0  0  0
 76 77  1  0  0  0  0
 75 78  2  0  0  0  0
 78 79  1  0  0  0  0
 78 80  1  0  0  0  0
 72 81  2  0  0  0  0
 81 82  1  0  0  0  0
 71 83  1  0  0  0  0
 83 84  2  0  0  0  0
 84 85  1  0  0  0  0
 84 86  1  0  0  0  0
 86 87  2  0  0  0  0
 87 88  1  0  0  0  0
 88 89  2  0  0  0  0
 88 90  1  0  0  0  0
 90 91  2  0  0  0  0
 91 92  1  0  0  0  0
 92 93  2  0  0  0  0
 93 94  1  0  0  0  0
 93 95  1  0  0  0  0
 95 96  1  0  0  0  0
 95 97  2  0  0  0  0
 97 98  1  0  0  0  0
 91 99  1  0  0  0  0
 99100  2  0  0  0  0
100101  1  0  0  0  0
101102  3  0  0  0  0
100103  1  0  0  0  0
103104  3  0  0  0  0
 14  2  1  0  0  0  0
 44 20  1  0  0  0  0
 54 48  1  0  0  0  0
 82 58  1  0  0  0  0
 99 87  1  0  0  0  0
 12  5  1  0  0  0  0
 43 22  1  0  0  0  0
 57 52  1  0  0  0  0
 81 60  1  0  0  0  0
 97 90  1  0  0  0  0
 31 24  1  0  0  0  0
 47 32  1  0  0  0  0
 69 62  1  0  0  0  0
 85 70  1  0  0  0  0
 41 35  2  0  0  0  0
 79 73  2  0  0  0  0
  1105  1  0  0  0  0
  7106  1  0  0  0  0
 21107  1  0  0  0  0
 25108  1  0  0  0  0
 29109  1  0  0  0  0
 29110  1  0  0  0  0
 30111  1  0  0  0  0
 30112  1  0  0  0  0
 30113  1  0  0  0  0
 38114  1  0  0  0  0
 38115  1  0  0  0  0
 39116  1  0  0  0  0
 39117  1  0  0  0  0
 39118  1  0  0  0  0
 41119  1  0  0  0  0
 45120  1  0  0  0  0
 50121  1  0  0  0  0
 50122  1  0  0  0  0
 51123  1  0  0  0  0
 51124  1  0  0  0  0
 51125  1  0  0  0  0
 55126  1  0  0  0  0
 59127  1  0  0  0  0
 63128  1  0  0  0  0
 67129  1  0  0  0  0
 67130  1  0  0  0  0
 68131  1  0  0  0  0
 68132  1  0  0  0  0
 68133  1  0  0  0  0
 76134  1  0  0  0  0
 76135  1  0  0  0  0
 77136  1  0  0  0  0
 77137  1  0  0  0  0
 77138  1  0  0  0  0
 79139  1  0  0  0  0
 83140  1  0  0  0  0
 86141  1  0  0  0  0
 92142  1  0  0  0  0
M  END
