
  xtb     02042200573D
 energy: -369.451729273142 gnorm: 0.000460652331 xtb: 6.4.1 (unknown)
196215  0     0  0            999 V2000
    3.4856    8.8543   -6.9401 C   0  0  0  0  0  0  0  0  0  0  0  0
    3.9852   10.0957   -6.6509 C   0  0  0  0  0  0  0  0  0  0  0  0
    4.6082   10.5004   -5.3809 C   0  0  0  0  0  0  0  0  0  0  0  0
    4.7881    9.8221   -4.3911 O   0  0  0  0  0  0  0  0  0  0  0  0
    4.9886   11.9185   -5.5547 C   0  0  0  0  0  0  0  0  0  0  0  0
    4.6243   12.3474   -6.8446 C   0  0  0  0  0  0  0  0  0  0  0  0
    4.8864   13.6506   -7.2378 C   0  0  0  0  0  0  0  0  0  0  0  0
    5.5070   14.5047   -6.3381 C   0  0  0  0  0  0  0  0  0  0  0  0
    5.8629   14.0770   -5.0679 C   0  0  0  0  0  0  0  0  0  0  0  0
    6.7046   15.2898   -3.8895 Br  0  0  0  0  0  0  0  0  0  0  0  0
    5.6081   12.7659   -4.6503 C   0  0  0  0  0  0  0  0  0  0  0  0
    6.0432   12.2312   -3.0847 Cl  0  0  0  0  0  0  0  0  0  0  0  0
    3.9924   11.2331   -7.5499 C   0  0  0  0  0  0  0  0  0  0  0  0
    3.4962   11.2909   -8.8270 C   0  0  0  0  0  0  0  0  0  0  0  0
    2.8676   10.2355   -9.5216 C   0  0  0  0  0  0  0  0  0  0  0  0
    2.3423    9.4397  -10.1624 N   0  0  0  0  0  0  0  0  0  0  0  0
    3.5412   12.4408   -9.6441 C   0  0  0  0  0  0  0  0  0  0  0  0
    3.5456   13.3364  -10.3621 N   0  0  0  0  0  0  0  0  0  0  0  0
    3.3934    7.6940   -6.1494 C   0  0  0  0  0  0  0  0  0  0  0  0
    2.8057    6.5386   -6.6385 C   0  0  0  0  0  0  0  0  0  0  0  0
    2.7395    5.4868   -5.7163 C   0  0  0  0  0  0  0  0  0  0  0  0
    2.1634    4.1990   -5.8812 C   0  0  0  0  0  0  0  0  0  0  0  0
    1.4933    3.7875   -7.0923 C   0  0  0  0  0  0  0  0  0  0  0  0
    1.4079    2.5195   -7.6053 C   0  0  0  0  0  0  0  0  0  0  0  0
    0.6322    2.4576   -8.7777 C   0  0  0  0  0  0  0  0  0  0  0  0
    0.3668    0.9963   -9.6485 Cl  0  0  0  0  0  0  0  0  0  0  0  0
    0.1027    3.6558   -9.1726 C   0  0  0  0  0  0  0  0  0  0  0  0
   -0.7538    3.9254  -10.3618 C   0  0  0  0  0  0  0  0  0  0  0  0
   -1.1148    5.3965  -10.5123 C   0  0  0  0  0  0  0  0  0  0  0  0
    0.5835    4.8996   -8.0793 S   0  0  0  0  0  0  0  0  0  0  0  0
    2.2240    3.3586   -4.7758 C   0  0  0  0  0  0  0  0  0  0  0  0
    2.8471    3.7301   -3.5589 C   0  0  0  0  0  0  0  0  0  0  0  0
    3.4413    4.9950   -3.4035 C   0  0  0  0  0  0  0  0  0  0  0  0
    4.0072    5.3727   -2.1237 C   0  0  0  0  0  0  0  0  0  0  0  0
    3.6372    6.9048   -1.3845 S   0  0  0  0  0  0  0  0  0  0  0  0
    4.4691    6.4798    0.0715 C   0  0  0  0  0  0  0  0  0  0  0  0
    4.5575    7.4264    1.2165 C   0  0  0  0  0  0  0  0  0  0  0  0
    5.6858    8.4387    1.0045 C   0  0  0  0  0  0  0  0  0  0  0  0
    5.0223    5.2388   -0.0541 C   0  0  0  0  0  0  0  0  0  0  0  0
    4.7626    4.6023   -1.2849 C   0  0  0  0  0  0  0  0  0  0  0  0
    5.9437    4.4896    1.1872 Cl  0  0  0  0  0  0  0  0  0  0  0  0
    3.3449    5.8606   -4.4846 C   0  0  0  0  0  0  0  0  0  0  0  0
    3.9300    7.4945   -4.4968 S   0  0  0  0  0  0  0  0  0  0  0  0
    2.6085    2.7872   -2.5356 C   0  0  0  0  0  0  0  0  0  0  0  0
    1.8087    1.7499   -2.9095 C   0  0  0  0  0  0  0  0  0  0  0  0
    1.4125    1.8159   -4.6133 S   0  0  0  0  0  0  0  0  0  0  0  0
    1.2062    0.8603   -1.9633 C   0  0  0  0  0  0  0  0  0  0  0  0
    0.7188    1.2991   -0.7395 C   0  0  0  0  0  0  0  0  0  0  0  0
    0.5942    2.6341   -0.3579 N   0  0  0  0  0  0  0  0  0  0  0  0
    0.1820    3.5685   -1.3194 C   0  0  0  0  0  0  0  0  0  0  0  0
   -0.7692    3.2087   -2.2721 C   0  0  0  0  0  0  0  0  0  0  0  0
   -1.0805    4.0516   -3.3204 C   0  0  0  0  0  0  0  0  0  0  0  0
   -0.4595    5.2886   -3.4273 C   0  0  0  0  0  0  0  0  0  0  0  0
   -0.6778    6.4018   -4.7798 S   0  0  0  0  0  0  0  0  0  0  0  0
   -1.9872    5.6280   -5.7702 C   0  0  0  0  0  0  0  0  0  0  0  0
    0.4249    5.6902   -2.4299 C   0  0  0  0  0  0  0  0  0  0  0  0
    0.7453    4.8433   -1.3935 C   0  0  0  0  0  0  0  0  0  0  0  0
    1.2263    3.0585    0.8206 C   0  0  0  0  0  0  0  0  0  0  0  0
    2.3738    2.4214    1.2829 C   0  0  0  0  0  0  0  0  0  0  0  0
    3.0461    2.8912    2.3954 C   0  0  0  0  0  0  0  0  0  0  0  0
    2.5845    4.0180    3.0596 C   0  0  0  0  0  0  0  0  0  0  0  0
    3.3956    4.7655    4.4362 S   0  0  0  0  0  0  0  0  0  0  0  0
    4.8270    3.6931    4.7419 C   0  0  0  0  0  0  0  0  0  0  0  0
    1.4097    4.6326    2.6265 C   0  0  0  0  0  0  0  0  0  0  0  0
    0.7321    4.1546    1.5292 C   0  0  0  0  0  0  0  0  0  0  0  0
    0.2913    0.2097    0.0509 C   0  0  0  0  0  0  0  0  0  0  0  0
   -0.3856    0.0713    1.6334 S   0  0  0  0  0  0  0  0  0  0  0  0
   -0.4779   -1.6705    1.4479 C   0  0  0  0  0  0  0  0  0  0  0  0
   -0.0784   -2.1061    0.1897 C   0  0  0  0  0  0  0  0  0  0  0  0
   -0.1776   -3.4022   -0.2933 N   0  0  0  0  0  0  0  0  0  0  0  0
    0.9001   -3.9214   -1.0264 C   0  0  0  0  0  0  0  0  0  0  0  0
    0.6814   -4.8038   -2.0848 C   0  0  0  0  0  0  0  0  0  0  0  0
    1.7470   -5.3332   -2.7752 C   0  0  0  0  0  0  0  0  0  0  0  0
    3.0556   -4.9877   -2.4373 C   0  0  0  0  0  0  0  0  0  0  0  0
    4.3354   -5.7542   -3.3780 S   0  0  0  0  0  0  0  0  0  0  0  0
    5.8655   -5.0975   -2.6546 C   0  0  0  0  0  0  0  0  0  0  0  0
    3.2765   -4.0926   -1.4003 C   0  0  0  0  0  0  0  0  0  0  0  0
    2.2064   -3.5708   -0.6987 C   0  0  0  0  0  0  0  0  0  0  0  0
   -1.2435   -4.2289    0.0884 C   0  0  0  0  0  0  0  0  0  0  0  0
   -1.0464   -5.5918    0.3193 C   0  0  0  0  0  0  0  0  0  0  0  0
   -2.0622   -6.3635    0.8354 C   0  0  0  0  0  0  0  0  0  0  0  0
   -3.2904   -5.7955    1.1660 C   0  0  0  0  0  0  0  0  0  0  0  0
   -4.4404   -6.8400    2.0047 S   0  0  0  0  0  0  0  0  0  0  0  0
   -5.7596   -5.7156    2.5342 C   0  0  0  0  0  0  0  0  0  0  0  0
   -3.5226   -4.4626    0.8515 C   0  0  0  0  0  0  0  0  0  0  0  0
   -2.5129   -3.6955    0.3051 C   0  0  0  0  0  0  0  0  0  0  0  0
    0.3954   -1.0189   -0.5847 C   0  0  0  0  0  0  0  0  0  0  0  0
    1.0325   -0.8669   -2.1875 S   0  0  0  0  0  0  0  0  0  0  0  0
   -0.9609   -2.5168    2.4901 C   0  0  0  0  0  0  0  0  0  0  0  0
   -0.5186   -3.7834    2.7413 C   0  0  0  0  0  0  0  0  0  0  0  0
   -1.3357   -4.5147    3.6307 C   0  0  0  0  0  0  0  0  0  0  0  0
   -1.2329   -5.8782    3.9848 C   0  0  0  0  0  0  0  0  0  0  0  0
   -0.1714   -6.7268    3.4840 C   0  0  0  0  0  0  0  0  0  0  0  0
   -0.2572   -8.0450    3.1273 C   0  0  0  0  0  0  0  0  0  0  0  0
    0.9494   -8.5560    2.6073 C   0  0  0  0  0  0  0  0  0  0  0  0
    1.0957  -10.1768    2.0463 Cl  0  0  0  0  0  0  0  0  0  0  0  0
    1.9784   -7.6598    2.5793 C   0  0  0  0  0  0  0  0  0  0  0  0
    3.3488   -7.8263    2.0235 C   0  0  0  0  0  0  0  0  0  0  0  0
    3.4236   -7.2830    0.5933 C   0  0  0  0  0  0  0  0  0  0  0  0
    1.4468   -6.1402    3.2064 S   0  0  0  0  0  0  0  0  0  0  0  0
   -2.2708   -6.3893    4.7612 C   0  0  0  0  0  0  0  0  0  0  0  0
   -3.3670   -5.6021    5.2039 C   0  0  0  0  0  0  0  0  0  0  0  0
   -3.4345   -4.2244    4.8956 C   0  0  0  0  0  0  0  0  0  0  0  0
   -4.5355   -3.4145    5.3728 C   0  0  0  0  0  0  0  0  0  0  0  0
   -5.3572   -2.2885    4.3272 S   0  0  0  0  0  0  0  0  0  0  0  0
   -6.4649   -1.8354    5.5738 C   0  0  0  0  0  0  0  0  0  0  0  0
   -7.5008   -0.7937    5.3382 C   0  0  0  0  0  0  0  0  0  0  0  0
   -6.9017    0.6099    5.4560 C   0  0  0  0  0  0  0  0  0  0  0  0
   -6.1804   -2.5149    6.7235 C   0  0  0  0  0  0  0  0  0  0  0  0
   -5.1006   -3.4165    6.6164 C   0  0  0  0  0  0  0  0  0  0  0  0
   -7.0660   -2.3080    8.1851 Cl  0  0  0  0  0  0  0  0  0  0  0  0
   -2.4286   -3.7294    4.0821 C   0  0  0  0  0  0  0  0  0  0  0  0
   -2.3695   -2.1097    3.4417 S   0  0  0  0  0  0  0  0  0  0  0  0
   -4.3515   -6.3666    5.8549 C   0  0  0  0  0  0  0  0  0  0  0  0
   -4.0330   -7.6968    5.9671 C   0  0  0  0  0  0  0  0  0  0  0  0
   -2.4476   -8.0351    5.2892 S   0  0  0  0  0  0  0  0  0  0  0  0
   -4.7569   -8.7590    6.5539 C   0  0  0  0  0  0  0  0  0  0  0  0
   -6.1099   -8.8639    6.7114 C   0  0  0  0  0  0  0  0  0  0  0  0
   -7.1439   -8.0629    6.0232 C   0  0  0  0  0  0  0  0  0  0  0  0
   -7.0157   -7.0325    5.3996 O   0  0  0  0  0  0  0  0  0  0  0  0
   -8.3973   -8.8390    6.1723 C   0  0  0  0  0  0  0  0  0  0  0  0
   -9.6337   -8.5832    5.6049 C   0  0  0  0  0  0  0  0  0  0  0  0
   -9.9212   -7.1712    4.6924 Cl  0  0  0  0  0  0  0  0  0  0  0  0
  -10.6572   -9.5228    5.7927 C   0  0  0  0  0  0  0  0  0  0  0  0
  -12.2111   -9.2328    5.1420 Cl  0  0  0  0  0  0  0  0  0  0  0  0
  -10.3988  -10.7110    6.4748 C   0  0  0  0  0  0  0  0  0  0  0  0
  -11.6357  -11.8832    6.6103 Cl  0  0  0  0  0  0  0  0  0  0  0  0
   -9.1390  -10.9697    7.0403 C   0  0  0  0  0  0  0  0  0  0  0  0
   -8.8490  -12.5192    7.7138 Cl  0  0  0  0  0  0  0  0  0  0  0  0
   -8.1546   -9.9944    6.9435 C   0  0  0  0  0  0  0  0  0  0  0  0
   -6.7853   -9.9254    7.4420 C   0  0  0  0  0  0  0  0  0  0  0  0
   -6.2649  -10.5380    8.5492 C   0  0  0  0  0  0  0  0  0  0  0  0
   -4.9408  -10.3248    8.9999 C   0  0  0  0  0  0  0  0  0  0  0  0
   -3.8844  -10.1964    9.4292 N   0  0  0  0  0  0  0  0  0  0  0  0
   -6.9732  -11.3031    9.5015 C   0  0  0  0  0  0  0  0  0  0  0  0
   -7.4662  -11.8546   10.3785 N   0  0  0  0  0  0  0  0  0  0  0  0
    3.0725    8.7164   -7.9318 H   0  0  0  0  0  0  0  0  0  0  0  0
    4.6230   14.0144   -8.2165 H   0  0  0  0  0  0  0  0  0  0  0  0
    5.7195   15.5228   -6.6258 H   0  0  0  0  0  0  0  0  0  0  0  0
    2.4429    6.4859   -7.6483 H   0  0  0  0  0  0  0  0  0  0  0  0
    1.9097    1.6644   -7.1923 H   0  0  0  0  0  0  0  0  0  0  0  0
   -1.6651    3.3235  -10.2800 H   0  0  0  0  0  0  0  0  0  0  0  0
   -0.2248    3.5782  -11.2551 H   0  0  0  0  0  0  0  0  0  0  0  0
   -1.7326    5.5430  -11.3942 H   0  0  0  0  0  0  0  0  0  0  0  0
   -0.2177    6.0027  -10.6150 H   0  0  0  0  0  0  0  0  0  0  0  0
   -1.6664    5.7457   -9.6419 H   0  0  0  0  0  0  0  0  0  0  0  0
    4.7361    6.8588    2.1324 H   0  0  0  0  0  0  0  0  0  0  0  0
    3.6094    7.9573    1.3208 H   0  0  0  0  0  0  0  0  0  0  0  0
    5.7310    9.1286    1.8429 H   0  0  0  0  0  0  0  0  0  0  0  0
    6.6427    7.9285    0.9215 H   0  0  0  0  0  0  0  0  0  0  0  0
    5.5154    9.0059    0.0921 H   0  0  0  0  0  0  0  0  0  0  0  0
    5.1536    3.6350   -1.5427 H   0  0  0  0  0  0  0  0  0  0  0  0
    2.9682    2.9049   -1.5309 H   0  0  0  0  0  0  0  0  0  0  0  0
   -1.2480    2.2425   -2.2108 H   0  0  0  0  0  0  0  0  0  0  0  0
   -1.7992    3.7217   -4.0528 H   0  0  0  0  0  0  0  0  0  0  0  0
   -2.1535    6.3008   -6.6055 H   0  0  0  0  0  0  0  0  0  0  0  0
   -1.6565    4.6608   -6.1372 H   0  0  0  0  0  0  0  0  0  0  0  0
   -2.8935    5.5392   -5.1784 H   0  0  0  0  0  0  0  0  0  0  0  0
    0.8856    6.6641   -2.4940 H   0  0  0  0  0  0  0  0  0  0  0  0
    1.4636    5.1588   -0.6534 H   0  0  0  0  0  0  0  0  0  0  0  0
    2.7590    1.5595    0.7565 H   0  0  0  0  0  0  0  0  0  0  0  0
    3.9399    2.3810    2.7149 H   0  0  0  0  0  0  0  0  0  0  0  0
    5.3411    4.1288    5.5930 H   0  0  0  0  0  0  0  0  0  0  0  0
    4.4920    2.6895    4.9873 H   0  0  0  0  0  0  0  0  0  0  0  0
    5.4822    3.6933    3.8759 H   0  0  0  0  0  0  0  0  0  0  0  0
    1.0397    5.4920    3.1643 H   0  0  0  0  0  0  0  0  0  0  0  0
   -0.1780    4.6333    1.2015 H   0  0  0  0  0  0  0  0  0  0  0  0
   -0.3289   -5.0709   -2.3547 H   0  0  0  0  0  0  0  0  0  0  0  0
    1.5814   -6.0205   -3.5904 H   0  0  0  0  0  0  0  0  0  0  0  0
    5.9312   -5.3756   -1.6067 H   0  0  0  0  0  0  0  0  0  0  0  0
    5.9055   -4.0197   -2.7823 H   0  0  0  0  0  0  0  0  0  0  0  0
    6.6733   -5.5635   -3.2102 H   0  0  0  0  0  0  0  0  0  0  0  0
    4.2745   -3.8012   -1.1160 H   0  0  0  0  0  0  0  0  0  0  0  0
    2.3883   -2.8939    0.1238 H   0  0  0  0  0  0  0  0  0  0  0  0
   -0.0827   -6.0385    0.1257 H   0  0  0  0  0  0  0  0  0  0  0  0
   -1.9014   -7.4125    1.0252 H   0  0  0  0  0  0  0  0  0  0  0  0
   -6.3928   -5.4586    1.6898 H   0  0  0  0  0  0  0  0  0  0  0  0
   -5.3222   -4.8293    2.9818 H   0  0  0  0  0  0  0  0  0  0  0  0
   -6.3316   -6.2562    3.2830 H   0  0  0  0  0  0  0  0  0  0  0  0
   -4.4823   -4.0061    1.0339 H   0  0  0  0  0  0  0  0  0  0  0  0
   -2.7028   -2.6573    0.0762 H   0  0  0  0  0  0  0  0  0  0  0  0
    0.3637   -4.1735    2.2734 H   0  0  0  0  0  0  0  0  0  0  0  0
   -1.1560   -8.6298    3.1792 H   0  0  0  0  0  0  0  0  0  0  0  0
    3.6016   -8.8881    2.0250 H   0  0  0  0  0  0  0  0  0  0  0  0
    4.0673   -7.2954    2.6514 H   0  0  0  0  0  0  0  0  0  0  0  0
    4.4244   -7.4212    0.1925 H   0  0  0  0  0  0  0  0  0  0  0  0
    3.1816   -6.2220    0.5747 H   0  0  0  0  0  0  0  0  0  0  0  0
    2.7206   -7.8072   -0.0497 H   0  0  0  0  0  0  0  0  0  0  0  0
   -7.9282   -0.9227    4.3416 H   0  0  0  0  0  0  0  0  0  0  0  0
   -8.2956   -0.9170    6.0763 H   0  0  0  0  0  0  0  0  0  0  0  0
   -6.1059    0.7435    4.7264 H   0  0  0  0  0  0  0  0  0  0  0  0
   -6.4894    0.7619    6.4506 H   0  0  0  0  0  0  0  0  0  0  0  0
   -7.6682    1.3596    5.2787 H   0  0  0  0  0  0  0  0  0  0  0  0
   -4.7381   -4.0022    7.4409 H   0  0  0  0  0  0  0  0  0  0  0  0
   -5.2699   -5.9525    6.2219 H   0  0  0  0  0  0  0  0  0  0  0  0
   -4.1518   -9.6057    6.8566 H   0  0  0  0  0  0  0  0  0  0  0  0
  1  2  2  0  0  0  0
  2  3  1  0  0  0  0
  3  4  2  0  0  0  0
  3  5  1  0  0  0  0
  5  6  2  0  0  0  0
  6  7  1  0  0  0  0
  7  8  2  0  0  0  0
  8  9  1  0  0  0  0
  9 10  1  0  0  0  0
  9 11  2  0  0  0  0
 11 12  1  0  0  0  0
  6 13  1  0  0  0  0
 13 14  2  0  0  0  0
 14 15  1  0  0  0  0
 15 16  3  0  0  0  0
 14 17  1  0  0  0  0
 17 18  3  0  0  0  0
  1 19  1  0  0  0  0
 19 20  2  0  0  0  0
 20 21  1  0  0  0  0
 21 22  2  0  0  0  0
 22 23  1  0  0  0  0
 23 24  2  0  0  0  0
 24 25  1  0  0  0  0
 25 26  1  0  0  0  0
 25 27  2  0  0  0  0
 27 28  1  0  0  0  0
 28 29  1  0  0  0  0
 27 30  1  0  0  0  0
 22 31  1  0  0  0  0
 31 32  2  0  0  0  0
 32 33  1  0  0  0  0
 33 34  1  0  0  0  0
 34 35  1  0  0  0  0
 35 36  1  0  0  0  0
 36 37  1  0  0  0  0
 37 38  1  0  0  0  0
 36 39  2  0  0  0  0
 39 40  1  0  0  0  0
 39 41  1  0  0  0  0
 33 42  2  0  0  0  0
 42 43  1  0  0  0  0
 32 44  1  0  0  0  0
 44 45  2  0  0  0  0
 45 46  1  0  0  0  0
 45 47  1  0  0  0  0
 47 48  2  0  0  0  0
 48 49  1  0  0  0  0
 49 50  1  0  0  0  0
 50 51  2  0  0  0  0
 51 52  1  0  0  0  0
 52 53  2  0  0  0  0
 53 54  1  0  0  0  0
 54 55  1  0  0  0  0
 53 56  1  0  0  0  0
 56 57  2  0  0  0  0
 49 58  1  0  0  0  0
 58 59  2  0  0  0  0
 59 60  1  0  0  0  0
 60 61  2  0  0  0  0
 61 62  1  0  0  0  0
 62 63  1  0  0  0  0
 61 64  1  0  0  0  0
 64 65  2  0  0  0  0
 48 66  1  0  0  0  0
 66 67  1  0  0  0  0
 67 68  1  0  0  0  0
 68 69  2  0  0  0  0
 69 70  1  0  0  0  0
 70 71  1  0  0  0  0
 71 72  2  0  0  0  0
 72 73  1  0  0  0  0
 73 74  2  0  0  0  0
 74 75  1  0  0  0  0
 75 76  1  0  0  0  0
 74 77  1  0  0  0  0
 77 78  2  0  0  0  0
 70 79  1  0  0  0  0
 79 80  2  0  0  0  0
 80 81  1  0  0  0  0
 81 82  2  0  0  0  0
 82 83  1  0  0  0  0
 83 84  1  0  0  0  0
 82 85  1  0  0  0  0
 85 86  2  0  0  0  0
 69 87  1  0  0  0  0
 87 88  1  0  0  0  0
 68 89  1  0  0  0  0
 89 90  2  0  0  0  0
 90 91  1  0  0  0  0
 91 92  2  0  0  0  0
 92 93  1  0  0  0  0
 93 94  2  0  0  0  0
 94 95  1  0  0  0  0
 95 96  1  0  0  0  0
 95 97  2  0  0  0  0
 97 98  1  0  0  0  0
 98 99  1  0  0  0  0
 97100  1  0  0  0  0
 92101  1  0  0  0  0
101102  2  0  0  0  0
102103  1  0  0  0  0
103104  1  0  0  0  0
104105  1  0  0  0  0
105106  1  0  0  0  0
106107  1  0  0  0  0
107108  1  0  0  0  0
106109  2  0  0  0  0
109110  1  0  0  0  0
109111  1  0  0  0  0
103112  2  0  0  0  0
112113  1  0  0  0  0
102114  1  0  0  0  0
114115  2  0  0  0  0
115116  1  0  0  0  0
115117  1  0  0  0  0
117118  2  0  0  0  0
118119  1  0  0  0  0
119120  2  0  0  0  0
119121  1  0  0  0  0
121122  2  0  0  0  0
122123  1  0  0  0  0
122124  1  0  0  0  0
124125  1  0  0  0  0
124126  2  0  0  0  0
126127  1  0  0  0  0
126128  1  0  0  0  0
128129  1  0  0  0  0
128130  2  0  0  0  0
130131  1  0  0  0  0
131132  2  0  0  0  0
132133  1  0  0  0  0
133134  3  0  0  0  0
132135  1  0  0  0  0
135136  3  0  0  0  0
 13  2  1  0  0  0  0
 43 19  1  0  0  0  0
 88 47  1  0  0  0  0
113 89  1  0  0  0  0
131118  1  0  0  0  0
 11  5  1  0  0  0  0
 42 21  1  0  0  0  0
 57 50  1  0  0  0  0
 65 58  1  0  0  0  0
 87 66  2  0  0  0  0
112 91  1  0  0  0  0
130121  1  0  0  0  0
 30 23  1  0  0  0  0
 46 31  1  0  0  0  0
 78 71  1  0  0  0  0
 86 79  1  0  0  0  0
100 93  1  0  0  0  0
116101  1  0  0  0  0
 40 34  2  0  0  0  0
110104  2  0  0  0  0
  1137  1  0  0  0  0
  7138  1  0  0  0  0
  8139  1  0  0  0  0
 20140  1  0  0  0  0
 24141  1  0  0  0  0
 28142  1  0  0  0  0
 28143  1  0  0  0  0
 29144  1  0  0  0  0
 29145  1  0  0  0  0
 29146  1  0  0  0  0
 37147  1  0  0  0  0
 37148  1  0  0  0  0
 38149  1  0  0  0  0
 38150  1  0  0  0  0
 38151  1  0  0  0  0
 40152  1  0  0  0  0
 44153  1  0  0  0  0
 51154  1  0  0  0  0
 52155  1  0  0  0  0
 55156  1  0  0  0  0
 55157  1  0  0  0  0
 55158  1  0  0  0  0
 56159  1  0  0  0  0
 57160  1  0  0  0  0
 59161  1  0  0  0  0
 60162  1  0  0  0  0
 63163  1  0  0  0  0
 63164  1  0  0  0  0
 63165  1  0  0  0  0
 64166  1  0  0  0  0
 65167  1  0  0  0  0
 72168  1  0  0  0  0
 73169  1  0  0  0  0
 76170  1  0  0  0  0
 76171  1  0  0  0  0
 76172  1  0  0  0  0
 77173  1  0  0  0  0
 78174  1  0  0  0  0
 80175  1  0  0  0  0
 81176  1  0  0  0  0
 84177  1  0  0  0  0
 84178  1  0  0  0  0
 84179  1  0  0  0  0
 85180  1  0  0  0  0
 86181  1  0  0  0  0
 90182  1  0  0  0  0
 94183  1  0  0  0  0
 98184  1  0  0  0  0
 98185  1  0  0  0  0
 99186  1  0  0  0  0
 99187  1  0  0  0  0
 99188  1  0  0  0  0
107189  1  0  0  0  0
107190  1  0  0  0  0
108191  1  0  0  0  0
108192  1  0  0  0  0
108193  1  0  0  0  0
110194  1  0  0  0  0
114195  1  0  0  0  0
117196  1  0  0  0  0
M  END
