143

C         -1.14920      -10.63150       -3.36160
C         -1.00670      -11.36060       -4.51270
C         -0.84500      -10.81260       -5.86790
O         -0.77230       -9.64680       -6.19640
C         -0.80100      -11.98390       -6.77070
C         -0.90910      -13.16450       -6.01260
C         -0.89640      -14.39640       -6.64780
C         -0.77500      -14.43110       -8.02910
C         -0.66710      -13.26490       -8.77110
Br        -0.50420      -13.38050      -10.64980
C         -0.67860      -12.01080       -8.15040
Cl        -0.54690      -10.56780       -9.06050
C         -1.02180      -12.80680       -4.59920
C         -1.09590      -13.70450       -3.56460
C         -1.17680      -13.38430       -2.19270
N         -1.24180      -13.22120       -1.05730
C         -1.08690      -15.10590       -3.72870
N         -1.08370      -16.25230       -3.78840
C         -1.10610       -9.24390       -3.13920
C         -1.26590       -8.71640       -1.86780
C         -1.14130       -7.32410       -1.80030
C         -1.22620       -6.49200       -0.65540
C         -1.42370       -7.01580        0.67690
C         -2.15610       -6.47230        1.69850
C         -2.09880       -7.22260        2.88710
C         -1.30810       -8.32860        2.79650
C         -1.03100       -9.36460        3.82940
C         -1.69490      -10.69670        3.47350
S         -0.62880       -8.47350        1.21220
C         -1.07160       -5.13060       -0.87920
C         -0.80090       -4.57250       -2.15750
C         -0.72780       -5.40000       -3.29790
C         -0.46350       -4.89130       -4.62860
C         -1.01440       -5.31380       -5.80700
C         -0.51180       -4.63950       -6.93590
C          0.43270       -3.70670       -6.63750
C          1.20980       -2.84030       -7.56700
C          2.64030       -3.35630       -7.73860
S          0.71440       -3.64040       -4.92940
C         -0.91100       -6.76390       -3.08720
S         -0.82840       -7.98620       -4.32420
C         -0.62180       -3.17310       -2.08310
C         -0.73170       -2.66660       -0.81770
S         -1.11230       -3.89910        0.35550
C         -0.54230       -1.30690       -0.39550
C          0.14280       -0.36900       -1.15570
C          0.38110        0.93120       -0.71710
C         -0.06370        1.40340        0.51150
C         -0.80460        0.48640        1.29920
N         -1.34390        0.71520        2.49390
S         -2.05440       -0.63040        3.01360
N         -1.71380       -1.56790        1.75440
C         -1.02260       -0.86260        0.86110
C          0.21020        2.72070        1.00020
S         -0.63080        3.33870        2.39080
C          0.25140        4.82250        2.28740
C          0.10560        5.98720        3.06440
C          0.76020        7.15320        2.62590
O          1.51590        7.20390        1.51500
C          2.12500        5.96770        1.08150
C          3.38000        5.76390        1.92730
C          4.25370        6.83730        2.05210
C          5.39230        6.72680        2.82530
C          5.68800        5.54340        3.49110
C          6.94690        5.40840        4.29770
C          8.08450        4.87100        3.42680
C          4.81480        4.47310        3.35530
C          3.66950        4.57860        2.58610
C          2.48440        6.13260       -0.38340
C          3.55880        5.43940       -0.92540
C          3.85370        5.55490       -2.27070
C          3.08860        6.36200       -3.10320
C          3.44700        6.52550       -4.55190
C          4.45120        7.66680       -4.72530
C          2.01660        7.05160       -2.55250
C          1.71050        6.93420       -1.20940
C          1.17000        4.81270        1.24330
C          1.13280        3.63020        0.51160
C          0.46560        8.24320        3.42210
C         -0.40420        7.94380        4.47950
S         -0.85900        6.25090        4.46020
C         -0.80300        8.91300        5.40270
C         -1.66190        8.82440        6.47610
C         -2.41480        7.63080        6.85700
O         -2.36440        6.52660        6.34570
C         -3.26660        8.03330        7.99670
C         -3.01970        9.38400        8.30500
C         -3.70760        9.99250        9.34180
C         -4.63300        9.24380       10.05560
C         -4.87220        7.91420        9.74750
Br        -6.14640        6.94990       10.75570
C         -4.18770        7.27940        8.70450
Cl        -4.48000        5.63790        8.31780
C         -2.00640        9.89710        7.38070
C         -1.48450       11.16620        7.41420
C         -1.86550       12.15640        8.34330
N         -2.12830       13.00810        9.06720
C         -0.49010       11.67100        6.55090
N          0.31710       12.16300        5.89790
H         -1.31240      -11.19380       -2.45010
H         -0.97940      -15.32010       -6.10060
H         -0.76380      -15.38050       -8.54190
H         -1.46970       -9.34650       -1.02100
H         -2.75140       -5.58400        1.59010
H         -2.62450       -6.94830        3.78440
H         -1.40630       -9.00910        4.79130
H          0.04790       -9.51660        3.91770
H         -1.48950      -11.43600        4.24320
H         -2.77210      -10.57250        3.38930
H         -1.31400      -11.06870        2.52520
H         -1.78310       -6.06230       -5.86490
H         -0.84330       -4.84050       -7.93900
H          1.24100       -1.81810       -7.18160
H          0.70600       -2.82640       -8.53580
H          2.63060       -4.37240       -8.12610
H          3.15830       -3.35630       -6.78210
H          3.18870       -2.72390       -8.43220
H         -0.43760       -2.55540       -2.94160
H          0.53370       -0.66450       -2.11680
H          0.93450        1.59530       -1.36240
H          4.02630        7.76090        1.54070
H          6.05980        7.57150        2.91600
H          7.23270        6.38080        4.70290
H          6.78000        4.72510        5.13280
H          8.27160        5.54300        2.59220
H          8.99770        4.77790        4.00970
H          7.82590        3.89290        3.02720
H          5.02710        3.54360        3.86400
H          3.00760        3.72920        2.50170
H          4.16820        4.81120       -0.29170
H          4.69230        5.00980       -2.68030
H          3.88510        5.60050       -4.93250
H          2.54960        6.74430       -5.13390
H          5.35930        7.46010       -4.16340
H          4.02890        8.60020       -4.36020
H          4.71110        7.78910       -5.77410
H          1.40930        7.68460       -3.18350
H          0.87370        7.47390       -0.79360
H          1.77200        3.43460       -0.32970
H          0.85590        9.23020        3.25380
H         -0.36130        9.88400        5.21490
H         -3.54610       11.02420        9.60480
H         -5.18020        9.70030       10.86590
