
  xtb     02132214553D
 energy: -432.996765658437 gnorm: 0.000646539481 xtb: 6.4.1 (unknown)
252273  0     0  0            999 V2000
   -2.8800   -7.1719    5.1591 C   0  0  0  0  0  0  0  0  0  0  0  0
   -2.0870   -7.8279    6.0566 C   0  0  0  0  0  0  0  0  0  0  0  0
   -2.6880   -8.7473    7.0542 C   0  0  0  0  0  0  0  0  0  0  0  0
   -3.8147   -9.1837    7.0562 O   0  0  0  0  0  0  0  0  0  0  0  0
   -1.6260   -8.9445    8.0709 C   0  0  0  0  0  0  0  0  0  0  0  0
   -0.4418   -8.3159    7.6392 C   0  0  0  0  0  0  0  0  0  0  0  0
    0.6890   -8.3283    8.4374 C   0  0  0  0  0  0  0  0  0  0  0  0
    0.6274   -8.9796    9.6604 C   0  0  0  0  0  0  0  0  0  0  0  0
   -0.5336   -9.6129   10.0770 C   0  0  0  0  0  0  0  0  0  0  0  0
   -0.5468  -10.4953   11.7481 Br  0  0  0  0  0  0  0  0  0  0  0  0
   -1.6891   -9.6061    9.2866 C   0  0  0  0  0  0  0  0  0  0  0  0
   -3.1235  -10.3838    9.8025 Cl  0  0  0  0  0  0  0  0  0  0  0  0
   -0.6760   -7.7380    6.3201 C   0  0  0  0  0  0  0  0  0  0  0  0
    0.2966   -7.4494    5.3936 C   0  0  0  0  0  0  0  0  0  0  0  0
    1.6723   -7.5712    5.6515 C   0  0  0  0  0  0  0  0  0  0  0  0
    2.8035   -7.6665    5.8292 N   0  0  0  0  0  0  0  0  0  0  0  0
   -0.0051   -7.1254    4.0561 C   0  0  0  0  0  0  0  0  0  0  0  0
   -0.2259   -6.9006    2.9519 N   0  0  0  0  0  0  0  0  0  0  0  0
   -2.6367   -5.9260    4.5411 C   0  0  0  0  0  0  0  0  0  0  0  0
   -1.8963   -4.8424    5.0180 C   0  0  0  0  0  0  0  0  0  0  0  0
   -1.1528   -4.8244    6.2200 N   0  0  0  0  0  0  0  0  0  0  0  0
   -1.8621   -4.2738    7.3167 C   0  0  0  0  0  0  0  0  0  0  0  0
   -3.0726   -4.8461    7.7052 C   0  0  0  0  0  0  0  0  0  0  0  0
   -3.7728   -4.3332    8.7742 C   0  0  0  0  0  0  0  0  0  0  0  0
   -3.2867   -3.2349    9.4813 C   0  0  0  0  0  0  0  0  0  0  0  0
   -4.2594   -2.6931   10.8470 S   0  0  0  0  0  0  0  0  0  0  0  0
   -3.3389   -1.2829   11.5175 C   0  0  0  0  0  0  0  0  0  0  0  0
   -2.0977   -2.6429    9.0765 C   0  0  0  0  0  0  0  0  0  0  0  0
   -1.3997   -3.1526    7.9986 C   0  0  0  0  0  0  0  0  0  0  0  0
    0.2370   -4.6983    6.1512 C   0  0  0  0  0  0  0  0  0  0  0  0
    0.9070   -4.4512    4.9507 C   0  0  0  0  0  0  0  0  0  0  0  0
    2.2838   -4.3808    4.9162 C   0  0  0  0  0  0  0  0  0  0  0  0
    3.0287   -4.5628    6.0731 C   0  0  0  0  0  0  0  0  0  0  0  0
    4.7907   -4.4535    5.9662 S   0  0  0  0  0  0  0  0  0  0  0  0
    5.3048   -5.7861    7.0885 C   0  0  0  0  0  0  0  0  0  0  0  0
    2.3719   -4.8137    7.2729 C   0  0  0  0  0  0  0  0  0  0  0  0
    0.9968   -4.8916    7.3091 C   0  0  0  0  0  0  0  0  0  0  0  0
   -2.0800   -3.7103    4.2180 C   0  0  0  0  0  0  0  0  0  0  0  0
   -1.4550   -2.0948    4.2715 S   0  0  0  0  0  0  0  0  0  0  0  0
   -2.2362   -1.7248    2.7403 C   0  0  0  0  0  0  0  0  0  0  0  0
   -3.0153   -2.7900    2.2753 C   0  0  0  0  0  0  0  0  0  0  0  0
   -3.7796   -2.7511    1.1147 N   0  0  0  0  0  0  0  0  0  0  0  0
   -4.7346   -1.7459    0.9410 C   0  0  0  0  0  0  0  0  0  0  0  0
   -5.3247   -1.1305    2.0453 C   0  0  0  0  0  0  0  0  0  0  0  0
   -6.2207   -0.0994    1.8715 C   0  0  0  0  0  0  0  0  0  0  0  0
   -6.5579    0.3386    0.5925 C   0  0  0  0  0  0  0  0  0  0  0  0
   -7.7022    1.6805    0.4995 S   0  0  0  0  0  0  0  0  0  0  0  0
   -7.9736    1.9058   -1.2805 C   0  0  0  0  0  0  0  0  0  0  0  0
   -5.9872   -0.2826   -0.5108 C   0  0  0  0  0  0  0  0  0  0  0  0
   -5.0835   -1.3112   -0.3369 C   0  0  0  0  0  0  0  0  0  0  0  0
   -3.6832   -3.8444    0.2378 C   0  0  0  0  0  0  0  0  0  0  0  0
   -2.4441   -4.4386    0.0174 C   0  0  0  0  0  0  0  0  0  0  0  0
   -2.3236   -5.5362   -0.8104 C   0  0  0  0  0  0  0  0  0  0  0  0
   -3.4451   -6.0499   -1.4472 C   0  0  0  0  0  0  0  0  0  0  0  0
   -3.4197   -7.4400   -2.5295 S   0  0  0  0  0  0  0  0  0  0  0  0
   -1.7349   -8.0899   -2.3615 C   0  0  0  0  0  0  0  0  0  0  0  0
   -4.6856   -5.4488   -1.2385 C   0  0  0  0  0  0  0  0  0  0  0  0
   -4.8083   -4.3644   -0.3996 C   0  0  0  0  0  0  0  0  0  0  0  0
   -2.9066   -3.9112    3.1137 C   0  0  0  0  0  0  0  0  0  0  0  0
   -3.5456   -5.5108    3.0942 S   0  0  0  0  0  0  0  0  0  0  0  0
   -1.8893   -0.5835    1.9851 C   0  0  0  0  0  0  0  0  0  0  0  0
   -1.1853    0.5713    2.3558 C   0  0  0  0  0  0  0  0  0  0  0  0
   -0.9948    1.0193    3.6387 N   0  0  0  0  0  0  0  0  0  0  0  0
    0.0551    1.9556    3.8780 C   0  0  0  0  0  0  0  0  0  0  0  0
   -0.2014    3.3170    3.7975 C   0  0  0  0  0  0  0  0  0  0  0  0
    0.8087    4.2351    4.0183 C   0  0  0  0  0  0  0  0  0  0  0  0
    2.0809    3.7931    4.3556 C   0  0  0  0  0  0  0  0  0  0  0  0
    3.4666    4.8503    4.6098 S   0  0  0  0  0  0  0  0  0  0  0  0
    2.8267    6.5111    4.2751 C   0  0  0  0  0  0  0  0  0  0  0  0
    2.3194    2.4248    4.4927 C   0  0  0  0  0  0  0  0  0  0  0  0
    1.3220    1.5101    4.2359 C   0  0  0  0  0  0  0  0  0  0  0  0
   -1.8775    0.7795    4.6955 C   0  0  0  0  0  0  0  0  0  0  0  0
   -3.2343    0.5376    4.4818 C   0  0  0  0  0  0  0  0  0  0  0  0
   -4.0708    0.2434    5.5390 C   0  0  0  0  0  0  0  0  0  0  0  0
   -3.5723    0.2041    6.8345 C   0  0  0  0  0  0  0  0  0  0  0  0
   -4.5688   -0.1863    8.2387 S   0  0  0  0  0  0  0  0  0  0  0  0
   -5.7908   -1.3403    7.5557 C   0  0  0  0  0  0  0  0  0  0  0  0
   -2.2366    0.5185    7.0605 C   0  0  0  0  0  0  0  0  0  0  0  0
   -1.3979    0.8029    6.0071 C   0  0  0  0  0  0  0  0  0  0  0  0
   -0.6897    1.2354    1.2082 C   0  0  0  0  0  0  0  0  0  0  0  0
    0.3535    2.5886    0.9024 S   0  0  0  0  0  0  0  0  0  0  0  0
    0.2222    2.3505   -0.8403 C   0  0  0  0  0  0  0  0  0  0  0  0
   -0.6814    1.3376   -1.1520 C   0  0  0  0  0  0  0  0  0  0  0  0
   -1.0947    0.9159   -2.4126 N   0  0  0  0  0  0  0  0  0  0  0  0
   -0.9602   -0.4610   -2.6713 C   0  0  0  0  0  0  0  0  0  0  0  0
   -2.0159   -1.2252   -3.1673 C   0  0  0  0  0  0  0  0  0  0  0  0
   -1.8280   -2.5609   -3.4467 C   0  0  0  0  0  0  0  0  0  0  0  0
   -0.5856   -3.1570   -3.2361 C   0  0  0  0  0  0  0  0  0  0  0  0
   -0.4203   -4.8445   -3.7140 S   0  0  0  0  0  0  0  0  0  0  0  0
    1.3771   -5.1134   -3.7065 C   0  0  0  0  0  0  0  0  0  0  0  0
    0.4501   -2.4127   -2.6886 C   0  0  0  0  0  0  0  0  0  0  0  0
    0.2606   -1.0747   -2.4101 C   0  0  0  0  0  0  0  0  0  0  0  0
   -1.7858    1.7558   -3.2801 C   0  0  0  0  0  0  0  0  0  0  0  0
   -2.3624    2.9449   -2.8352 C   0  0  0  0  0  0  0  0  0  0  0  0
   -2.9535    3.8230   -3.7249 C   0  0  0  0  0  0  0  0  0  0  0  0
   -2.9893    3.5265   -5.0797 C   0  0  0  0  0  0  0  0  0  0  0  0
   -3.6528    4.5819   -6.3278 S   0  0  0  0  0  0  0  0  0  0  0  0
   -4.0584    6.1108   -5.4439 C   0  0  0  0  0  0  0  0  0  0  0  0
   -2.4633    2.3124   -5.5208 C   0  0  0  0  0  0  0  0  0  0  0  0
   -1.8703    1.4424   -4.6396 C   0  0  0  0  0  0  0  0  0  0  0  0
   -1.1147    0.6783    0.0123 C   0  0  0  0  0  0  0  0  0  0  0  0
   -2.0912   -0.7159    0.2351 S   0  0  0  0  0  0  0  0  0  0  0  0
    1.0512    3.0808   -1.7260 C   0  0  0  0  0  0  0  0  0  0  0  0
    2.3004    3.6411   -1.4458 C   0  0  0  0  0  0  0  0  0  0  0  0
    2.9929    3.4783   -0.2458 N   0  0  0  0  0  0  0  0  0  0  0  0
    3.2544    2.1796    0.2028 C   0  0  0  0  0  0  0  0  0  0  0  0
    3.5216    1.9310    1.5467 C   0  0  0  0  0  0  0  0  0  0  0  0
    3.7284    0.6450    2.0019 C   0  0  0  0  0  0  0  0  0  0  0  0
    3.6562   -0.4297    1.1275 C   0  0  0  0  0  0  0  0  0  0  0  0
    3.8464   -2.1119    1.6342 S   0  0  0  0  0  0  0  0  0  0  0  0
    4.7094   -1.9724    3.2254 C   0  0  0  0  0  0  0  0  0  0  0  0
    3.3998   -0.1890   -0.2195 C   0  0  0  0  0  0  0  0  0  0  0  0
    3.2115    1.0959   -0.6787 C   0  0  0  0  0  0  0  0  0  0  0  0
    3.5748    4.6188    0.3163 C   0  0  0  0  0  0  0  0  0  0  0  0
    2.8961    5.8323    0.2246 C   0  0  0  0  0  0  0  0  0  0  0  0
    3.4374    6.9889    0.7490 C   0  0  0  0  0  0  0  0  0  0  0  0
    4.6714    6.9500    1.3833 C   0  0  0  0  0  0  0  0  0  0  0  0
    5.4249    8.3620    2.1351 S   0  0  0  0  0  0  0  0  0  0  0  0
    4.6126    9.7575    1.3021 C   0  0  0  0  0  0  0  0  0  0  0  0
    5.3560    5.7410    1.4750 C   0  0  0  0  0  0  0  0  0  0  0  0
    4.8228    4.5903    0.9389 C   0  0  0  0  0  0  0  0  0  0  0  0
    2.8622    4.2420   -2.5868 C   0  0  0  0  0  0  0  0  0  0  0  0
    4.3557    5.0206   -2.9626 S   0  0  0  0  0  0  0  0  0  0  0  0
    3.9496    5.0649   -4.6821 C   0  0  0  0  0  0  0  0  0  0  0  0
    2.6827    4.5263   -4.9219 C   0  0  0  0  0  0  0  0  0  0  0  0
    2.1269    4.1825   -6.1770 N   0  0  0  0  0  0  0  0  0  0  0  0
    2.0011    2.7777   -6.3001 C   0  0  0  0  0  0  0  0  0  0  0  0
    3.0681    1.9760   -5.8843 C   0  0  0  0  0  0  0  0  0  0  0  0
    2.9403    0.6066   -5.8384 C   0  0  0  0  0  0  0  0  0  0  0  0
    1.7535   -0.0068   -6.2350 C   0  0  0  0  0  0  0  0  0  0  0  0
    1.6652   -1.7592   -6.0392 S   0  0  0  0  0  0  0  0  0  0  0  0
    0.0004   -2.1948   -6.6137 C   0  0  0  0  0  0  0  0  0  0  0  0
    0.7227    0.7788   -6.7288 C   0  0  0  0  0  0  0  0  0  0  0  0
    0.8391    2.1564   -6.7450 C   0  0  0  0  0  0  0  0  0  0  0  0
    1.1073    5.0015   -6.6981 C   0  0  0  0  0  0  0  0  0  0  0  0
    0.7927    4.9230   -8.0550 C   0  0  0  0  0  0  0  0  0  0  0  0
   -0.2142    5.6983   -8.5906 C   0  0  0  0  0  0  0  0  0  0  0  0
   -0.9096    6.5940   -7.7853 C   0  0  0  0  0  0  0  0  0  0  0  0
   -2.1999    7.6301   -8.3899 S   0  0  0  0  0  0  0  0  0  0  0  0
   -1.6890    7.9188  -10.1073 C   0  0  0  0  0  0  0  0  0  0  0  0
   -0.5930    6.6812   -6.4347 C   0  0  0  0  0  0  0  0  0  0  0  0
    0.3953    5.8890   -5.8919 C   0  0  0  0  0  0  0  0  0  0  0  0
    2.0948    4.0751   -3.7333 C   0  0  0  0  0  0  0  0  0  0  0  0
    0.6284    3.2207   -3.4247 S   0  0  0  0  0  0  0  0  0  0  0  0
    4.9894    5.3381   -5.5898 C   0  0  0  0  0  0  0  0  0  0  0  0
    4.9145    5.6267   -6.9248 C   0  0  0  0  0  0  0  0  0  0  0  0
    6.0447    5.2694   -7.8176 C   0  0  0  0  0  0  0  0  0  0  0  0
    7.1473    4.9038   -7.4854 O   0  0  0  0  0  0  0  0  0  0  0  0
    5.5016    5.4102   -9.1914 C   0  0  0  0  0  0  0  0  0  0  0  0
    4.2028    5.9495   -9.1250 C   0  0  0  0  0  0  0  0  0  0  0  0
    3.4656    6.1436  -10.2799 C   0  0  0  0  0  0  0  0  0  0  0  0
    4.0406    5.8038  -11.4961 C   0  0  0  0  0  0  0  0  0  0  0  0
    5.3262    5.2896  -11.5616 C   0  0  0  0  0  0  0  0  0  0  0  0
    6.0567    4.8595  -13.2508 Br  0  0  0  0  0  0  0  0  0  0  0  0
    6.0854    5.0810  -10.4036 C   0  0  0  0  0  0  0  0  0  0  0  0
    7.6715    4.4429  -10.4834 Cl  0  0  0  0  0  0  0  0  0  0  0  0
    3.8816    6.2175   -7.7255 C   0  0  0  0  0  0  0  0  0  0  0  0
    2.9398    7.1169   -7.2848 C   0  0  0  0  0  0  0  0  0  0  0  0
    2.8432    7.5037   -5.9343 C   0  0  0  0  0  0  0  0  0  0  0  0
    2.7764    7.8603   -4.8449 N   0  0  0  0  0  0  0  0  0  0  0  0
    2.0917    7.8330   -8.1454 C   0  0  0  0  0  0  0  0  0  0  0  0
    1.3973    8.4440   -8.8270 N   0  0  0  0  0  0  0  0  0  0  0  0
   -3.8622   -7.6029    4.9921 H   0  0  0  0  0  0  0  0  0  0  0  0
    1.5982   -7.8373    8.1321 H   0  0  0  0  0  0  0  0  0  0  0  0
    1.4936   -9.0014   10.3038 H   0  0  0  0  0  0  0  0  0  0  0  0
   -3.4626   -5.6995    7.1734 H   0  0  0  0  0  0  0  0  0  0  0  0
   -4.7040   -4.7853    9.0797 H   0  0  0  0  0  0  0  0  0  0  0  0
   -2.3503   -1.6025   11.8338 H   0  0  0  0  0  0  0  0  0  0  0  0
   -3.9101   -0.9461   12.3769 H   0  0  0  0  0  0  0  0  0  0  0  0
   -3.2909   -0.4929   10.7740 H   0  0  0  0  0  0  0  0  0  0  0  0
   -1.7088   -1.7755    9.5840 H   0  0  0  0  0  0  0  0  0  0  0  0
   -0.4857   -2.6727    7.6808 H   0  0  0  0  0  0  0  0  0  0  0  0
    0.3608   -4.3272    4.0301 H   0  0  0  0  0  0  0  0  0  0  0  0
    2.7855   -4.1964    3.9795 H   0  0  0  0  0  0  0  0  0  0  0  0
    5.2229   -5.4662    8.1234 H   0  0  0  0  0  0  0  0  0  0  0  0
    6.3426   -5.9961    6.8506 H   0  0  0  0  0  0  0  0  0  0  0  0
    4.6863   -6.6558    6.8881 H   0  0  0  0  0  0  0  0  0  0  0  0
    2.9323   -4.9590    8.1832 H   0  0  0  0  0  0  0  0  0  0  0  0
    0.4937   -5.1060    8.2410 H   0  0  0  0  0  0  0  0  0  0  0  0
   -5.0806   -1.4733    3.0402 H   0  0  0  0  0  0  0  0  0  0  0  0
   -6.6773    0.3787    2.7250 H   0  0  0  0  0  0  0  0  0  0  0  0
   -8.7077    2.7012   -1.3641 H   0  0  0  0  0  0  0  0  0  0  0  0
   -8.3699    0.9919   -1.7132 H   0  0  0  0  0  0  0  0  0  0  0  0
   -7.0488    2.2053   -1.7655 H   0  0  0  0  0  0  0  0  0  0  0  0
   -6.2264    0.0332   -1.5134 H   0  0  0  0  0  0  0  0  0  0  0  0
   -4.6256   -1.7763   -1.1966 H   0  0  0  0  0  0  0  0  0  0  0  0
   -1.5650   -4.0350    0.4982 H   0  0  0  0  0  0  0  0  0  0  0  0
   -1.3506   -5.9745   -0.9533 H   0  0  0  0  0  0  0  0  0  0  0  0
   -1.0261   -7.3807   -2.7785 H   0  0  0  0  0  0  0  0  0  0  0  0
   -1.5253   -8.2989   -1.3168 H   0  0  0  0  0  0  0  0  0  0  0  0
   -1.7180   -9.0110   -2.9357 H   0  0  0  0  0  0  0  0  0  0  0  0
   -5.5547   -5.8567   -1.7315 H   0  0  0  0  0  0  0  0  0  0  0  0
   -5.7778   -3.9234   -0.2231 H   0  0  0  0  0  0  0  0  0  0  0  0
   -1.1952    3.6579    3.5476 H   0  0  0  0  0  0  0  0  0  0  0  0
    0.5901    5.2861    3.9259 H   0  0  0  0  0  0  0  0  0  0  0  0
    2.4272    6.5506    3.2658 H   0  0  0  0  0  0  0  0  0  0  0  0
    3.6844    7.1724    4.3554 H   0  0  0  0  0  0  0  0  0  0  0  0
    2.0790    6.7794    5.0159 H   0  0  0  0  0  0  0  0  0  0  0  0
    3.3028    2.0994    4.7956 H   0  0  0  0  0  0  0  0  0  0  0  0
    1.5080    0.4493    4.3156 H   0  0  0  0  0  0  0  0  0  0  0  0
   -3.6407    0.5847    3.4825 H   0  0  0  0  0  0  0  0  0  0  0  0
   -5.1160    0.0577    5.3460 H   0  0  0  0  0  0  0  0  0  0  0  0
   -6.2243   -1.8508    8.4100 H   0  0  0  0  0  0  0  0  0  0  0  0
   -6.5641   -0.8023    7.0150 H   0  0  0  0  0  0  0  0  0  0  0  0
   -5.2822   -2.0548    6.9151 H   0  0  0  0  0  0  0  0  0  0  0  0
   -1.8595    0.5255    8.0710 H   0  0  0  0  0  0  0  0  0  0  0  0
   -0.3597    1.0265    6.1953 H   0  0  0  0  0  0  0  0  0  0  0  0
   -2.9762   -0.7615   -3.3382 H   0  0  0  0  0  0  0  0  0  0  0  0
   -2.6379   -3.1590   -3.8367 H   0  0  0  0  0  0  0  0  0  0  0  0
    1.8611   -4.3364   -4.2914 H   0  0  0  0  0  0  0  0  0  0  0  0
    1.7518   -5.1342   -2.6870 H   0  0  0  0  0  0  0  0  0  0  0  0
    1.5331   -6.0810   -4.1739 H   0  0  0  0  0  0  0  0  0  0  0  0
    1.4105   -2.8570   -2.4863 H   0  0  0  0  0  0  0  0  0  0  0  0
    1.0695   -0.4909   -1.9965 H   0  0  0  0  0  0  0  0  0  0  0  0
   -2.3361    3.1916   -1.7838 H   0  0  0  0  0  0  0  0  0  0  0  0
   -3.3807    4.7368   -3.3442 H   0  0  0  0  0  0  0  0  0  0  0  0
   -3.1915    6.4478   -4.8849 H   0  0  0  0  0  0  0  0  0  0  0  0
   -4.3023    6.8354   -6.2147 H   0  0  0  0  0  0  0  0  0  0  0  0
   -4.9135    5.9519   -4.7929 H   0  0  0  0  0  0  0  0  0  0  0  0
   -2.5169    2.0738   -6.5721 H   0  0  0  0  0  0  0  0  0  0  0  0
   -1.4331    0.5244   -4.9967 H   0  0  0  0  0  0  0  0  0  0  0  0
    3.5498    2.7519    2.2443 H   0  0  0  0  0  0  0  0  0  0  0  0
    3.9328    0.4905    3.0480 H   0  0  0  0  0  0  0  0  0  0  0  0
    5.0667   -2.9689    3.4663 H   0  0  0  0  0  0  0  0  0  0  0  0
    4.0268   -1.6396    4.0023 H   0  0  0  0  0  0  0  0  0  0  0  0
    5.5504   -1.2942    3.1204 H   0  0  0  0  0  0  0  0  0  0  0  0
    3.3647   -1.0223   -0.9048 H   0  0  0  0  0  0  0  0  0  0  0  0
    3.0404    1.2618   -1.7326 H   0  0  0  0  0  0  0  0  0  0  0  0
    1.9292    5.8658   -0.2564 H   0  0  0  0  0  0  0  0  0  0  0  0
    2.8835    7.9105    0.6648 H   0  0  0  0  0  0  0  0  0  0  0  0
    3.6015    9.8894    1.6772 H   0  0  0  0  0  0  0  0  0  0  0  0
    4.6165    9.5883    0.2297 H   0  0  0  0  0  0  0  0  0  0  0  0
    5.2082   10.6324    1.5428 H   0  0  0  0  0  0  0  0  0  0  0  0
    6.3182    5.7184    1.9621 H   0  0  0  0  0  0  0  0  0  0  0  0
    5.3805    3.6682    0.9859 H   0  0  0  0  0  0  0  0  0  0  0  0
    3.9951    2.4345   -5.5743 H   0  0  0  0  0  0  0  0  0  0  0  0
    3.7576   -0.0039   -5.4860 H   0  0  0  0  0  0  0  0  0  0  0  0
   -0.1125   -1.9298   -7.6607 H   0  0  0  0  0  0  0  0  0  0  0  0
   -0.0799   -3.2713   -6.4964 H   0  0  0  0  0  0  0  0  0  0  0  0
   -0.7465   -1.7070   -5.9936 H   0  0  0  0  0  0  0  0  0  0  0  0
   -0.1933    0.3365   -7.0856 H   0  0  0  0  0  0  0  0  0  0  0  0
   -0.0003    2.7485   -7.0744 H   0  0  0  0  0  0  0  0  0  0  0  0
    1.3450    4.2403   -8.6851 H   0  0  0  0  0  0  0  0  0  0  0  0
   -0.4491    5.6058   -9.6390 H   0  0  0  0  0  0  0  0  0  0  0  0
   -0.6321    8.1687  -10.1107 H   0  0  0  0  0  0  0  0  0  0  0  0
   -1.9004    7.0472  -10.7201 H   0  0  0  0  0  0  0  0  0  0  0  0
   -2.2762    8.7625  -10.4555 H   0  0  0  0  0  0  0  0  0  0  0  0
   -1.1240    7.3858   -5.8139 H   0  0  0  0  0  0  0  0  0  0  0  0
    0.6200    5.9681   -4.8398 H   0  0  0  0  0  0  0  0  0  0  0  0
    5.9927    5.1613   -5.2139 H   0  0  0  0  0  0  0  0  0  0  0  0
    2.4635    6.5382  -10.2487 H   0  0  0  0  0  0  0  0  0  0  0  0
    3.4859    5.9412  -12.4115 H   0  0  0  0  0  0  0  0  0  0  0  0
  1  2  2  0  0  0  0
  2  3  1  0  0  0  0
  3  4  2  0  0  0  0
  3  5  1  0  0  0  0
  5  6  2  0  0  0  0
  6  7  1  0  0  0  0
  7  8  2  0  0  0  0
  8  9  1  0  0  0  0
  9 10  1  0  0  0  0
  9 11  2  0  0  0  0
 11 12  1  0  0  0  0
  6 13  1  0  0  0  0
 13 14  2  0  0  0  0
 14 15  1  0  0  0  0
 15 16  3  0  0  0  0
 14 17  1  0  0  0  0
 17 18  3  0  0  0  0
  1 19  1  0  0  0  0
 19 20  2  0  0  0  0
 20 21  1  0  0  0  0
 21 22  1  0  0  0  0
 22 23  2  0  0  0  0
 23 24  1  0  0  0  0
 24 25  2  0  0  0  0
 25 26  1  0  0  0  0
 26 27  1  0  0  0  0
 25 28  1  0  0  0  0
 28 29  2  0  0  0  0
 21 30  1  0  0  0  0
 30 31  2  0  0  0  0
 31 32  1  0  0  0  0
 32 33  2  0  0  0  0
 33 34  1  0  0  0  0
 34 35  1  0  0  0  0
 33 36  1  0  0  0  0
 36 37  2  0  0  0  0
 20 38  1  0  0  0  0
 38 39  1  0  0  0  0
 39 40  1  0  0  0  0
 40 41  2  0  0  0  0
 41 42  1  0  0  0  0
 42 43  1  0  0  0  0
 43 44  2  0  0  0  0
 44 45  1  0  0  0  0
 45 46  2  0  0  0  0
 46 47  1  0  0  0  0
 47 48  1  0  0  0  0
 46 49  1  0  0  0  0
 49 50  2  0  0  0  0
 42 51  1  0  0  0  0
 51 52  2  0  0  0  0
 52 53  1  0  0  0  0
 53 54  2  0  0  0  0
 54 55  1  0  0  0  0
 55 56  1  0  0  0  0
 54 57  1  0  0  0  0
 57 58  2  0  0  0  0
 41 59  1  0  0  0  0
 59 60  1  0  0  0  0
 40 61  1  0  0  0  0
 61 62  2  0  0  0  0
 62 63  1  0  0  0  0
 63 64  1  0  0  0  0
 64 65  2  0  0  0  0
 65 66  1  0  0  0  0
 66 67  2  0  0  0  0
 67 68  1  0  0  0  0
 68 69  1  0  0  0  0
 67 70  1  0  0  0  0
 70 71  2  0  0  0  0
 63 72  1  0  0  0  0
 72 73  2  0  0  0  0
 73 74  1  0  0  0  0
 74 75  2  0  0  0  0
 75 76  1  0  0  0  0
 76 77  1  0  0  0  0
 75 78  1  0  0  0  0
 78 79  2  0  0  0  0
 62 80  1  0  0  0  0
 80 81  1  0  0  0  0
 81 82  1  0  0  0  0
 82 83  2  0  0  0  0
 83 84  1  0  0  0  0
 84 85  1  0  0  0  0
 85 86  2  0  0  0  0
 86 87  1  0  0  0  0
 87 88  2  0  0  0  0
 88 89  1  0  0  0  0
 89 90  1  0  0  0  0
 88 91  1  0  0  0  0
 91 92  2  0  0  0  0
 84 93  1  0  0  0  0
 93 94  2  0  0  0  0
 94 95  1  0  0  0  0
 95 96  2  0  0  0  0
 96 97  1  0  0  0  0
 97 98  1  0  0  0  0
 96 99  1  0  0  0  0
 99100  2  0  0  0  0
 83101  1  0  0  0  0
101102  1  0  0  0  0
 82103  1  0  0  0  0
103104  2  0  0  0  0
104105  1  0  0  0  0
105106  1  0  0  0  0
106107  2  0  0  0  0
107108  1  0  0  0  0
108109  2  0  0  0  0
109110  1  0  0  0  0
110111  1  0  0  0  0
109112  1  0  0  0  0
112113  2  0  0  0  0
105114  1  0  0  0  0
114115  2  0  0  0  0
115116  1  0  0  0  0
116117  2  0  0  0  0
117118  1  0  0  0  0
118119  1  0  0  0  0
117120  1  0  0  0  0
120121  2  0  0  0  0
104122  1  0  0  0  0
122123  1  0  0  0  0
123124  1  0  0  0  0
124125  2  0  0  0  0
125126  1  0  0  0  0
126127  1  0  0  0  0
127128  2  0  0  0  0
128129  1  0  0  0  0
129130  2  0  0  0  0
130131  1  0  0  0  0
131132  1  0  0  0  0
130133  1  0  0  0  0
133134  2  0  0  0  0
126135  1  0  0  0  0
135136  2  0  0  0  0
136137  1  0  0  0  0
137138  2  0  0  0  0
138139  1  0  0  0  0
139140  1  0  0  0  0
138141  1  0  0  0  0
141142  2  0  0  0  0
125143  1  0  0  0  0
143144  1  0  0  0  0
124145  1  0  0  0  0
145146  2  0  0  0  0
146147  1  0  0  0  0
147148  2  0  0  0  0
147149  1  0  0  0  0
149150  2  0  0  0  0
150151  1  0  0  0  0
151152  2  0  0  0  0
152153  1  0  0  0  0
153154  1  0  0  0  0
153155  2  0  0  0  0
155156  1  0  0  0  0
150157  1  0  0  0  0
157158  2  0  0  0  0
158159  1  0  0  0  0
159160  3  0  0  0  0
158161  1  0  0  0  0
161162  3  0  0  0  0
 13  2  1  0  0  0  0
 60 19  1  0  0  0  0
102 61  1  0  0  0  0
144103  1  0  0  0  0
157146  1  0  0  0  0
 11  5  1  0  0  0  0
 29 22  1  0  0  0  0
 37 30  1  0  0  0  0
 59 38  2  0  0  0  0
 71 64  1  0  0  0  0
 79 72  1  0  0  0  0
101 80  2  0  0  0  0
113106  1  0  0  0  0
121114  1  0  0  0  0
143122  2  0  0  0  0
155149  1  0  0  0  0
 50 43  1  0  0  0  0
 58 51  1  0  0  0  0
 92 85  1  0  0  0  0
100 93  1  0  0  0  0
134127  1  0  0  0  0
142135  1  0  0  0  0
  1163  1  0  0  0  0
  7164  1  0  0  0  0
  8165  1  0  0  0  0
 23166  1  0  0  0  0
 24167  1  0  0  0  0
 27168  1  0  0  0  0
 27169  1  0  0  0  0
 27170  1  0  0  0  0
 28171  1  0  0  0  0
 29172  1  0  0  0  0
 31173  1  0  0  0  0
 32174  1  0  0  0  0
 35175  1  0  0  0  0
 35176  1  0  0  0  0
 35177  1  0  0  0  0
 36178  1  0  0  0  0
 37179  1  0  0  0  0
 44180  1  0  0  0  0
 45181  1  0  0  0  0
 48182  1  0  0  0  0
 48183  1  0  0  0  0
 48184  1  0  0  0  0
 49185  1  0  0  0  0
 50186  1  0  0  0  0
 52187  1  0  0  0  0
 53188  1  0  0  0  0
 56189  1  0  0  0  0
 56190  1  0  0  0  0
 56191  1  0  0  0  0
 57192  1  0  0  0  0
 58193  1  0  0  0  0
 65194  1  0  0  0  0
 66195  1  0  0  0  0
 69196  1  0  0  0  0
 69197  1  0  0  0  0
 69198  1  0  0  0  0
 70199  1  0  0  0  0
 71200  1  0  0  0  0
 73201  1  0  0  0  0
 74202  1  0  0  0  0
 77203  1  0  0  0  0
 77204  1  0  0  0  0
 77205  1  0  0  0  0
 78206  1  0  0  0  0
 79207  1  0  0  0  0
 86208  1  0  0  0  0
 87209  1  0  0  0  0
 90210  1  0  0  0  0
 90211  1  0  0  0  0
 90212  1  0  0  0  0
 91213  1  0  0  0  0
 92214  1  0  0  0  0
 94215  1  0  0  0  0
 95216  1  0  0  0  0
 98217  1  0  0  0  0
 98218  1  0  0  0  0
 98219  1  0  0  0  0
 99220  1  0  0  0  0
100221  1  0  0  0  0
107222  1  0  0  0  0
108223  1  0  0  0  0
111224  1  0  0  0  0
111225  1  0  0  0  0
111226  1  0  0  0  0
112227  1  0  0  0  0
113228  1  0  0  0  0
115229  1  0  0  0  0
116230  1  0  0  0  0
119231  1  0  0  0  0
119232  1  0  0  0  0
119233  1  0  0  0  0
120234  1  0  0  0  0
121235  1  0  0  0  0
128236  1  0  0  0  0
129237  1  0  0  0  0
132238  1  0  0  0  0
132239  1  0  0  0  0
132240  1  0  0  0  0
133241  1  0  0  0  0
134242  1  0  0  0  0
136243  1  0  0  0  0
137244  1  0  0  0  0
140245  1  0  0  0  0
140246  1  0  0  0  0
140247  1  0  0  0  0
141248  1  0  0  0  0
142249  1  0  0  0  0
145250  1  0  0  0  0
151251  1  0  0  0  0
152252  1  0  0  0  0
M  END
