
  xtb     02032222363D
 energy: -205.013364429828 gnorm: 0.000286396253 xtb: 6.4.1 (unknown)
105116  0     0  0            999 V2000
    2.8766   -2.4773   -6.1185 C   0  0  0  0  0  0  0  0  0  0  0  0
    2.0110   -2.0655   -7.0758 C   0  0  0  0  0  0  0  0  0  0  0  0
    0.8376   -1.1821   -6.8105 C   0  0  0  0  0  0  0  0  0  0  0  0
    0.7184   -0.3560   -5.9378 O   0  0  0  0  0  0  0  0  0  0  0  0
   -0.0385   -1.3581   -7.9921 C   0  0  0  0  0  0  0  0  0  0  0  0
    0.6651   -2.0523   -8.9934 C   0  0  0  0  0  0  0  0  0  0  0  0
    0.0571   -2.3071  -10.2141 C   0  0  0  0  0  0  0  0  0  0  0  0
   -1.2469   -1.8785  -10.4086 C   0  0  0  0  0  0  0  0  0  0  0  0
   -1.9390   -1.2023   -9.4137 C   0  0  0  0  0  0  0  0  0  0  0  0
   -3.7230   -0.6677   -9.7305 Br  0  0  0  0  0  0  0  0  0  0  0  0
   -1.3367   -0.9190   -8.1844 C   0  0  0  0  0  0  0  0  0  0  0  0
   -2.1753   -0.0811   -6.9493 Cl  0  0  0  0  0  0  0  0  0  0  0  0
    1.9888   -2.4104   -8.4852 C   0  0  0  0  0  0  0  0  0  0  0  0
    2.9994   -2.9800   -9.2097 C   0  0  0  0  0  0  0  0  0  0  0  0
    4.2747   -3.2890   -8.6885 C   0  0  0  0  0  0  0  0  0  0  0  0
    5.3294   -3.5594   -8.3263 N   0  0  0  0  0  0  0  0  0  0  0  0
    2.9091   -3.2985  -10.5813 C   0  0  0  0  0  0  0  0  0  0  0  0
    2.8914   -3.5759  -11.6948 N   0  0  0  0  0  0  0  0  0  0  0  0
    2.5726   -2.3615   -4.7195 C   0  0  0  0  0  0  0  0  0  0  0  0
    1.2546   -2.5309   -4.2561 C   0  0  0  0  0  0  0  0  0  0  0  0
    0.1933   -2.8463   -5.0483 N   0  0  0  0  0  0  0  0  0  0  0  0
   -0.9104   -2.9014   -4.4053 C   0  0  0  0  0  0  0  0  0  0  0  0
   -2.2246   -3.2132   -5.0169 C   0  0  0  0  0  0  0  0  0  0  0  0
   -2.9049   -4.3965   -4.3303 C   0  0  0  0  0  0  0  0  0  0  0  0
   -0.7769   -2.5785   -2.6768 S   0  0  0  0  0  0  0  0  0  0  0  0
    0.9379   -2.3783   -2.8893 C   0  0  0  0  0  0  0  0  0  0  0  0
    1.8859   -2.0456   -1.9259 C   0  0  0  0  0  0  0  0  0  0  0  0
    3.2111   -1.9646   -2.3684 C   0  0  0  0  0  0  0  0  0  0  0  0
    3.5352   -2.1353   -3.7383 C   0  0  0  0  0  0  0  0  0  0  0  0
    5.2375   -1.9330   -3.9644 S   0  0  0  0  0  0  0  0  0  0  0  0
    5.3857   -1.6881   -2.2092 C   0  0  0  0  0  0  0  0  0  0  0  0
    6.7175   -1.4517   -1.6042 C   0  0  0  0  0  0  0  0  0  0  0  0
    7.7009   -2.5724   -1.9398 C   0  0  0  0  0  0  0  0  0  0  0  0
    4.2878   -1.7377   -1.5669 N   0  0  0  0  0  0  0  0  0  0  0  0
    1.5012   -1.7030   -0.5614 C   0  0  0  0  0  0  0  0  0  0  0  0
    0.5951   -2.4397    0.1695 C   0  0  0  0  0  0  0  0  0  0  0  0
    0.1254   -2.0217    1.4206 C   0  0  0  0  0  0  0  0  0  0  0  0
    0.5335   -0.8429    2.0056 C   0  0  0  0  0  0  0  0  0  0  0  0
    1.4975   -0.0763    1.3080 C   0  0  0  0  0  0  0  0  0  0  0  0
    2.0049    1.1045    1.6591 N   0  0  0  0  0  0  0  0  0  0  0  0
    3.0005    1.6012    0.5034 S   0  0  0  0  0  0  0  0  0  0  0  0
    2.8277    0.3720   -0.5118 N   0  0  0  0  0  0  0  0  0  0  0  0
    1.9836   -0.5085    0.0236 C   0  0  0  0  0  0  0  0  0  0  0  0
   -0.0519   -0.3195    3.2342 C   0  0  0  0  0  0  0  0  0  0  0  0
    0.7340    0.2750    4.2291 C   0  0  0  0  0  0  0  0  0  0  0  0
    2.0947    0.2688    4.2521 N   0  0  0  0  0  0  0  0  0  0  0  0
    2.5792    0.9025    5.2432 C   0  0  0  0  0  0  0  0  0  0  0  0
    4.0231    1.1125    5.4979 C   0  0  0  0  0  0  0  0  0  0  0  0
    4.4308    2.5289    5.0840 C   0  0  0  0  0  0  0  0  0  0  0  0
    1.3715    1.6190    6.3341 S   0  0  0  0  0  0  0  0  0  0  0  0
    0.1381    0.9449    5.3257 C   0  0  0  0  0  0  0  0  0  0  0  0
   -1.2436    1.0759    5.4735 C   0  0  0  0  0  0  0  0  0  0  0  0
   -2.0270    0.3813    4.5337 C   0  0  0  0  0  0  0  0  0  0  0  0
   -1.4271   -0.2936    3.4452 C   0  0  0  0  0  0  0  0  0  0  0  0
   -2.6729   -0.9739    2.4430 S   0  0  0  0  0  0  0  0  0  0  0  0
   -3.8668   -0.3641    3.5919 C   0  0  0  0  0  0  0  0  0  0  0  0
   -5.3113   -0.6211    3.3797 C   0  0  0  0  0  0  0  0  0  0  0  0
   -5.6083   -2.1140    3.2438 C   0  0  0  0  0  0  0  0  0  0  0  0
   -3.3813    0.2821    4.5808 N   0  0  0  0  0  0  0  0  0  0  0  0
   -1.8293    1.8407    6.5338 C   0  0  0  0  0  0  0  0  0  0  0  0
   -2.9536    2.5925    6.4017 C   0  0  0  0  0  0  0  0  0  0  0  0
   -3.5263    3.0289    5.0993 C   0  0  0  0  0  0  0  0  0  0  0  0
   -3.0819    2.8634    3.9868 O   0  0  0  0  0  0  0  0  0  0  0  0
   -4.6962    3.8641    5.4502 C   0  0  0  0  0  0  0  0  0  0  0  0
   -5.5872    4.4827    4.5979 C   0  0  0  0  0  0  0  0  0  0  0  0
   -6.6129    5.2420    5.1485 C   0  0  0  0  0  0  0  0  0  0  0  0
   -7.7502    6.0161    4.1198 Cl  0  0  0  0  0  0  0  0  0  0  0  0
   -6.7106    5.3718    6.5371 C   0  0  0  0  0  0  0  0  0  0  0  0
   -8.1004    6.4126    7.2860 Br  0  0  0  0  0  0  0  0  0  0  0  0
   -5.8079    4.7558    7.3944 C   0  0  0  0  0  0  0  0  0  0  0  0
   -4.7902    3.9904    6.8463 C   0  0  0  0  0  0  0  0  0  0  0  0
   -3.7135    3.2231    7.4673 C   0  0  0  0  0  0  0  0  0  0  0  0
   -3.5110    3.0829    8.8135 C   0  0  0  0  0  0  0  0  0  0  0  0
   -2.4972    2.3010    9.4088 C   0  0  0  0  0  0  0  0  0  0  0  0
   -1.7098    1.6844    9.9721 N   0  0  0  0  0  0  0  0  0  0  0  0
   -4.3046    3.7057    9.8012 C   0  0  0  0  0  0  0  0  0  0  0  0
   -4.9106    4.1887   10.6474 N   0  0  0  0  0  0  0  0  0  0  0  0
    3.8106   -2.9604   -6.3752 H   0  0  0  0  0  0  0  0  0  0  0  0
    0.5676   -2.8318  -11.0044 H   0  0  0  0  0  0  0  0  0  0  0  0
   -1.7412   -2.0734  -11.3479 H   0  0  0  0  0  0  0  0  0  0  0  0
   -2.8678   -2.3325   -4.9366 H   0  0  0  0  0  0  0  0  0  0  0  0
   -2.0620   -3.4253   -6.0755 H   0  0  0  0  0  0  0  0  0  0  0  0
   -3.8625   -4.5984   -4.8024 H   0  0  0  0  0  0  0  0  0  0  0  0
   -3.0741   -4.1789   -3.2782 H   0  0  0  0  0  0  0  0  0  0  0  0
   -2.2853   -5.2870   -4.4065 H   0  0  0  0  0  0  0  0  0  0  0  0
    6.5839   -1.3673   -0.5247 H   0  0  0  0  0  0  0  0  0  0  0  0
    7.1103   -0.5029   -1.9802 H   0  0  0  0  0  0  0  0  0  0  0  0
    7.3330   -3.5248   -1.5658 H   0  0  0  0  0  0  0  0  0  0  0  0
    7.8362   -2.6506   -3.0162 H   0  0  0  0  0  0  0  0  0  0  0  0
    8.6657   -2.3696   -1.4828 H   0  0  0  0  0  0  0  0  0  0  0  0
    0.2294   -3.3737   -0.2299 H   0  0  0  0  0  0  0  0  0  0  0  0
   -0.5824   -2.6511    1.9387 H   0  0  0  0  0  0  0  0  0  0  0  0
    4.2345    0.9663    6.5591 H   0  0  0  0  0  0  0  0  0  0  0  0
    4.5819    0.3790    4.9153 H   0  0  0  0  0  0  0  0  0  0  0  0
    4.2112    2.6877    4.0310 H   0  0  0  0  0  0  0  0  0  0  0  0
    3.8860    3.2664    5.6692 H   0  0  0  0  0  0  0  0  0  0  0  0
    5.4955    2.6723    5.2475 H   0  0  0  0  0  0  0  0  0  0  0  0
   -5.8556   -0.1966    4.2248 H   0  0  0  0  0  0  0  0  0  0  0  0
   -5.6287   -0.1052    2.4693 H   0  0  0  0  0  0  0  0  0  0  0  0
   -6.6731   -2.2689    3.0927 H   0  0  0  0  0  0  0  0  0  0  0  0
   -5.0716   -2.5323    2.3952 H   0  0  0  0  0  0  0  0  0  0  0  0
   -5.3046   -2.6443    4.1432 H   0  0  0  0  0  0  0  0  0  0  0  0
   -1.3050    1.8104    7.4813 H   0  0  0  0  0  0  0  0  0  0  0  0
   -5.4888    4.3746    3.5294 H   0  0  0  0  0  0  0  0  0  0  0  0
   -5.9174    4.8887    8.4586 H   0  0  0  0  0  0  0  0  0  0  0  0
  1  2  2  0  0  0  0
  2  3  1  0  0  0  0
  3  4  2  0  0  0  0
  3  5  1  0  0  0  0
  5  6  2  0  0  0  0
  6  7  1  0  0  0  0
  7  8  2  0  0  0  0
  8  9  1  0  0  0  0
  9 10  1  0  0  0  0
  9 11  2  0  0  0  0
 11 12  1  0  0  0  0
  6 13  1  0  0  0  0
 13 14  2  0  0  0  0
 14 15  1  0  0  0  0
 15 16  3  0  0  0  0
 14 17  1  0  0  0  0
 17 18  3  0  0  0  0
  1 19  1  0  0  0  0
 19 20  2  0  0  0  0
 20 21  1  0  0  0  0
 21 22  2  0  0  0  0
 22 23  1  0  0  0  0
 23 24  1  0  0  0  0
 22 25  1  0  0  0  0
 25 26  1  0  0  0  0
 26 27  2  0  0  0  0
 27 28  1  0  0  0  0
 28 29  2  0  0  0  0
 29 30  1  0  0  0  0
 30 31  1  0  0  0  0
 31 32  1  0  0  0  0
 32 33  1  0  0  0  0
 31 34  2  0  0  0  0
 27 35  1  0  0  0  0
 35 36  2  0  0  0  0
 36 37  1  0  0  0  0
 37 38  2  0  0  0  0
 38 39  1  0  0  0  0
 39 40  2  0  0  0  0
 40 41  1  0  0  0  0
 41 42  1  0  0  0  0
 42 43  2  0  0  0  0
 38 44  1  0  0  0  0
 44 45  2  0  0  0  0
 45 46  1  0  0  0  0
 46 47  2  0  0  0  0
 47 48  1  0  0  0  0
 48 49  1  0  0  0  0
 47 50  1  0  0  0  0
 50 51  1  0  0  0  0
 51 52  2  0  0  0  0
 52 53  1  0  0  0  0
 53 54  2  0  0  0  0
 54 55  1  0  0  0  0
 55 56  1  0  0  0  0
 56 57  1  0  0  0  0
 57 58  1  0  0  0  0
 56 59  2  0  0  0  0
 52 60  1  0  0  0  0
 60 61  2  0  0  0  0
 61 62  1  0  0  0  0
 62 63  2  0  0  0  0
 62 64  1  0  0  0  0
 64 65  2  0  0  0  0
 65 66  1  0  0  0  0
 66 67  1  0  0  0  0
 66 68  2  0  0  0  0
 68 69  1  0  0  0  0
 68 70  1  0  0  0  0
 70 71  2  0  0  0  0
 71 72  1  0  0  0  0
 72 73  2  0  0  0  0
 73 74  1  0  0  0  0
 74 75  3  0  0  0  0
 73 76  1  0  0  0  0
 76 77  3  0  0  0  0
 13  2  1  0  0  0  0
 29 19  1  0  0  0  0
 43 35  1  0  0  0  0
 54 44  1  0  0  0  0
 72 61  1  0  0  0  0
 11  5  1  0  0  0  0
 26 20  1  0  0  0  0
 34 28  1  0  0  0  0
 43 39  1  0  0  0  0
 51 45  1  0  0  0  0
 59 53  1  0  0  0  0
 71 64  1  0  0  0  0
  1 78  1  0  0  0  0
  7 79  1  0  0  0  0
  8 80  1  0  0  0  0
 23 81  1  0  0  0  0
 23 82  1  0  0  0  0
 24 83  1  0  0  0  0
 24 84  1  0  0  0  0
 24 85  1  0  0  0  0
 32 86  1  0  0  0  0
 32 87  1  0  0  0  0
 33 88  1  0  0  0  0
 33 89  1  0  0  0  0
 33 90  1  0  0  0  0
 36 91  1  0  0  0  0
 37 92  1  0  0  0  0
 48 93  1  0  0  0  0
 48 94  1  0  0  0  0
 49 95  1  0  0  0  0
 49 96  1  0  0  0  0
 49 97  1  0  0  0  0
 57 98  1  0  0  0  0
 57 99  1  0  0  0  0
 58100  1  0  0  0  0
 58101  1  0  0  0  0
 58102  1  0  0  0  0
 60103  1  0  0  0  0
 65104  1  0  0  0  0
 70105  1  0  0  0  0
M  END
