72

C         -2.80030       -4.92040       -2.66710
C         -4.04960       -5.45830       -2.54780
C         -5.12650       -4.88330       -1.70330
O         -5.07750       -3.89650       -1.00440
C         -6.33310       -5.68250       -2.01450
C         -6.03000       -6.63830       -3.00180
C         -7.02030       -7.48530       -3.47430
C         -8.29920       -7.36930       -2.95020
C         -8.59320       -6.42900       -1.97420
Br       -10.35310       -6.32450       -1.29670
C         -7.60960       -5.55960       -1.48950
Cl        -7.96800       -4.39600       -0.28720
C         -4.61380       -6.52700       -3.34330
C         -3.93100       -7.35050       -4.19950
C         -2.54340       -7.28100       -4.44950
N         -1.42130       -7.30550       -4.68990
C         -4.52340       -8.40140       -4.93110
N         -4.94890       -9.26520       -5.55560
C         -2.20640       -4.02280       -1.74080
C         -2.41020       -4.07180       -0.34510
C         -1.85020       -3.09400        0.56630
N         -2.18570       -3.35980        1.83140
S         -3.07270       -4.69190        1.87130
N         -3.08590       -5.01860        0.30780
C         -1.05280       -2.01500        0.11950
C         -0.77250       -2.02820       -1.26490
N         -0.00620       -1.14420       -1.90650
S          0.03910       -1.51910       -3.46300
N         -0.91460       -2.80590       -3.42430
C         -1.31090       -3.01990       -2.16760
C         -0.57880       -0.98020        0.95980
C         -0.74090       -0.85430        2.34560
N         -0.23350        0.23240        2.88670
C          0.33650        1.01610        2.00080
S          0.28520        0.39380        0.35530
C          0.91220        2.27340        2.29280
C          0.96940        2.81590        3.59640
C          1.52420        4.12990        3.85420
N          1.47880        4.43560        5.15220
S          0.80540        3.21780        5.95020
N          0.54450        2.23610        4.71800
C          2.07860        4.94740        2.84420
C          1.97890        4.41950        1.53890
N          2.30460        5.04310        0.40480
S          2.01440        4.07600       -0.83340
N          1.41800        2.82700       -0.02600
C          1.42450        3.11000        1.27790
C          2.59420        6.23310        3.15260
C          3.58160        6.88160        2.46740
C          4.58220        6.21040        1.60040
O          4.71260        5.02510        1.39760
C          5.49780        7.28730        1.15880
C          5.13140        8.50230        1.76700
C          5.86990        9.64990        1.52420
C          6.95850        9.57060        0.66850
C          7.31100        8.37360        0.06350
Br         8.79590        8.33390       -1.10280
C          6.58580        7.20140        0.30540
Cl         7.01760        5.72140       -0.43660
C          3.94050        8.27830        2.58370
C          3.23880        9.24670        3.25300
C          3.61240       10.60640        3.30340
N          3.86650       11.72260        3.38610
C          2.03490        9.03250        3.95840
N          1.04430        8.95060        4.53250
H         -2.20520       -5.13220       -3.54660
H         -6.82290       -8.22210       -4.23470
H         -9.08480       -8.01890       -3.30410
H         -1.24500       -1.58080        2.95650
H          2.15670        6.69690        4.02790
H          5.62190       10.59300        1.98160
H          7.54540       10.45280        0.46430
