
  xtb     02042207413D
 energy: -278.818114682248 gnorm: 0.000474061544 xtb: 6.4.1 (unknown)
145159  0     0  0            999 V2000
   -3.5419    1.7399   -7.0389 C   0  0  0  0  0  0  0  0  0  0  0  0
   -4.7697    2.3364   -7.2402 C   0  0  0  0  0  0  0  0  0  0  0  0
   -5.8006    2.5418   -6.2178 C   0  0  0  0  0  0  0  0  0  0  0  0
   -5.8143    2.1515   -5.0646 O   0  0  0  0  0  0  0  0  0  0  0  0
   -6.9360    3.1912   -6.9208 C   0  0  0  0  0  0  0  0  0  0  0  0
   -6.6539    3.2567   -8.2968 C   0  0  0  0  0  0  0  0  0  0  0  0
   -7.5858    3.7888   -9.1722 C   0  0  0  0  0  0  0  0  0  0  0  0
   -8.7878    4.2580   -8.6616 C   0  0  0  0  0  0  0  0  0  0  0  0
   -9.0548    4.2093   -7.3030 C   0  0  0  0  0  0  0  0  0  0  0  0
  -10.7025    4.8840   -6.6611 Br  0  0  0  0  0  0  0  0  0  0  0  0
   -8.1271    3.6708   -6.4065 C   0  0  0  0  0  0  0  0  0  0  0  0
   -8.4519    3.6449   -4.7230 Cl  0  0  0  0  0  0  0  0  0  0  0  0
   -5.3061    2.7288   -8.5186 C   0  0  0  0  0  0  0  0  0  0  0  0
   -4.6608    2.7048   -9.7311 C   0  0  0  0  0  0  0  0  0  0  0  0
   -3.3216    2.3144   -9.9403 C   0  0  0  0  0  0  0  0  0  0  0  0
   -2.2368    2.0466  -10.2069 N   0  0  0  0  0  0  0  0  0  0  0  0
   -5.2511    3.0961  -10.9494 C   0  0  0  0  0  0  0  0  0  0  0  0
   -5.6757    3.3927  -11.9747 N   0  0  0  0  0  0  0  0  0  0  0  0
   -2.8540    1.5898   -5.8275 C   0  0  0  0  0  0  0  0  0  0  0  0
   -1.7841    0.6606   -5.7251 C   0  0  0  0  0  0  0  0  0  0  0  0
   -1.0898    0.4114   -4.4873 C   0  0  0  0  0  0  0  0  0  0  0  0
   -0.1252   -0.4952   -4.6282 N   0  0  0  0  0  0  0  0  0  0  0  0
   -0.0916   -0.9927   -6.1616 S   0  0  0  0  0  4  0  0  0  0  0  0
   -1.3040   -0.0902   -6.7124 N   0  0  0  0  0  0  0  0  0  0  0  0
   -1.4384    1.0374   -3.2649 C   0  0  0  0  0  0  0  0  0  0  0  0
   -2.3705    2.0962   -3.4095 C   0  0  0  0  0  0  0  0  0  0  0  0
   -2.6455    3.0149   -2.4847 N   0  0  0  0  0  0  0  0  0  0  0  0
   -3.6182    4.1265   -3.1223 S   0  0  0  0  0  0  0  0  0  0  0  0
   -3.7414    3.5036   -4.5956 N   0  0  0  0  0  0  0  0  0  0  0  0
   -3.0374    2.3792   -4.6619 C   0  0  0  0  0  0  0  0  0  0  0  0
   -0.7865    0.6781   -2.0727 C   0  0  0  0  0  0  0  0  0  0  0  0
   -1.1340    0.9699   -0.7356 C   0  0  0  0  0  0  0  0  0  0  0  0
   -2.3970    1.2995   -0.3220 N   0  0  0  0  0  0  0  0  0  0  0  0
   -3.5011    0.7565   -0.9967 C   0  0  0  0  0  0  0  0  0  0  0  0
   -4.6650    1.4967   -1.1947 C   0  0  0  0  0  0  0  0  0  0  0  0
   -5.7201    0.9736   -1.9142 C   0  0  0  0  0  0  0  0  0  0  0  0
   -5.6393   -0.3125   -2.4374 C   0  0  0  0  0  0  0  0  0  0  0  0
   -6.9119   -1.0913   -3.3582 S   0  0  0  0  0  0  0  0  0  0  0  0
   -8.0282    0.2709   -3.7779 C   0  0  0  0  0  0  0  0  0  0  0  0
   -4.4937   -1.0745   -2.1978 C   0  0  0  0  0  0  0  0  0  0  0  0
   -3.4402   -0.5490   -1.4903 C   0  0  0  0  0  0  0  0  0  0  0  0
   -2.5797    2.1321    0.7830 C   0  0  0  0  0  0  0  0  0  0  0  0
   -1.7008    3.1876    1.0168 C   0  0  0  0  0  0  0  0  0  0  0  0
   -1.8623    4.0098    2.1128 C   0  0  0  0  0  0  0  0  0  0  0  0
   -2.9162    3.7968    2.9935 C   0  0  0  0  0  0  0  0  0  0  0  0
   -3.2196    4.7629    4.4327 S   0  0  0  0  0  0  0  0  0  0  0  0
   -1.7582    5.8305    4.5599 C   0  0  0  0  0  0  0  0  0  0  0  0
   -3.8121    2.7537    2.7482 C   0  0  0  0  0  0  0  0  0  0  0  0
   -3.6449    1.9265    1.6622 C   0  0  0  0  0  0  0  0  0  0  0  0
   -0.0508    0.6924    0.1289 C   0  0  0  0  0  0  0  0  0  0  0  0
    0.2068    0.8330    1.8400 S   0  0  0  0  0  0  0  0  0  0  0  0
    1.8033    0.1445    1.6678 C   0  0  0  0  0  0  0  0  0  0  0  0
    2.0712   -0.2886    0.3706 C   0  0  0  0  0  0  0  0  0  0  0  0
    3.1455   -1.0686   -0.0038 N   0  0  0  0  0  0  0  0  0  0  0  0
    3.5600   -1.0392   -1.3449 C   0  0  0  0  0  0  0  0  0  0  0  0
    3.8139   -2.2241   -2.0342 C   0  0  0  0  0  0  0  0  0  0  0  0
    4.0852   -2.1897   -3.3834 C   0  0  0  0  0  0  0  0  0  0  0  0
    4.1109   -0.9760   -4.0672 C   0  0  0  0  0  0  0  0  0  0  0  0
    4.3532   -1.0366   -5.8140 S   0  0  0  0  0  0  0  0  0  0  0  0
    3.6145    0.5287   -6.3680 C   0  0  0  0  0  0  0  0  0  0  0  0
    3.9463    0.2104   -3.3651 C   0  0  0  0  0  0  0  0  0  0  0  0
    3.6722    0.1771   -2.0126 C   0  0  0  0  0  0  0  0  0  0  0  0
    3.7174   -1.9852    0.8909 C   0  0  0  0  0  0  0  0  0  0  0  0
    2.9251   -2.6983    1.7935 C   0  0  0  0  0  0  0  0  0  0  0  0
    3.5086   -3.5002    2.7467 C   0  0  0  0  0  0  0  0  0  0  0  0
    4.8955   -3.6264    2.8137 C   0  0  0  0  0  0  0  0  0  0  0  0
    5.5355   -4.5990    4.1411 S   0  0  0  0  0  0  0  0  0  0  0  0
    7.2450   -4.9453    3.6338 C   0  0  0  0  0  0  0  0  0  0  0  0
    5.6838   -2.9741    1.8754 C   0  0  0  0  0  0  0  0  0  0  0  0
    5.0973   -2.1639    0.9210 C   0  0  0  0  0  0  0  0  0  0  0  0
    1.0227    0.0790   -0.5035 C   0  0  0  0  0  0  0  0  0  0  0  0
    0.7494   -0.1617   -2.1981 S   0  0  0  0  0  0  0  0  0  0  0  0
    2.6784   -0.0331    2.7942 C   0  0  0  0  0  0  0  0  0  0  0  0
    4.0512    0.1627    2.6889 C   0  0  0  0  0  0  0  0  0  0  0  0
    4.5378    0.7533    1.5788 F   0  0  0  0  0  0  0  0  0  0  0  0
    4.9549   -0.2244    3.6626 C   0  0  0  0  0  0  0  0  0  0  0  0
    4.5174   -0.8466    4.8208 C   0  0  0  0  0  0  0  0  0  0  0  0
    3.1148   -1.0159    5.0052 C   0  0  0  0  0  0  0  0  0  0  0  0
    2.6418   -1.7137    6.0602 N   0  0  0  0  0  0  0  0  0  0  0  0
    1.3625   -1.8245    6.2295 C   0  0  0  0  0  0  0  0  0  0  0  0
    0.4456   -1.1894    5.3370 C   0  0  0  0  0  0  0  0  0  0  0  0
   -0.8430   -1.2443    5.6344 O   0  0  0  0  0  0  0  0  0  0  0  0
   -1.7444   -0.5221    4.7950 C   0  0  0  0  0  0  0  0  0  0  0  0
   -1.6817    0.9739    5.0628 C   0  0  0  0  0  0  0  0  0  0  0  0
    0.8749   -0.6168    4.2392 N   0  0  0  0  0  0  0  0  0  0  0  0
    2.2018   -0.5434    4.0314 C   0  0  0  0  0  0  0  0  0  0  0  0
    5.4352   -1.4557    5.7413 C   0  0  0  0  0  0  0  0  0  0  0  0
    5.1302   -1.6665    7.0420 C   0  0  0  0  0  0  0  0  0  0  0  0
    4.0066   -0.9774    7.7477 C   0  0  0  0  0  0  0  0  0  0  0  0
    3.6297    0.1616    7.5845 O   0  0  0  0  0  0  0  0  0  0  0  0
    3.7142   -1.8543    8.9101 C   0  0  0  0  0  0  0  0  0  0  0  0
    4.7526   -2.7941    9.0537 C   0  0  0  0  0  0  0  0  0  0  0  0
    4.7349   -3.6884   10.1148 C   0  0  0  0  0  0  0  0  0  0  0  0
    3.6772   -3.6378   11.0085 C   0  0  0  0  0  0  0  0  0  0  0  0
    2.6525   -2.7136   10.8584 C   0  0  0  0  0  0  0  0  0  0  0  0
    1.2300   -2.7067   12.1004 Br  0  0  0  0  0  0  0  0  0  0  0  0
    2.6603   -1.7950    9.8043 C   0  0  0  0  0  0  0  0  0  0  0  0
    1.4013   -0.6488    9.6063 Cl  0  0  0  0  0  0  0  0  0  0  0  0
    5.7021   -2.6354    7.9548 C   0  0  0  0  0  0  0  0  0  0  0  0
    6.8810   -3.3122    7.7969 C   0  0  0  0  0  0  0  0  0  0  0  0
    7.7711   -3.1072    6.7227 C   0  0  0  0  0  0  0  0  0  0  0  0
    8.5376   -2.9851    5.8763 N   0  0  0  0  0  0  0  0  0  0  0  0
    7.3732   -4.2792    8.6983 C   0  0  0  0  0  0  0  0  0  0  0  0
    7.8268   -5.0718    9.3934 N   0  0  0  0  0  0  0  0  0  0  0  0
   -3.0345    1.3092   -7.8933 H   0  0  0  0  0  0  0  0  0  0  0  0
   -7.4030    3.8459  -10.2320 H   0  0  0  0  0  0  0  0  0  0  0  0
   -9.5280    4.6743   -9.3271 H   0  0  0  0  0  0  0  0  0  0  0  0
   -4.7306    2.4988   -0.7981 H   0  0  0  0  0  0  0  0  0  0  0  0
   -6.5953    1.5811   -2.0721 H   0  0  0  0  0  0  0  0  0  0  0  0
   -8.5699    0.6028   -2.8967 H   0  0  0  0  0  0  0  0  0  0  0  0
   -8.7248   -0.1270   -4.5095 H   0  0  0  0  0  0  0  0  0  0  0  0
   -7.4364    1.0706   -4.2143 H   0  0  0  0  0  0  0  0  0  0  0  0
   -4.4479   -2.0841   -2.5761 H   0  0  0  0  0  0  0  0  0  0  0  0
   -2.5616   -1.1509   -1.3117 H   0  0  0  0  0  0  0  0  0  0  0  0
   -0.9011    3.3749    0.3171 H   0  0  0  0  0  0  0  0  0  0  0  0
   -1.1694    4.8214    2.2617 H   0  0  0  0  0  0  0  0  0  0  0  0
   -1.7327    6.5333    3.7324 H   0  0  0  0  0  0  0  0  0  0  0  0
   -0.8605    5.2207    4.5924 H   0  0  0  0  0  0  0  0  0  0  0  0
   -1.8723    6.3703    5.4948 H   0  0  0  0  0  0  0  0  0  0  0  0
   -4.6355    2.6005    3.4293 H   0  0  0  0  0  0  0  0  0  0  0  0
   -4.3295    1.1092    1.4934 H   0  0  0  0  0  0  0  0  0  0  0  0
    3.7601   -3.1679   -1.5123 H   0  0  0  0  0  0  0  0  0  0  0  0
    4.2496   -3.1045   -3.9312 H   0  0  0  0  0  0  0  0  0  0  0  0
    2.6673    0.6746   -5.8576 H   0  0  0  0  0  0  0  0  0  0  0  0
    3.4521    0.4217   -7.4359 H   0  0  0  0  0  0  0  0  0  0  0  0
    4.2932    1.3565   -6.1834 H   0  0  0  0  0  0  0  0  0  0  0  0
    4.0234    1.1640   -3.8617 H   0  0  0  0  0  0  0  0  0  0  0  0
    3.5363    1.0973   -1.4645 H   0  0  0  0  0  0  0  0  0  0  0  0
    1.8496   -2.6110    1.7487 H   0  0  0  0  0  0  0  0  0  0  0  0
    2.8985   -4.0405    3.4545 H   0  0  0  0  0  0  0  0  0  0  0  0
    7.2524   -5.2960    2.6067 H   0  0  0  0  0  0  0  0  0  0  0  0
    7.5926   -5.7315    4.2970 H   0  0  0  0  0  0  0  0  0  0  0  0
    7.8665   -4.0640    3.7656 H   0  0  0  0  0  0  0  0  0  0  0  0
    6.7575   -3.0679    1.8931 H   0  0  0  0  0  0  0  0  0  0  0  0
    5.7143   -1.6350    0.2102 H   0  0  0  0  0  0  0  0  0  0  0  0
    6.0062   -0.0447    3.5007 H   0  0  0  0  0  0  0  0  0  0  0  0
    1.0026   -2.4136    7.0599 H   0  0  0  0  0  0  0  0  0  0  0  0
   -2.7286   -0.9235    5.0440 H   0  0  0  0  0  0  0  0  0  0  0  0
   -1.5080   -0.7282    3.7467 H   0  0  0  0  0  0  0  0  0  0  0  0
   -1.8587    1.1750    6.1164 H   0  0  0  0  0  0  0  0  0  0  0  0
   -2.4387    1.4785    4.4709 H   0  0  0  0  0  0  0  0  0  0  0  0
   -0.7053    1.3620    4.7842 H   0  0  0  0  0  0  0  0  0  0  0  0
    6.3456   -1.8529    5.3160 H   0  0  0  0  0  0  0  0  0  0  0  0
    5.5159   -4.4174   10.2544 H   0  0  0  0  0  0  0  0  0  0  0  0
    3.6409   -4.3276   11.8376 H   0  0  0  0  0  0  0  0  0  0  0  0
  1  2  2  0  0  0  0
  2  3  1  0  0  0  0
  3  4  2  0  0  0  0
  3  5  1  0  0  0  0
  5  6  2  0  0  0  0
  6  7  1  0  0  0  0
  7  8  2  0  0  0  0
  8  9  1  0  0  0  0
  9 10  1  0  0  0  0
  9 11  2  0  0  0  0
 11 12  1  0  0  0  0
  6 13  1  0  0  0  0
 13 14  2  0  0  0  0
 14 15  1  0  0  0  0
 15 16  3  0  0  0  0
 14 17  1  0  0  0  0
 17 18  3  0  0  0  0
  1 19  1  0  0  0  0
 19 20  2  0  0  0  0
 20 21  1  0  0  0  0
 21 22  1  0  0  0  0
 22 23  2  0  0  0  0
 23 24  2  0  0  0  0
 21 25  2  0  0  0  0
 25 26  1  0  0  0  0
 26 27  2  0  0  0  0
 27 28  1  0  0  0  0
 28 29  1  0  0  0  0
 29 30  2  0  0  0  0
 25 31  1  0  0  0  0
 31 32  2  0  0  0  0
 32 33  1  0  0  0  0
 33 34  1  0  0  0  0
 34 35  2  0  0  0  0
 35 36  1  0  0  0  0
 36 37  2  0  0  0  0
 37 38  1  0  0  0  0
 38 39  1  0  0  0  0
 37 40  1  0  0  0  0
 40 41  2  0  0  0  0
 33 42  1  0  0  0  0
 42 43  2  0  0  0  0
 43 44  1  0  0  0  0
 44 45  2  0  0  0  0
 45 46  1  0  0  0  0
 46 47  1  0  0  0  0
 45 48  1  0  0  0  0
 48 49  2  0  0  0  0
 32 50  1  0  0  0  0
 50 51  1  0  0  0  0
 51 52  1  0  0  0  0
 52 53  2  0  0  0  0
 53 54  1  0  0  0  0
 54 55  1  0  0  0  0
 55 56  2  0  0  0  0
 56 57  1  0  0  0  0
 57 58  2  0  0  0  0
 58 59  1  0  0  0  0
 59 60  1  0  0  0  0
 58 61  1  0  0  0  0
 61 62  2  0  0  0  0
 54 63  1  0  0  0  0
 63 64  2  0  0  0  0
 64 65  1  0  0  0  0
 65 66  2  0  0  0  0
 66 67  1  0  0  0  0
 67 68  1  0  0  0  0
 66 69  1  0  0  0  0
 69 70  2  0  0  0  0
 53 71  1  0  0  0  0
 71 72  1  0  0  0  0
 52 73  1  0  0  0  0
 73 74  2  0  0  0  0
 74 75  1  0  0  0  0
 74 76  1  0  0  0  0
 76 77  2  0  0  0  0
 77 78  1  0  0  0  0
 78 79  2  0  0  0  0
 79 80  1  0  0  0  0
 80 81  2  0  0  0  0
 81 82  1  0  0  0  0
 82 83  1  0  0  0  0
 83 84  1  0  0  0  0
 81 85  1  0  0  0  0
 85 86  2  0  0  0  0
 77 87  1  0  0  0  0
 87 88  2  0  0  0  0
 88 89  1  0  0  0  0
 89 90  2  0  0  0  0
 89 91  1  0  0  0  0
 91 92  2  0  0  0  0
 92 93  1  0  0  0  0
 93 94  2  0  0  0  0
 94 95  1  0  0  0  0
 95 96  1  0  0  0  0
 95 97  2  0  0  0  0
 97 98  1  0  0  0  0
 92 99  1  0  0  0  0
 99100  2  0  0  0  0
100101  1  0  0  0  0
101102  3  0  0  0  0
100103  1  0  0  0  0
103104  3  0  0  0  0
 13  2  1  0  0  0  0
 30 19  1  0  0  0  0
 72 31  1  0  0  0  0
 86 73  1  0  0  0  0
 99 88  1  0  0  0  0
 11  5  1  0  0  0  0
 24 20  1  0  0  0  0
 30 26  1  0  0  0  0
 41 34  1  0  0  0  0
 49 42  1  0  0  0  0
 71 50  2  0  0  0  0
 86 78  1  0  0  0  0
 97 91  1  0  0  0  0
 62 55  1  0  0  0  0
 70 63  1  0  0  0  0
  1105  1  0  0  0  0
  7106  1  0  0  0  0
  8107  1  0  0  0  0
 35108  1  0  0  0  0
 36109  1  0  0  0  0
 39110  1  0  0  0  0
 39111  1  0  0  0  0
 39112  1  0  0  0  0
 40113  1  0  0  0  0
 41114  1  0  0  0  0
 43115  1  0  0  0  0
 44116  1  0  0  0  0
 47117  1  0  0  0  0
 47118  1  0  0  0  0
 47119  1  0  0  0  0
 48120  1  0  0  0  0
 49121  1  0  0  0  0
 56122  1  0  0  0  0
 57123  1  0  0  0  0
 60124  1  0  0  0  0
 60125  1  0  0  0  0
 60126  1  0  0  0  0
 61127  1  0  0  0  0
 62128  1  0  0  0  0
 64129  1  0  0  0  0
 65130  1  0  0  0  0
 68131  1  0  0  0  0
 68132  1  0  0  0  0
 68133  1  0  0  0  0
 69134  1  0  0  0  0
 70135  1  0  0  0  0
 76136  1  0  0  0  0
 80137  1  0  0  0  0
 83138  1  0  0  0  0
 83139  1  0  0  0  0
 84140  1  0  0  0  0
 84141  1  0  0  0  0
 84142  1  0  0  0  0
 87143  1  0  0  0  0
 93144  1  0  0  0  0
 94145  1  0  0  0  0
M  END
