164

C         -1.83270       -4.62570        6.74720
C         -2.22370       -4.14700        7.96170
C         -2.98280       -5.01630        8.89790
O         -3.15220       -6.20840        8.81080
C         -3.52130       -4.08960        9.92520
C         -3.01590       -2.79440        9.69990
C         -3.39400       -1.74230       10.51670
C         -4.27650       -1.99730       11.55610
C         -4.76420       -3.27480       11.78450
Br        -5.95420       -3.55820       13.22480
C         -4.39310       -4.35120       10.96930
Cl        -4.99400       -5.92860       11.25250
C         -2.10060       -2.84450        8.56470
C         -1.13460       -1.91380        8.26720
C         -0.09140       -2.19550        7.36590
N          0.79570       -2.44600        6.68120
C         -1.02490       -0.65490        8.88640
N         -0.91780        0.39390        9.34060
C         -1.47020       -3.91500        5.56600
C         -0.61480       -4.54180        4.63310
N         -0.10620       -5.78920        4.81260
C          0.62250       -6.17450        3.83590
C          1.31030       -7.48600        3.76200
C          1.11620       -8.16430        2.40820
S          0.78780       -4.99930        2.53030
C         -0.21550       -3.91250        3.43550
C         -0.69510       -2.65720        3.04630
C         -1.62650       -2.07800        3.92830
C         -1.96620       -2.66740        5.16460
S         -3.15070       -1.66900        5.94960
C         -3.08900       -0.56410        4.56780
C         -3.93490        0.65300        4.53520
C         -4.68330        0.76290        3.20750
N         -2.26900       -0.91330        3.65630
C         -0.39060       -2.01970        1.80570
C          0.77190       -2.11450        1.04460
N          1.98120       -2.57600        1.52510
C          2.38340       -2.22730        2.83020
C          2.01260       -1.00650        3.39260
C          2.41420       -0.67830        4.66720
C          3.19230       -1.56030        5.41260
S          3.67370       -1.04280        7.02670
C          3.97630       -2.61960        7.87610
C          3.57740       -2.77010        4.85080
C          3.17570       -3.09860        3.57150
C          2.91310       -3.09450        0.61780
C          4.26220       -2.74600        0.68780
C          5.14920       -3.22980       -0.24570
C          4.71430       -4.06830       -1.27100
S          5.93920       -4.58960       -2.42930
C          4.98210       -5.42660       -3.72540
C          3.37910       -4.44210       -1.32660
C          2.48880       -3.95890       -0.38810
C          0.59510       -1.51410       -0.22410
S          1.61960       -1.30070       -1.60120
C          0.34570       -0.42230       -2.41690
C         -0.76510       -0.19570       -1.60890
N         -1.79890        0.67840       -1.89420
C         -1.57870        1.84660       -2.64070
C         -0.37030        2.54290       -2.56840
C         -0.13280        3.61870       -3.39430
C         -1.10020        4.03750       -4.30640
S         -0.67910        5.40220       -5.34550
C         -2.06140        5.48950       -6.52100
C         -2.32840        3.39210       -4.33860
C         -2.56180        2.31030       -3.51270
C         -3.06720        0.42080       -1.35510
C         -3.84340        1.45560       -0.84190
C         -5.08540        1.19990       -0.29560
C         -5.56940       -0.10070       -0.24710
S         -7.12190       -0.55340        0.45920
C         -7.92890        1.03590        0.80500
C         -4.79890       -1.13820       -0.76790
C         -3.56460       -0.88220       -1.32060
C         -0.63010       -0.88030       -0.37600
S         -1.61320       -1.01680        1.04390
C          0.57080        0.08480       -3.73550
C          1.83870        0.56200       -4.10930
N          2.96440        0.33300       -3.38790
C          4.00410        0.86350       -3.90730
C          5.37540        0.76350       -3.35220
C          5.55220       -0.49800       -2.51270
S          3.69350        1.78900       -5.38200
C          2.02050        1.37400       -5.25240
C          0.96130        1.70120       -6.10580
C         -0.23740        0.98550       -5.87110
C         -0.42290        0.21350       -4.70930
S         -2.00280       -0.50630       -4.73810
C         -2.29570        0.32130       -6.27360
C         -3.58390        0.16260       -6.98750
C         -3.85100       -1.29910       -7.34590
N         -1.32160        1.03500       -6.68880
C          0.91430        2.66170       -7.15760
C          1.52170        3.87810       -7.23150
C          2.33860        4.52710       -6.18930
O          2.55260        4.13760       -5.06150
C          2.83790        5.78220       -6.79650
C          3.75100        6.68550       -6.28380
Cl         4.36070        6.52920       -4.69900
C          4.18050        7.73480       -7.10850
Cl         5.28770        8.89160       -6.50980
C          3.74070        7.81160       -8.42920
Cl         4.35550        9.04250       -9.44630
C          2.81450        6.89050       -8.94350
Cl         2.45340        6.94350      -10.61960
C          2.31020        5.91290       -8.09570
C          1.32540        4.85400       -8.29570
C          0.26590        4.90290       -9.16010
C         -0.14140        6.05580       -9.86870
N         -0.62380        6.96400      -10.37790
C         -0.71180        3.89660       -9.32940
N         -1.55970        3.15420       -9.55140
H         -1.84090       -5.70560        6.64110
H         -3.02810       -0.74170       10.35470
H         -4.59170       -1.19350       12.20350
H          2.37900       -7.32670        3.93580
H          0.92580       -8.11200        4.56860
H          1.63040       -9.12140        2.39420
H          1.51670       -7.54220        1.61040
H          0.05950       -8.33570        2.21760
H         -4.63420        0.63060        5.37290
H         -3.28580        1.52570        4.65540
H         -5.37950       -0.06450        3.09250
H         -5.23750        1.69760        3.17590
H         -3.98000        0.73610        2.37950
H          1.41220       -0.31110        2.82540
H          2.12950        0.26730        5.10170
H          4.92760       -3.04390        7.56790
H          4.00600       -2.38650        8.93590
H          3.15030       -3.29100        7.66250
H          4.19100       -3.46510        5.40100
H          3.48440       -4.03740        3.13490
H          4.60380       -2.07890        1.46450
H          6.19050       -2.95040       -0.20430
H          5.69480       -5.66280       -4.50940
H          4.54660       -6.34330       -3.33840
H          4.21830       -4.75600       -4.10780
H          3.01660       -5.10880       -2.09190
H          1.45120       -4.25490       -0.43020
H          0.38910        2.23080       -1.86770
H          0.81340        4.13540       -3.35540
H         -2.97180        5.77920       -6.00470
H         -2.17790        4.53380       -7.02480
H         -1.79280        6.25960       -7.23840
H         -3.10740        3.70610       -5.01370
H         -3.51370        1.80140       -3.55890
H         -3.46530        2.46700       -0.86300
H         -5.65750        2.02270        0.10090
H         -8.92530        0.78640        1.15620
H         -7.38860        1.56970        1.58110
H         -7.99480        1.62160       -0.10690
H         -5.18540       -2.14510       -0.73770
H         -2.97970       -1.68660       -1.74010
H          5.55580        1.64710       -2.73100
H          6.09640        0.78990       -4.17220
H          6.54500       -0.51740       -2.07200
H          5.42860       -1.38480       -3.12800
H          4.80930       -0.53120       -1.72120
H         -3.54030        0.77560       -7.88890
H         -4.39230        0.53070       -6.34950
H         -3.06480       -1.67840       -7.99390
H         -3.88780       -1.91060       -6.44670
H         -4.80110       -1.38610       -7.86580
H          0.20420        2.40100       -7.93250
