
  xtb     02032223523D
 energy: -328.926544106699 gnorm: 0.000736273700 xtb: 6.4.1 (unknown)
192211  0     0  0            999 V2000
   -6.7547   -7.7956   -4.4328 C   0  0  0  0  0  0  0  0  0  0  0  0
   -7.0460   -8.1916   -5.7037 C   0  0  0  0  0  0  0  0  0  0  0  0
   -8.1070   -9.2021   -5.9418 C   0  0  0  0  0  0  0  0  0  0  0  0
   -8.6146   -9.9307   -5.1229 O   0  0  0  0  0  0  0  0  0  0  0  0
   -8.4373   -9.0713   -7.3820 C   0  0  0  0  0  0  0  0  0  0  0  0
   -7.5569   -8.1520   -7.9859 C   0  0  0  0  0  0  0  0  0  0  0  0
   -7.6832   -7.8412   -9.3294 C   0  0  0  0  0  0  0  0  0  0  0  0
   -8.6902   -8.4557  -10.0585 C   0  0  0  0  0  0  0  0  0  0  0  0
   -9.5486   -9.3695   -9.4661 C   0  0  0  0  0  0  0  0  0  0  0  0
  -10.8917  -10.1816  -10.5182 Br  0  0  0  0  0  0  0  0  0  0  0  0
   -9.4374   -9.6966   -8.1095 C   0  0  0  0  0  0  0  0  0  0  0  0
  -10.4952  -10.8258   -7.3779 Cl  0  0  0  0  0  0  0  0  0  0  0  0
   -6.5865   -7.7134   -6.9867 C   0  0  0  0  0  0  0  0  0  0  0  0
   -5.3451   -7.1984   -7.2577 C   0  0  0  0  0  0  0  0  0  0  0  0
   -4.3104   -7.1419   -6.2987 C   0  0  0  0  0  0  0  0  0  0  0  0
   -3.4188   -7.1531   -5.5759 N   0  0  0  0  0  0  0  0  0  0  0  0
   -4.9317   -6.7568   -8.5287 C   0  0  0  0  0  0  0  0  0  0  0  0
   -4.5559   -6.3443   -9.5324 N   0  0  0  0  0  0  0  0  0  0  0  0
   -6.1188   -6.6082   -4.0014 C   0  0  0  0  0  0  0  0  0  0  0  0
   -5.5742   -6.3936   -2.7580 C   0  0  0  0  0  0  0  0  0  0  0  0
   -5.0038   -5.1172   -2.5926 C   0  0  0  0  0  0  0  0  0  0  0  0
   -4.3657   -4.5881   -1.4466 C   0  0  0  0  0  0  0  0  0  0  0  0
   -4.3534   -5.3072   -0.1940 C   0  0  0  0  0  0  0  0  0  0  0  0
   -5.3628   -6.0487    0.3609 C   0  0  0  0  0  0  0  0  0  0  0  0
   -5.0213   -6.6105    1.6045 C   0  0  0  0  0  0  0  0  0  0  0  0
   -3.7542   -6.3111    2.0078 C   0  0  0  0  0  0  0  0  0  0  0  0
   -3.0493   -6.7453    3.2446 C   0  0  0  0  0  0  0  0  0  0  0  0
   -1.8184   -7.5940    2.9245 C   0  0  0  0  0  0  0  0  0  0  0  0
   -2.9573   -5.3019    0.8485 S   0  0  0  0  0  0  0  0  0  0  0  0
   -3.7784   -3.3386   -1.6004 C   0  0  0  0  0  0  0  0  0  0  0  0
   -3.8513   -2.5760   -2.7913 C   0  0  0  0  0  0  0  0  0  0  0  0
   -4.5895   -3.0528   -3.8934 C   0  0  0  0  0  0  0  0  0  0  0  0
   -4.8583   -2.2471   -5.0672 C   0  0  0  0  0  0  0  0  0  0  0  0
   -4.9206   -2.6353   -6.3760 C   0  0  0  0  0  0  0  0  0  0  0  0
   -5.3887   -1.6219   -7.2356 C   0  0  0  0  0  0  0  0  0  0  0  0
   -5.6920   -0.4602   -6.5940 C   0  0  0  0  0  0  0  0  0  0  0  0
   -6.3017    0.7777   -7.1528 C   0  0  0  0  0  0  0  0  0  0  0  0
   -7.8062    0.8169   -6.8748 C   0  0  0  0  0  0  0  0  0  0  0  0
   -5.3726   -0.5894   -4.8969 S   0  0  0  0  0  0  0  0  0  0  0  0
   -5.1189   -4.3297   -3.7673 C   0  0  0  0  0  0  0  0  0  0  0  0
   -6.0099   -5.1692   -5.0036 S   0  0  0  0  0  0  0  0  0  0  0  0
   -3.1202   -1.3667   -2.7024 C   0  0  0  0  0  0  0  0  0  0  0  0
   -2.5402   -1.1680   -1.4866 C   0  0  0  0  0  0  0  0  0  0  0  0
   -2.8924   -2.4827   -0.3729 S   0  0  0  0  0  0  0  0  0  0  0  0
   -1.6933   -0.1371   -0.9661 C   0  0  0  0  0  0  0  0  0  0  0  0
   -0.5464    0.4490   -1.4770 C   0  0  0  0  0  0  0  0  0  0  0  0
   -0.0092    0.2541   -2.7384 N   0  0  0  0  0  0  0  0  0  0  0  0
   -0.7569    0.4089   -3.9083 C   0  0  0  0  0  0  0  0  0  0  0  0
   -0.4619   -0.3759   -5.0209 C   0  0  0  0  0  0  0  0  0  0  0  0
   -1.1457   -0.2045   -6.2068 C   0  0  0  0  0  0  0  0  0  0  0  0
   -2.1432    0.7573   -6.3011 C   0  0  0  0  0  0  0  0  0  0  0  0
   -3.0197    1.1139   -7.7905 S   0  0  0  0  0  0  0  0  0  0  0  0
   -2.5957   -0.2682   -8.8856 C   0  0  0  0  0  0  0  0  0  0  0  0
   -2.4613    1.5259   -5.1829 C   0  0  0  0  0  0  0  0  0  0  0  0
   -1.7768    1.3573   -3.9985 C   0  0  0  0  0  0  0  0  0  0  0  0
    1.3857    0.1055   -2.8240 C   0  0  0  0  0  0  0  0  0  0  0  0
    2.1203    0.7892   -3.7879 C   0  0  0  0  0  0  0  0  0  0  0  0
    3.4944    0.6701   -3.8388 C   0  0  0  0  0  0  0  0  0  0  0  0
    4.1589   -0.1283   -2.9173 C   0  0  0  0  0  0  0  0  0  0  0  0
    5.9092   -0.3389   -2.8912 S   0  0  0  0  0  0  0  0  0  0  0  0
    6.5211    1.0466   -3.8918 C   0  0  0  0  0  0  0  0  0  0  0  0
    3.4254   -0.8283   -1.9624 C   0  0  0  0  0  0  0  0  0  0  0  0
    2.0542   -0.7165   -1.9166 C   0  0  0  0  0  0  0  0  0  0  0  0
    0.1228    1.2020   -0.4731 C   0  0  0  0  0  0  0  0  0  0  0  0
    1.6057    2.0914   -0.4065 S   0  0  0  0  0  0  0  0  0  0  0  0
    1.3651    2.4230    1.3048 C   0  0  0  0  0  0  0  0  0  0  0  0
    0.1799    1.9037    1.7779 C   0  0  0  0  0  0  0  0  0  0  0  0
   -0.2599    1.9051    3.0984 N   0  0  0  0  0  0  0  0  0  0  0  0
   -0.8381    0.7121    3.5515 C   0  0  0  0  0  0  0  0  0  0  0  0
   -0.2384   -0.5037    3.2180 C   0  0  0  0  0  0  0  0  0  0  0  0
   -0.8605   -1.6963    3.5221 C   0  0  0  0  0  0  0  0  0  0  0  0
   -2.0808   -1.6871    4.1788 C   0  0  0  0  0  0  0  0  0  0  0  0
   -2.9305   -3.2253    4.4709 S   0  0  0  0  0  0  0  0  0  0  0  0
   -4.3457   -2.9643    3.3548 C   0  0  0  0  0  0  0  0  0  0  0  0
   -2.6464   -0.4871    4.5834 C   0  0  0  0  0  0  0  0  0  0  0  0
   -2.0340    0.7081    4.2680 C   0  0  0  0  0  0  0  0  0  0  0  0
   -0.4256    3.0982    3.8105 C   0  0  0  0  0  0  0  0  0  0  0  0
   -0.7974    4.2772    3.1665 C   0  0  0  0  0  0  0  0  0  0  0  0
   -0.9801    5.4331    3.8934 C   0  0  0  0  0  0  0  0  0  0  0  0
   -0.7969    5.4351    5.2732 C   0  0  0  0  0  0  0  0  0  0  0  0
   -1.1095    6.9512    6.1209 S   0  0  0  0  0  0  0  0  0  0  0  0
   -0.3250    6.7008    7.7398 C   0  0  0  0  0  0  0  0  0  0  0  0
   -0.4193    4.2642    5.9163 C   0  0  0  0  0  0  0  0  0  0  0  0
   -0.2334    3.1068    5.1886 C   0  0  0  0  0  0  0  0  0  0  0  0
   -0.5112    1.2053    0.7539 C   0  0  0  0  0  0  0  0  0  0  0  0
   -1.9743    0.2947    0.7153 S   0  0  0  0  0  0  0  0  0  0  0  0
    2.4461    3.0705    2.0049 C   0  0  0  0  0  0  0  0  0  0  0  0
    3.7251    2.6107    2.0382 C   0  0  0  0  0  0  0  0  0  0  0  0
    4.6202    3.4401    2.7619 C   0  0  0  0  0  0  0  0  0  0  0  0
    5.9887    3.2291    3.0151 C   0  0  0  0  0  0  0  0  0  0  0  0
    6.7200    2.0828    2.5151 C   0  0  0  0  0  0  0  0  0  0  0  0
    7.7105    1.3858    3.1519 C   0  0  0  0  0  0  0  0  0  0  0  0
    8.2595    0.3515    2.3723 C   0  0  0  0  0  0  0  0  0  0  0  0
    7.7111    0.2554    1.1304 C   0  0  0  0  0  0  0  0  0  0  0  0
    8.0042   -0.7461    0.0688 C   0  0  0  0  0  0  0  0  0  0  0  0
    7.0383   -1.9293    0.1565 C   0  0  0  0  0  0  0  0  0  0  0  0
    6.4729    1.4457    0.9086 S   0  0  0  0  0  0  0  0  0  0  0  0
    6.6306    4.1930    3.7946 C   0  0  0  0  0  0  0  0  0  0  0  0
    5.9783    5.3634    4.2608 C   0  0  0  0  0  0  0  0  0  0  0  0
    4.6169    5.6018    3.9559 C   0  0  0  0  0  0  0  0  0  0  0  0
    3.9954    6.8639    4.2865 C   0  0  0  0  0  0  0  0  0  0  0  0
    4.5596    8.1075    4.1842 C   0  0  0  0  0  0  0  0  0  0  0  0
    3.6789    9.1496    4.5257 C   0  0  0  0  0  0  0  0  0  0  0  0
    2.4430    8.7154    4.8974 C   0  0  0  0  0  0  0  0  0  0  0  0
    1.2557    9.5357    5.2609 C   0  0  0  0  0  0  0  0  0  0  0  0
    0.2890    9.6441    4.0802 C   0  0  0  0  0  0  0  0  0  0  0  0
    2.3413    6.9860    4.8168 S   0  0  0  0  0  0  0  0  0  0  0  0
    3.9628    4.5923    3.2628 C   0  0  0  0  0  0  0  0  0  0  0  0
    2.2680    4.5946    2.8488 S   0  0  0  0  0  0  0  0  0  0  0  0
    6.8405    6.1578    5.0370 C   0  0  0  0  0  0  0  0  0  0  0  0
    8.1207    5.6582    5.1457 C   0  0  0  0  0  0  0  0  0  0  0  0
    8.3019    4.1487    4.2781 S   0  0  0  0  0  0  0  0  0  0  0  0
    9.1390    6.2942    5.8910 C   0  0  0  0  0  0  0  0  0  0  0  0
   10.4306    5.9277    6.1047 C   0  0  0  0  0  0  0  0  0  0  0  0
   11.1661    4.7509    5.6254 C   0  0  0  0  0  0  0  0  0  0  0  0
   10.7611    3.8522    4.9153 O   0  0  0  0  0  0  0  0  0  0  0  0
   12.5327    4.8728    6.1894 C   0  0  0  0  0  0  0  0  0  0  0  0
   13.6143    4.0238    6.0470 C   0  0  0  0  0  0  0  0  0  0  0  0
   14.8012    4.3632    6.6835 C   0  0  0  0  0  0  0  0  0  0  0  0
   14.8999    5.5222    7.4411 C   0  0  0  0  0  0  0  0  0  0  0  0
   13.8146    6.3771    7.5860 C   0  0  0  0  0  0  0  0  0  0  0  0
   12.6316    6.0419    6.9544 C   0  0  0  0  0  0  0  0  0  0  0  0
   11.3320    6.7549    6.9382 C   0  0  0  0  0  0  0  0  0  0  0  0
   11.0559    7.7973    7.4904 O   0  0  0  0  0  0  0  0  0  0  0  0
   -7.1315   -8.4411   -3.6453 H   0  0  0  0  0  0  0  0  0  0  0  0
   -7.0282   -7.1325   -9.8091 H   0  0  0  0  0  0  0  0  0  0  0  0
   -8.8128   -8.2263  -11.1059 H   0  0  0  0  0  0  0  0  0  0  0  0
   -5.5291   -7.1666   -2.0122 H   0  0  0  0  0  0  0  0  0  0  0  0
   -6.3358   -6.1466   -0.0868 H   0  0  0  0  0  0  0  0  0  0  0  0
   -5.6948   -7.2173    2.1836 H   0  0  0  0  0  0  0  0  0  0  0  0
   -3.7459   -7.3186    3.8598 H   0  0  0  0  0  0  0  0  0  0  0  0
   -2.7371   -5.8655    3.8139 H   0  0  0  0  0  0  0  0  0  0  0  0
   -1.3266   -7.9009    3.8436 H   0  0  0  0  0  0  0  0  0  0  0  0
   -1.1126   -7.0223    2.3264 H   0  0  0  0  0  0  0  0  0  0  0  0
   -2.1029   -8.4841    2.3674 H   0  0  0  0  0  0  0  0  0  0  0  0
   -4.6131   -3.6074   -6.7195 H   0  0  0  0  0  0  0  0  0  0  0  0
   -5.5087   -1.7567   -8.2962 H   0  0  0  0  0  0  0  0  0  0  0  0
   -6.1250    0.8046   -8.2294 H   0  0  0  0  0  0  0  0  0  0  0  0
   -5.8291    1.6558   -6.7093 H   0  0  0  0  0  0  0  0  0  0  0  0
   -8.2420    1.7200   -7.2942 H   0  0  0  0  0  0  0  0  0  0  0  0
   -7.9924    0.8053   -5.8032 H   0  0  0  0  0  0  0  0  0  0  0  0
   -8.2965   -0.0461   -7.3197 H   0  0  0  0  0  0  0  0  0  0  0  0
   -3.0454   -0.6688   -3.5133 H   0  0  0  0  0  0  0  0  0  0  0  0
    0.3164   -1.1209   -4.9523 H   0  0  0  0  0  0  0  0  0  0  0  0
   -0.8879   -0.8237   -7.0503 H   0  0  0  0  0  0  0  0  0  0  0  0
   -1.5510   -0.2127   -9.1775 H   0  0  0  0  0  0  0  0  0  0  0  0
   -3.2259   -0.1501   -9.7616 H   0  0  0  0  0  0  0  0  0  0  0  0
   -2.8224   -1.2075   -8.3896 H   0  0  0  0  0  0  0  0  0  0  0  0
   -3.2415    2.2675   -5.2587 H   0  0  0  0  0  0  0  0  0  0  0  0
   -2.0223    1.9618   -3.1380 H   0  0  0  0  0  0  0  0  0  0  0  0
    1.6102    1.4250   -4.4961 H   0  0  0  0  0  0  0  0  0  0  0  0
    4.0359    1.2123   -4.5970 H   0  0  0  0  0  0  0  0  0  0  0  0
    7.5971    1.0625   -3.7480 H   0  0  0  0  0  0  0  0  0  0  0  0
    6.2966    0.8852   -4.9423 H   0  0  0  0  0  0  0  0  0  0  0  0
    6.0853    1.9732   -3.5305 H   0  0  0  0  0  0  0  0  0  0  0  0
    3.9440   -1.4635   -1.2611 H   0  0  0  0  0  0  0  0  0  0  0  0
    1.4896   -1.2618   -1.1745 H   0  0  0  0  0  0  0  0  0  0  0  0
    0.7054   -0.5033    2.6924 H   0  0  0  0  0  0  0  0  0  0  0  0
   -0.4140   -2.6369    3.2394 H   0  0  0  0  0  0  0  0  0  0  0  0
   -3.9729   -2.7885    2.3500 H   0  0  0  0  0  0  0  0  0  0  0  0
   -4.9375   -3.8735    3.3833 H   0  0  0  0  0  0  0  0  0  0  0  0
   -4.9356   -2.1202    3.6981 H   0  0  0  0  0  0  0  0  0  0  0  0
   -3.5811   -0.4872    5.1241 H   0  0  0  0  0  0  0  0  0  0  0  0
   -2.4927    1.6445    4.5487 H   0  0  0  0  0  0  0  0  0  0  0  0
   -0.9470    4.2793    2.0970 H   0  0  0  0  0  0  0  0  0  0  0  0
   -1.2799    6.3443    3.3992 H   0  0  0  0  0  0  0  0  0  0  0  0
   -0.8880    5.9808    8.3266 H   0  0  0  0  0  0  0  0  0  0  0  0
    0.7022    6.3793    7.5954 H   0  0  0  0  0  0  0  0  0  0  0  0
   -0.3483    7.6674    8.2340 H   0  0  0  0  0  0  0  0  0  0  0  0
   -0.2691    4.2382    6.9833 H   0  0  0  0  0  0  0  0  0  0  0  0
    0.0579    2.1949    5.6887 H   0  0  0  0  0  0  0  0  0  0  0  0
    4.0099    1.6835    1.5757 H   0  0  0  0  0  0  0  0  0  0  0  0
    8.0176    1.5816    4.1626 H   0  0  0  0  0  0  0  0  0  0  0  0
    9.0442   -0.2967    2.7198 H   0  0  0  0  0  0  0  0  0  0  0  0
    9.0302   -1.1004    0.1875 H   0  0  0  0  0  0  0  0  0  0  0  0
    7.9059   -0.2854   -0.9153 H   0  0  0  0  0  0  0  0  0  0  0  0
    7.2454   -2.6424   -0.6366 H   0  0  0  0  0  0  0  0  0  0  0  0
    6.0153   -1.5786    0.0459 H   0  0  0  0  0  0  0  0  0  0  0  0
    7.1339   -2.4294    1.1176 H   0  0  0  0  0  0  0  0  0  0  0  0
    5.5590    8.2707    3.8222 H   0  0  0  0  0  0  0  0  0  0  0  0
    3.9519   10.1897    4.4943 H   0  0  0  0  0  0  0  0  0  0  0  0
    1.5914   10.5319    5.5568 H   0  0  0  0  0  0  0  0  0  0  0  0
    0.7307    9.0815    6.1024 H   0  0  0  0  0  0  0  0  0  0  0  0
   -0.0588    8.6543    3.7960 H   0  0  0  0  0  0  0  0  0  0  0  0
   -0.5722   10.2472    4.3548 H   0  0  0  0  0  0  0  0  0  0  0  0
    0.7818   10.1010    3.2250 H   0  0  0  0  0  0  0  0  0  0  0  0
    6.5325    7.0583    5.5376 H   0  0  0  0  0  0  0  0  0  0  0  0
    8.8396    7.2230    6.3707 H   0  0  0  0  0  0  0  0  0  0  0  0
   13.5280    3.1251    5.4555 H   0  0  0  0  0  0  0  0  0  0  0  0
   15.6610    3.7165    6.5883 H   0  0  0  0  0  0  0  0  0  0  0  0
   15.8353    5.7618    7.9250 H   0  0  0  0  0  0  0  0  0  0  0  0
   13.8827    7.2798    8.1736 H   0  0  0  0  0  0  0  0  0  0  0  0
  1  2  2  0  0  0  0
  2  3  1  0  0  0  0
  3  4  2  0  0  0  0
  3  5  1  0  0  0  0
  5  6  2  0  0  0  0
  6  7  1  0  0  0  0
  7  8  2  0  0  0  0
  8  9  1  0  0  0  0
  9 10  1  0  0  0  0
  9 11  2  0  0  0  0
 11 12  1  0  0  0  0
  6 13  1  0  0  0  0
 13 14  2  0  0  0  0
 14 15  1  0  0  0  0
 15 16  3  0  0  0  0
 14 17  1  0  0  0  0
 17 18  3  0  0  0  0
  1 19  1  0  0  0  0
 19 20  2  0  0  0  0
 20 21  1  0  0  0  0
 21 22  2  0  0  0  0
 22 23  1  0  0  0  0
 23 24  2  0  0  0  0
 24 25  1  0  0  0  0
 25 26  2  0  0  0  0
 26 27  1  0  0  0  0
 27 28  1  0  0  0  0
 26 29  1  0  0  0  0
 22 30  1  0  0  0  0
 30 31  2  0  0  0  0
 31 32  1  0  0  0  0
 32 33  1  0  0  0  0
 33 34  2  0  0  0  0
 34 35  1  0  0  0  0
 35 36  2  0  0  0  0
 36 37  1  0  0  0  0
 37 38  1  0  0  0  0
 36 39  1  0  0  0  0
 32 40  2  0  0  0  0
 40 41  1  0  0  0  0
 31 42  1  0  0  0  0
 42 43  2  0  0  0  0
 43 44  1  0  0  0  0
 43 45  1  0  0  0  0
 45 46  2  0  0  0  0
 46 47  1  0  0  0  0
 47 48  1  0  0  0  0
 48 49  2  0  0  0  0
 49 50  1  0  0  0  0
 50 51  2  0  0  0  0
 51 52  1  0  0  0  0
 52 53  1  0  0  0  0
 51 54  1  0  0  0  0
 54 55  2  0  0  0  0
 47 56  1  0  0  0  0
 56 57  2  0  0  0  0
 57 58  1  0  0  0  0
 58 59  2  0  0  0  0
 59 60  1  0  0  0  0
 60 61  1  0  0  0  0
 59 62  1  0  0  0  0
 62 63  2  0  0  0  0
 46 64  1  0  0  0  0
 64 65  1  0  0  0  0
 65 66  1  0  0  0  0
 66 67  2  0  0  0  0
 67 68  1  0  0  0  0
 68 69  1  0  0  0  0
 69 70  2  0  0  0  0
 70 71  1  0  0  0  0
 71 72  2  0  0  0  0
 72 73  1  0  0  0  0
 73 74  1  0  0  0  0
 72 75  1  0  0  0  0
 75 76  2  0  0  0  0
 68 77  1  0  0  0  0
 77 78  2  0  0  0  0
 78 79  1  0  0  0  0
 79 80  2  0  0  0  0
 80 81  1  0  0  0  0
 81 82  1  0  0  0  0
 80 83  1  0  0  0  0
 83 84  2  0  0  0  0
 67 85  1  0  0  0  0
 85 86  1  0  0  0  0
 66 87  1  0  0  0  0
 87 88  2  0  0  0  0
 88 89  1  0  0  0  0
 89 90  2  0  0  0  0
 90 91  1  0  0  0  0
 91 92  2  0  0  0  0
 92 93  1  0  0  0  0
 93 94  2  0  0  0  0
 94 95  1  0  0  0  0
 95 96  1  0  0  0  0
 94 97  1  0  0  0  0
 90 98  1  0  0  0  0
 98 99  2  0  0  0  0
 99100  1  0  0  0  0
100101  1  0  0  0  0
101102  2  0  0  0  0
102103  1  0  0  0  0
103104  2  0  0  0  0
104105  1  0  0  0  0
105106  1  0  0  0  0
104107  1  0  0  0  0
100108  2  0  0  0  0
108109  1  0  0  0  0
 99110  1  0  0  0  0
110111  2  0  0  0  0
111112  1  0  0  0  0
111113  1  0  0  0  0
113114  2  0  0  0  0
114115  1  0  0  0  0
115116  2  0  0  0  0
115117  1  0  0  0  0
117118  2  0  0  0  0
118119  1  0  0  0  0
119120  2  0  0  0  0
120121  1  0  0  0  0
121122  2  0  0  0  0
122123  1  0  0  0  0
123124  2  0  0  0  0
 13  2  1  0  0  0  0
 41 19  1  0  0  0  0
 86 45  1  0  0  0  0
109 87  1  0  0  0  0
123114  1  0  0  0  0
 11  5  1  0  0  0  0
 40 21  1  0  0  0  0
 55 48  1  0  0  0  0
 63 56  1  0  0  0  0
 85 64  2  0  0  0  0
108 89  1  0  0  0  0
122117  1  0  0  0  0
 29 23  1  0  0  0  0
 44 30  1  0  0  0  0
 76 69  1  0  0  0  0
 84 77  1  0  0  0  0
 97 91  1  0  0  0  0
112 98  1  0  0  0  0
 39 33  1  0  0  0  0
107101  1  0  0  0  0
  1125  1  0  0  0  0
  7126  1  0  0  0  0
  8127  1  0  0  0  0
 20128  1  0  0  0  0
 24129  1  0  0  0  0
 25130  1  0  0  0  0
 27131  1  0  0  0  0
 27132  1  0  0  0  0
 28133  1  0  0  0  0
 28134  1  0  0  0  0
 28135  1  0  0  0  0
 34136  1  0  0  0  0
 35137  1  0  0  0  0
 37138  1  0  0  0  0
 37139  1  0  0  0  0
 38140  1  0  0  0  0
 38141  1  0  0  0  0
 38142  1  0  0  0  0
 42143  1  0  0  0  0
 49144  1  0  0  0  0
 50145  1  0  0  0  0
 53146  1  0  0  0  0
 53147  1  0  0  0  0
 53148  1  0  0  0  0
 54149  1  0  0  0  0
 55150  1  0  0  0  0
 57151  1  0  0  0  0
 58152  1  0  0  0  0
 61153  1  0  0  0  0
 61154  1  0  0  0  0
 61155  1  0  0  0  0
 62156  1  0  0  0  0
 63157  1  0  0  0  0
 70158  1  0  0  0  0
 71159  1  0  0  0  0
 74160  1  0  0  0  0
 74161  1  0  0  0  0
 74162  1  0  0  0  0
 75163  1  0  0  0  0
 76164  1  0  0  0  0
 78165  1  0  0  0  0
 79166  1  0  0  0  0
 82167  1  0  0  0  0
 82168  1  0  0  0  0
 82169  1  0  0  0  0
 83170  1  0  0  0  0
 84171  1  0  0  0  0
 88172  1  0  0  0  0
 92173  1  0  0  0  0
 93174  1  0  0  0  0
 95175  1  0  0  0  0
 95176  1  0  0  0  0
 96177  1  0  0  0  0
 96178  1  0  0  0  0
 96179  1  0  0  0  0
102180  1  0  0  0  0
103181  1  0  0  0  0
105182  1  0  0  0  0
105183  1  0  0  0  0
106184  1  0  0  0  0
106185  1  0  0  0  0
106186  1  0  0  0  0
110187  1  0  0  0  0
113188  1  0  0  0  0
118189  1  0  0  0  0
119190  1  0  0  0  0
120191  1  0  0  0  0
121192  1  0  0  0  0
M  END
