
  xtb     02122201233D
 energy: -420.081766520620 gnorm: 0.000387762820 xtb: 6.4.1 (unknown)
248269  0     0  0            999 V2000
    3.1022   -7.6175   -4.8609 C   0  0  0  0  0  0  0  0  0  0  0  0
    2.8142   -7.8141   -6.2078 C   0  0  0  0  0  0  0  0  0  0  0  0
    1.7714   -7.0866   -6.9237 C   0  0  0  0  0  0  0  0  0  0  0  0
    1.0313   -6.2168   -6.4926 O   0  0  0  0  0  0  0  0  0  0  0  0
    1.7053   -7.7112   -8.2680 C   0  0  0  0  0  0  0  0  0  0  0  0
    2.6371   -8.7619   -8.3384 C   0  0  0  0  0  0  0  0  0  0  0  0
    2.7776   -9.4913   -9.5046 C   0  0  0  0  0  0  0  0  0  0  0  0
    1.9863   -9.1574  -10.5958 C   0  0  0  0  0  0  0  0  0  0  0  0
    1.0761   -8.1161  -10.5266 C   0  0  0  0  0  0  0  0  0  0  0  0
    0.0413   -7.6885  -12.0532 Br  0  0  0  0  0  0  0  0  0  0  0  0
    0.9186   -7.3737   -9.3516 C   0  0  0  0  0  0  0  0  0  0  0  0
   -0.1915   -6.0700   -9.2738 Cl  0  0  0  0  0  0  0  0  0  0  0  0
    3.3491   -8.8255   -7.0621 C   0  0  0  0  0  0  0  0  0  0  0  0
    4.4543   -9.6032   -6.7998 C   0  0  0  0  0  0  0  0  0  0  0  0
    5.2418   -9.4671   -5.6413 C   0  0  0  0  0  0  0  0  0  0  0  0
    5.9670   -9.3624   -4.7555 N   0  0  0  0  0  0  0  0  0  0  0  0
    4.9900  -10.5493   -7.6904 C   0  0  0  0  0  0  0  0  0  0  0  0
    5.4858  -11.3301   -8.3728 N   0  0  0  0  0  0  0  0  0  0  0  0
    2.8944   -6.4422   -4.1600 C   0  0  0  0  0  0  0  0  0  0  0  0
    2.7286   -5.1037   -4.6096 C   0  0  0  0  0  0  0  0  0  0  0  0
    3.0632   -4.6122   -5.8266 N   0  0  0  0  0  0  0  0  0  0  0  0
    2.6116   -3.3155   -6.2159 C   0  0  0  0  0  0  0  0  0  0  0  0
    1.3709   -3.1547   -6.8205 C   0  0  0  0  0  0  0  0  0  0  0  0
    0.9767   -1.9053   -7.2479 C   0  0  0  0  0  0  0  0  0  0  0  0
    1.8000   -0.7969   -7.0485 C   0  0  0  0  0  0  0  0  0  0  0  0
    1.1680    0.7562   -7.5857 S   0  0  0  0  0  0  0  0  0  0  0  0
    2.5579    1.8981   -7.3599 C   0  0  0  0  0  0  0  0  0  0  0  0
    3.0388   -0.9620   -6.4432 C   0  0  0  0  0  0  0  0  0  0  0  0
    3.4477   -2.2213   -6.0455 C   0  0  0  0  0  0  0  0  0  0  0  0
    3.9053   -5.2648   -6.7388 C   0  0  0  0  0  0  0  0  0  0  0  0
    5.0576   -5.9234   -6.3141 C   0  0  0  0  0  0  0  0  0  0  0  0
    5.8510   -6.6087   -7.2101 C   0  0  0  0  0  0  0  0  0  0  0  0
    5.5048   -6.6532   -8.5574 C   0  0  0  0  0  0  0  0  0  0  0  0
    6.3710   -7.5787   -9.7746 S   0  0  0  0  0  0  0  0  0  0  0  0
    7.7254   -8.3681   -8.8625 C   0  0  0  0  0  0  0  0  0  0  0  0
    4.3939   -5.9336   -8.9963 C   0  0  0  0  0  0  0  0  0  0  0  0
    3.6083   -5.2401   -8.1030 C   0  0  0  0  0  0  0  0  0  0  0  0
    2.2567   -4.2961   -3.5552 C   0  0  0  0  0  0  0  0  0  0  0  0
    1.6739   -2.6703   -3.4565 S   0  0  0  0  0  0  0  0  0  0  0  0
    1.3280   -2.8614   -1.7417 C   0  0  0  0  0  0  0  0  0  0  0  0
    1.6849   -4.1246   -1.2732 C   0  0  0  0  0  0  0  0  0  0  0  0
    1.5812   -4.5703    0.0379 N   0  0  0  0  0  0  0  0  0  0  0  0
    0.3935   -4.4440    0.7644 C   0  0  0  0  0  0  0  0  0  0  0  0
   -0.8386   -4.4084    0.1151 C   0  0  0  0  0  0  0  0  0  0  0  0
   -2.0052   -4.3302    0.8454 C   0  0  0  0  0  0  0  0  0  0  0  0
   -1.9621   -4.3005    2.2337 C   0  0  0  0  0  0  0  0  0  0  0  0
   -3.4987   -4.2814    3.1155 S   0  0  0  0  0  0  0  0  0  0  0  0
   -3.1092   -5.3384    4.5449 C   0  0  0  0  0  0  0  0  0  0  0  0
   -0.7365   -4.2954    2.8869 C   0  0  0  0  0  0  0  0  0  0  0  0
    0.4310   -4.3652    2.1569 C   0  0  0  0  0  0  0  0  0  0  0  0
    2.6175   -5.3932    0.5109 C   0  0  0  0  0  0  0  0  0  0  0  0
    2.3503   -6.5436    1.2529 C   0  0  0  0  0  0  0  0  0  0  0  0
    3.3817   -7.3517    1.6730 C   0  0  0  0  0  0  0  0  0  0  0  0
    4.7028   -7.0410    1.3547 C   0  0  0  0  0  0  0  0  0  0  0  0
    5.9391   -8.1557    1.9381 S   0  0  0  0  0  0  0  0  0  0  0  0
    7.4218   -7.6765    1.0054 C   0  0  0  0  0  0  0  0  0  0  0  0
    4.9744   -5.8921    0.6248 C   0  0  0  0  0  0  0  0  0  0  0  0
    3.9396   -5.0764    0.2115 C   0  0  0  0  0  0  0  0  0  0  0  0
    2.1870   -4.9269   -2.3184 C   0  0  0  0  0  0  0  0  0  0  0  0
    2.7111   -6.5681   -2.3960 S   0  0  0  0  0  0  0  0  0  0  0  0
    0.8531   -1.7354   -1.0228 C   0  0  0  0  0  0  0  0  0  0  0  0
    0.2230   -0.6162   -1.5616 C   0  0  0  0  0  0  0  0  0  0  0  0
   -0.3207   -0.5389   -2.8344 N   0  0  0  0  0  0  0  0  0  0  0  0
   -1.0883   -1.6055   -3.3223 C   0  0  0  0  0  0  0  0  0  0  0  0
   -1.8535   -2.3882   -2.4579 C   0  0  0  0  0  0  0  0  0  0  0  0
   -2.5041   -3.5076   -2.9317 C   0  0  0  0  0  0  0  0  0  0  0  0
   -2.4066   -3.8712   -4.2734 C   0  0  0  0  0  0  0  0  0  0  0  0
   -3.1968   -5.3674   -4.7696 S   0  0  0  0  0  0  0  0  0  0  0  0
   -2.3504   -5.7921   -6.3184 C   0  0  0  0  0  0  0  0  0  0  0  0
   -1.7093   -3.0491   -5.1491 C   0  0  0  0  0  0  0  0  0  0  0  0
   -1.0587   -1.9290   -4.6766 C   0  0  0  0  0  0  0  0  0  0  0  0
   -0.1769    0.6462   -3.5584 C   0  0  0  0  0  0  0  0  0  0  0  0
    0.9959    1.3938   -3.4441 C   0  0  0  0  0  0  0  0  0  0  0  0
    1.1488    2.5606   -4.1591 C   0  0  0  0  0  0  0  0  0  0  0  0
    0.1445    2.9974   -5.0186 C   0  0  0  0  0  0  0  0  0  0  0  0
    0.4508    4.4837   -5.9246 S   0  0  0  0  0  0  0  0  0  0  0  0
   -0.7323    4.3755   -7.2990 C   0  0  0  0  0  0  0  0  0  0  0  0
   -1.0310    2.2665   -5.1226 C   0  0  0  0  0  0  0  0  0  0  0  0
   -1.1910    1.1056   -4.3949 C   0  0  0  0  0  0  0  0  0  0  0  0
    0.1071    0.4144   -0.6045 C   0  0  0  0  0  0  0  0  0  0  0  0
   -0.5171    2.0218   -0.6588 S   0  0  0  0  0  0  0  0  0  0  0  0
   -0.2774    2.1741    1.0678 C   0  0  0  0  0  0  0  0  0  0  0  0
    0.3507    1.0789    1.6211 C   0  0  0  0  0  0  0  0  0  0  0  0
    0.7360    1.0279    2.9668 N   0  0  0  0  0  0  0  0  0  0  0  0
    0.1108    0.1190    3.8183 C   0  0  0  0  0  0  0  0  0  0  0  0
   -1.0664   -0.5109    3.4184 C   0  0  0  0  0  0  0  0  0  0  0  0
   -1.7606   -1.3284    4.2833 C   0  0  0  0  0  0  0  0  0  0  0  0
   -1.2844   -1.5416    5.5677 C   0  0  0  0  0  0  0  0  0  0  0  0
   -2.1750   -2.5134    6.7516 S   0  0  0  0  0  0  0  0  0  0  0  0
   -3.9023   -2.1763    6.2903 C   0  0  0  0  0  0  0  0  0  0  0  0
   -0.0616   -0.9963    5.9429 C   0  0  0  0  0  0  0  0  0  0  0  0
    0.6355   -0.1819    5.0761 C   0  0  0  0  0  0  0  0  0  0  0  0
    1.5202    2.0988    3.4219 C   0  0  0  0  0  0  0  0  0  0  0  0
    1.2871    2.7470    4.6316 C   0  0  0  0  0  0  0  0  0  0  0  0
    2.0669    3.8184    5.0249 C   0  0  0  0  0  0  0  0  0  0  0  0
    3.1009    4.2635    4.2149 C   0  0  0  0  0  0  0  0  0  0  0  0
    4.1707    5.6080    4.6253 S   0  0  0  0  0  0  0  0  0  0  0  0
    3.8912    5.8613    6.4019 C   0  0  0  0  0  0  0  0  0  0  0  0
    3.3313    3.6310    2.9958 C   0  0  0  0  0  0  0  0  0  0  0  0
    2.5549    2.5644    2.6062 C   0  0  0  0  0  0  0  0  0  0  0  0
    0.5634    0.0669    0.6578 C   0  0  0  0  0  0  0  0  0  0  0  0
    1.1989   -1.5385    0.6948 S   0  0  0  0  0  0  0  0  0  0  0  0
   -0.7510    3.2945    1.8467 C   0  0  0  0  0  0  0  0  0  0  0  0
   -1.8697    3.2728    2.6594 C   0  0  0  0  0  0  0  0  0  0  0  0
   -2.8218    2.2660    2.6804 N   0  0  0  0  0  0  0  0  0  0  0  0
   -3.2975    1.7163    1.4799 C   0  0  0  0  0  0  0  0  0  0  0  0
   -3.7114    0.3853    1.4213 C   0  0  0  0  0  0  0  0  0  0  0  0
   -4.1306   -0.1628    0.2266 C   0  0  0  0  0  0  0  0  0  0  0  0
   -4.1722    0.5937   -0.9408 C   0  0  0  0  0  0  0  0  0  0  0  0
   -4.6234   -0.0198   -2.2307 C   0  0  0  0  0  0  0  0  0  0  0  0
   -3.8010    1.9283   -0.8662 C   0  0  0  0  0  0  0  0  0  0  0  0
   -3.3711    2.4868    0.3231 C   0  0  0  0  0  0  0  0  0  0  0  0
   -3.4294    1.9500    3.9078 C   0  0  0  0  0  0  0  0  0  0  0  0
   -4.7968    1.7096    3.9974 C   0  0  0  0  0  0  0  0  0  0  0  0
   -5.3717    1.4326    5.2220 C   0  0  0  0  0  0  0  0  0  0  0  0
   -4.6110    1.3922    6.3847 C   0  0  0  0  0  0  0  0  0  0  0  0
   -5.2458    1.1399    7.7175 C   0  0  0  0  0  0  0  0  0  0  0  0
   -3.2440    1.6216    6.2844 C   0  0  0  0  0  0  0  0  0  0  0  0
   -2.6587    1.8937    5.0656 C   0  0  0  0  0  0  0  0  0  0  0  0
   -1.9362    4.4429    3.4581 C   0  0  0  0  0  0  0  0  0  0  0  0
   -2.9765    4.9402    4.7389 S   0  0  0  0  0  0  0  0  0  0  0  0
   -2.0514    6.4364    4.9158 C   0  0  0  0  0  0  0  0  0  0  0  0
   -0.9203    6.4659    4.0527 C   0  0  0  0  0  0  0  0  0  0  0  0
    0.0466    7.4296    4.0386 N   0  0  0  0  0  0  0  0  0  0  0  0
    0.5169    8.0468    5.2101 C   0  0  0  0  0  0  0  0  0  0  0  0
    0.9798    9.3598    5.1714 C   0  0  0  0  0  0  0  0  0  0  0  0
    1.4552    9.9586    6.3205 C   0  0  0  0  0  0  0  0  0  0  0  0
    1.4722    9.2800    7.5337 C   0  0  0  0  0  0  0  0  0  0  0  0
    1.9626    9.9590    8.7743 C   0  0  0  0  0  0  0  0  0  0  0  0
    1.0164    7.9671    7.5608 C   0  0  0  0  0  0  0  0  0  0  0  0
    0.5536    7.3488    6.4156 C   0  0  0  0  0  0  0  0  0  0  0  0
    0.6907    7.7042    2.8128 C   0  0  0  0  0  0  0  0  0  0  0  0
    2.0741    7.8147    2.7407 C   0  0  0  0  0  0  0  0  0  0  0  0
    2.6826    8.0612    1.5260 C   0  0  0  0  0  0  0  0  0  0  0  0
    1.9353    8.2066    0.3637 C   0  0  0  0  0  0  0  0  0  0  0  0
    2.5940    8.4820   -0.9518 C   0  0  0  0  0  0  0  0  0  0  0  0
    0.5503    8.1113    0.4509 C   0  0  0  0  0  0  0  0  0  0  0  0
   -0.0707    7.8655    1.6580 C   0  0  0  0  0  0  0  0  0  0  0  0
   -0.9064    5.3411    3.2109 C   0  0  0  0  0  0  0  0  0  0  0  0
    0.1635    4.7860    1.9653 S   0  0  0  0  0  0  0  0  0  0  0  0
   -2.4358    7.5214    5.6929 C   0  0  0  0  0  0  0  0  0  0  0  0
   -3.4876    7.6628    6.5780 C   0  0  0  0  0  0  0  0  0  0  0  0
   -4.3810    6.5965    7.0217 C   0  0  0  0  0  0  0  0  0  0  0  0
   -4.3994    5.4330    6.6627 O   0  0  0  0  0  0  0  0  0  0  0  0
   -5.2626    7.2069    8.0422 C   0  0  0  0  0  0  0  0  0  0  0  0
   -4.9163    8.5605    8.2041 C   0  0  0  0  0  0  0  0  0  0  0  0
   -5.6122    9.3469    9.1069 C   0  0  0  0  0  0  0  0  0  0  0  0
   -6.6425    8.7694    9.8363 C   0  0  0  0  0  0  0  0  0  0  0  0
   -6.9787    7.4352    9.6727 C   0  0  0  0  0  0  0  0  0  0  0  0
   -8.3941    6.7082   10.6938 Br  0  0  0  0  0  0  0  0  0  0  0  0
   -6.2887    6.6243    8.7651 C   0  0  0  0  0  0  0  0  0  0  0  0
   -6.7020    4.9774    8.5508 Cl  0  0  0  0  0  0  0  0  0  0  0  0
   -3.8138    8.8701    7.2909 C   0  0  0  0  0  0  0  0  0  0  0  0
   -3.2315   10.1090    7.1540 C   0  0  0  0  0  0  0  0  0  0  0  0
   -3.5667   11.2311    7.9371 C   0  0  0  0  0  0  0  0  0  0  0  0
   -3.7800   12.1801    8.5482 N   0  0  0  0  0  0  0  0  0  0  0  0
   -2.2420   10.4527    6.2136 C   0  0  0  0  0  0  0  0  0  0  0  0
   -1.4564   10.8292    5.4625 N   0  0  0  0  0  0  0  0  0  0  0  0
    3.4581   -8.4623   -4.2834 H   0  0  0  0  0  0  0  0  0  0  0  0
    3.4812  -10.3031   -9.5861 H   0  0  0  0  0  0  0  0  0  0  0  0
    2.0815   -9.7108  -11.5171 H   0  0  0  0  0  0  0  0  0  0  0  0
    0.7392   -4.0193   -6.9506 H   0  0  0  0  0  0  0  0  0  0  0  0
    0.0284   -1.7685   -7.7457 H   0  0  0  0  0  0  0  0  0  0  0  0
    2.7928    1.9872   -6.3036 H   0  0  0  0  0  0  0  0  0  0  0  0
    3.4117    1.5548   -7.9364 H   0  0  0  0  0  0  0  0  0  0  0  0
    2.2186    2.8578   -7.7369 H   0  0  0  0  0  0  0  0  0  0  0  0
    3.6950   -0.1235   -6.2785 H   0  0  0  0  0  0  0  0  0  0  0  0
    4.4173   -2.3542   -5.5888 H   0  0  0  0  0  0  0  0  0  0  0  0
    5.3326   -5.9108   -5.2703 H   0  0  0  0  0  0  0  0  0  0  0  0
    6.7291   -7.1142   -6.8427 H   0  0  0  0  0  0  0  0  0  0  0  0
    7.3299   -9.0265   -8.0950 H   0  0  0  0  0  0  0  0  0  0  0  0
    8.3806   -7.6115   -8.4410 H   0  0  0  0  0  0  0  0  0  0  0  0
    8.2639   -8.9549   -9.6001 H   0  0  0  0  0  0  0  0  0  0  0  0
    4.1478   -5.9411  -10.0470 H   0  0  0  0  0  0  0  0  0  0  0  0
    2.7473   -4.6936   -8.4549 H   0  0  0  0  0  0  0  0  0  0  0  0
   -0.8770   -4.4742   -0.9617 H   0  0  0  0  0  0  0  0  0  0  0  0
   -2.9625   -4.3228    0.3467 H   0  0  0  0  0  0  0  0  0  0  0  0
   -4.0632   -5.6319    4.9721 H   0  0  0  0  0  0  0  0  0  0  0  0
   -2.5711   -6.2138    4.1957 H   0  0  0  0  0  0  0  0  0  0  0  0
   -2.5275   -4.7926    5.2823 H   0  0  0  0  0  0  0  0  0  0  0  0
   -0.6849   -4.2325    3.9623 H   0  0  0  0  0  0  0  0  0  0  0  0
    1.3836   -4.3600    2.6644 H   0  0  0  0  0  0  0  0  0  0  0  0
    1.3293   -6.8076    1.4828 H   0  0  0  0  0  0  0  0  0  0  0  0
    3.1765   -8.2463    2.2403 H   0  0  0  0  0  0  0  0  0  0  0  0
    8.1621   -8.4406    1.2205 H   0  0  0  0  0  0  0  0  0  0  0  0
    7.7849   -6.7098    1.3427 H   0  0  0  0  0  0  0  0  0  0  0  0
    7.1960   -7.6682   -0.0566 H   0  0  0  0  0  0  0  0  0  0  0  0
    5.9866   -5.6161    0.3767 H   0  0  0  0  0  0  0  0  0  0  0  0
    4.1576   -4.1791   -0.3499 H   0  0  0  0  0  0  0  0  0  0  0  0
   -1.9195   -2.1251   -1.4119 H   0  0  0  0  0  0  0  0  0  0  0  0
   -3.0903   -4.1219   -2.2655 H   0  0  0  0  0  0  0  0  0  0  0  0
   -1.2744   -5.7737   -6.1669 H   0  0  0  0  0  0  0  0  0  0  0  0
   -2.6549   -5.1178   -7.1140 H   0  0  0  0  0  0  0  0  0  0  0  0
   -2.6723   -6.8014   -6.5571 H   0  0  0  0  0  0  0  0  0  0  0  0
   -1.6538   -3.2823   -6.1992 H   0  0  0  0  0  0  0  0  0  0  0  0
   -0.4933   -1.3087   -5.3533 H   0  0  0  0  0  0  0  0  0  0  0  0
    1.7912    1.0433   -2.8029 H   0  0  0  0  0  0  0  0  0  0  0  0
    2.0531    3.1436   -4.0664 H   0  0  0  0  0  0  0  0  0  0  0  0
   -0.4242    5.1301   -8.0162 H   0  0  0  0  0  0  0  0  0  0  0  0
   -1.7376    4.5935   -6.9503 H   0  0  0  0  0  0  0  0  0  0  0  0
   -0.6748    3.3869   -7.7454 H   0  0  0  0  0  0  0  0  0  0  0  0
   -1.8339    2.5964   -5.7616 H   0  0  0  0  0  0  0  0  0  0  0  0
   -2.1131    0.5496   -4.4702 H   0  0  0  0  0  0  0  0  0  0  0  0
   -1.4525   -0.3417    2.4260 H   0  0  0  0  0  0  0  0  0  0  0  0
   -2.6786   -1.7866    3.9525 H   0  0  0  0  0  0  0  0  0  0  0  0
   -4.5029   -2.4823    7.1412 H   0  0  0  0  0  0  0  0  0  0  0  0
   -4.1868   -2.7512    5.4140 H   0  0  0  0  0  0  0  0  0  0  0  0
   -4.0174   -1.1119    6.1097 H   0  0  0  0  0  0  0  0  0  0  0  0
    0.3330   -1.2085    6.9250 H   0  0  0  0  0  0  0  0  0  0  0  0
    1.5842    0.2362    5.3772 H   0  0  0  0  0  0  0  0  0  0  0  0
    0.4834    2.4222    5.2749 H   0  0  0  0  0  0  0  0  0  0  0  0
    1.8509    4.3024    5.9643 H   0  0  0  0  0  0  0  0  0  0  0  0
    2.9165    6.3102    6.5732 H   0  0  0  0  0  0  0  0  0  0  0  0
    4.6685    6.5468    6.7251 H   0  0  0  0  0  0  0  0  0  0  0  0
    3.9921    4.9144    6.9237 H   0  0  0  0  0  0  0  0  0  0  0  0
    4.1315    3.9840    2.3640 H   0  0  0  0  0  0  0  0  0  0  0  0
    2.7454    2.0765    1.6620 H   0  0  0  0  0  0  0  0  0  0  0  0
   -3.7120   -0.2147    2.3181 H   0  0  0  0  0  0  0  0  0  0  0  0
   -4.4317   -1.2004    0.1998 H   0  0  0  0  0  0  0  0  0  0  0  0
   -4.6268    0.7182   -3.0292 H   0  0  0  0  0  0  0  0  0  0  0  0
   -3.9652   -0.8406   -2.5161 H   0  0  0  0  0  0  0  0  0  0  0  0
   -5.6294   -0.4248   -2.1275 H   0  0  0  0  0  0  0  0  0  0  0  0
   -3.8407    2.5462   -1.7517 H   0  0  0  0  0  0  0  0  0  0  0  0
   -3.0869    3.5287    0.3549 H   0  0  0  0  0  0  0  0  0  0  0  0
   -5.4077    1.7545    3.1080 H   0  0  0  0  0  0  0  0  0  0  0  0
   -6.4367    1.2583    5.2772 H   0  0  0  0  0  0  0  0  0  0  0  0
   -5.4460    2.0915    8.2103 H   0  0  0  0  0  0  0  0  0  0  0  0
   -6.1893    0.6097    7.6096 H   0  0  0  0  0  0  0  0  0  0  0  0
   -4.5852    0.5642    8.3628 H   0  0  0  0  0  0  0  0  0  0  0  0
   -2.6296    1.5838    7.1725 H   0  0  0  0  0  0  0  0  0  0  0  0
   -1.5957    2.0649    4.9996 H   0  0  0  0  0  0  0  0  0  0  0  0
    0.9521    9.9083    4.2436 H   0  0  0  0  0  0  0  0  0  0  0  0
    1.8014   10.9799    6.2785 H   0  0  0  0  0  0  0  0  0  0  0  0
    2.9586   10.3695    8.6167 H   0  0  0  0  0  0  0  0  0  0  0  0
    1.9968    9.2678    9.6127 H   0  0  0  0  0  0  0  0  0  0  0  0
    1.3019   10.7857    9.0338 H   0  0  0  0  0  0  0  0  0  0  0  0
    1.0309    7.4149    8.4902 H   0  0  0  0  0  0  0  0  0  0  0  0
    0.2055    6.3262    6.4526 H   0  0  0  0  0  0  0  0  0  0  0  0
    2.6714    7.6918    3.6303 H   0  0  0  0  0  0  0  0  0  0  0  0
    3.7594    8.1310    1.4836 H   0  0  0  0  0  0  0  0  0  0  0  0
    3.6526    8.2384   -0.9152 H   0  0  0  0  0  0  0  0  0  0  0  0
    2.4956    9.5381   -1.2047 H   0  0  0  0  0  0  0  0  0  0  0  0
    2.1246    7.9045   -1.7455 H   0  0  0  0  0  0  0  0  0  0  0  0
   -0.0488    8.2336   -0.4395 H   0  0  0  0  0  0  0  0  0  0  0  0
   -1.1477    7.8014    1.7164 H   0  0  0  0  0  0  0  0  0  0  0  0
   -1.8103    8.3961    5.5690 H   0  0  0  0  0  0  0  0  0  0  0  0
   -5.3766   10.3872    9.2559 H   0  0  0  0  0  0  0  0  0  0  0  0
   -7.1968    9.3658   10.5445 H   0  0  0  0  0  0  0  0  0  0  0  0
  1  2  2  0  0  0  0
  2  3  1  0  0  0  0
  3  4  2  0  0  0  0
  3  5  1  0  0  0  0
  5  6  2  0  0  0  0
  6  7  1  0  0  0  0
  7  8  2  0  0  0  0
  8  9  1  0  0  0  0
  9 10  1  0  0  0  0
  9 11  2  0  0  0  0
 11 12  1  0  0  0  0
  6 13  1  0  0  0  0
 13 14  2  0  0  0  0
 14 15  1  0  0  0  0
 15 16  3  0  0  0  0
 14 17  1  0  0  0  0
 17 18  3  0  0  0  0
  1 19  1  0  0  0  0
 19 20  2  0  0  0  0
 20 21  1  0  0  0  0
 21 22  1  0  0  0  0
 22 23  2  0  0  0  0
 23 24  1  0  0  0  0
 24 25  2  0  0  0  0
 25 26  1  0  0  0  0
 26 27  1  0  0  0  0
 25 28  1  0  0  0  0
 28 29  2  0  0  0  0
 21 30  1  0  0  0  0
 30 31  2  0  0  0  0
 31 32  1  0  0  0  0
 32 33  2  0  0  0  0
 33 34  1  0  0  0  0
 34 35  1  0  0  0  0
 33 36  1  0  0  0  0
 36 37  2  0  0  0  0
 20 38  1  0  0  0  0
 38 39  1  0  0  0  0
 39 40  1  0  0  0  0
 40 41  2  0  0  0  0
 41 42  1  0  0  0  0
 42 43  1  0  0  0  0
 43 44  2  0  0  0  0
 44 45  1  0  0  0  0
 45 46  2  0  0  0  0
 46 47  1  0  0  0  0
 47 48  1  0  0  0  0
 46 49  1  0  0  0  0
 49 50  2  0  0  0  0
 42 51  1  0  0  0  0
 51 52  2  0  0  0  0
 52 53  1  0  0  0  0
 53 54  2  0  0  0  0
 54 55  1  0  0  0  0
 55 56  1  0  0  0  0
 54 57  1  0  0  0  0
 57 58  2  0  0  0  0
 41 59  1  0  0  0  0
 59 60  1  0  0  0  0
 40 61  1  0  0  0  0
 61 62  2  0  0  0  0
 62 63  1  0  0  0  0
 63 64  1  0  0  0  0
 64 65  2  0  0  0  0
 65 66  1  0  0  0  0
 66 67  2  0  0  0  0
 67 68  1  0  0  0  0
 68 69  1  0  0  0  0
 67 70  1  0  0  0  0
 70 71  2  0  0  0  0
 63 72  1  0  0  0  0
 72 73  2  0  0  0  0
 73 74  1  0  0  0  0
 74 75  2  0  0  0  0
 75 76  1  0  0  0  0
 76 77  1  0  0  0  0
 75 78  1  0  0  0  0
 78 79  2  0  0  0  0
 62 80  1  0  0  0  0
 80 81  1  0  0  0  0
 81 82  1  0  0  0  0
 82 83  2  0  0  0  0
 83 84  1  0  0  0  0
 84 85  1  0  0  0  0
 85 86  2  0  0  0  0
 86 87  1  0  0  0  0
 87 88  2  0  0  0  0
 88 89  1  0  0  0  0
 89 90  1  0  0  0  0
 88 91  1  0  0  0  0
 91 92  2  0  0  0  0
 84 93  1  0  0  0  0
 93 94  2  0  0  0  0
 94 95  1  0  0  0  0
 95 96  2  0  0  0  0
 96 97  1  0  0  0  0
 97 98  1  0  0  0  0
 96 99  1  0  0  0  0
 99100  2  0  0  0  0
 83101  1  0  0  0  0
101102  1  0  0  0  0
 82103  1  0  0  0  0
103104  2  0  0  0  0
104105  1  0  0  0  0
105106  1  0  0  0  0
106107  2  0  0  0  0
107108  1  0  0  0  0
108109  2  0  0  0  0
109110  1  0  0  0  0
109111  1  0  0  0  0
111112  2  0  0  0  0
105113  1  0  0  0  0
113114  2  0  0  0  0
114115  1  0  0  0  0
115116  2  0  0  0  0
116117  1  0  0  0  0
116118  1  0  0  0  0
118119  2  0  0  0  0
104120  1  0  0  0  0
120121  1  0  0  0  0
121122  1  0  0  0  0
122123  2  0  0  0  0
123124  1  0  0  0  0
124125  1  0  0  0  0
125126  2  0  0  0  0
126127  1  0  0  0  0
127128  2  0  0  0  0
128129  1  0  0  0  0
128130  1  0  0  0  0
130131  2  0  0  0  0
124132  1  0  0  0  0
132133  2  0  0  0  0
133134  1  0  0  0  0
134135  2  0  0  0  0
135136  1  0  0  0  0
135137  1  0  0  0  0
137138  2  0  0  0  0
123139  1  0  0  0  0
139140  1  0  0  0  0
122141  1  0  0  0  0
141142  2  0  0  0  0
142143  1  0  0  0  0
143144  2  0  0  0  0
143145  1  0  0  0  0
145146  2  0  0  0  0
146147  1  0  0  0  0
147148  2  0  0  0  0
148149  1  0  0  0  0
149150  1  0  0  0  0
149151  2  0  0  0  0
151152  1  0  0  0  0
146153  1  0  0  0  0
153154  2  0  0  0  0
154155  1  0  0  0  0
155156  3  0  0  0  0
154157  1  0  0  0  0
157158  3  0  0  0  0
 13  2  1  0  0  0  0
 60 19  1  0  0  0  0
102 61  1  0  0  0  0
140103  1  0  0  0  0
153142  1  0  0  0  0
 11  5  1  0  0  0  0
 29 22  1  0  0  0  0
 37 30  1  0  0  0  0
 59 38  2  0  0  0  0
 71 64  1  0  0  0  0
 79 72  1  0  0  0  0
101 80  2  0  0  0  0
112106  1  0  0  0  0
119113  1  0  0  0  0
139120  2  0  0  0  0
151145  1  0  0  0  0
 50 43  1  0  0  0  0
 58 51  1  0  0  0  0
 92 85  1  0  0  0  0
100 93  1  0  0  0  0
131125  1  0  0  0  0
138132  1  0  0  0  0
  1159  1  0  0  0  0
  7160  1  0  0  0  0
  8161  1  0  0  0  0
 23162  1  0  0  0  0
 24163  1  0  0  0  0
 27164  1  0  0  0  0
 27165  1  0  0  0  0
 27166  1  0  0  0  0
 28167  1  0  0  0  0
 29168  1  0  0  0  0
 31169  1  0  0  0  0
 32170  1  0  0  0  0
 35171  1  0  0  0  0
 35172  1  0  0  0  0
 35173  1  0  0  0  0
 36174  1  0  0  0  0
 37175  1  0  0  0  0
 44176  1  0  0  0  0
 45177  1  0  0  0  0
 48178  1  0  0  0  0
 48179  1  0  0  0  0
 48180  1  0  0  0  0
 49181  1  0  0  0  0
 50182  1  0  0  0  0
 52183  1  0  0  0  0
 53184  1  0  0  0  0
 56185  1  0  0  0  0
 56186  1  0  0  0  0
 56187  1  0  0  0  0
 57188  1  0  0  0  0
 58189  1  0  0  0  0
 65190  1  0  0  0  0
 66191  1  0  0  0  0
 69192  1  0  0  0  0
 69193  1  0  0  0  0
 69194  1  0  0  0  0
 70195  1  0  0  0  0
 71196  1  0  0  0  0
 73197  1  0  0  0  0
 74198  1  0  0  0  0
 77199  1  0  0  0  0
 77200  1  0  0  0  0
 77201  1  0  0  0  0
 78202  1  0  0  0  0
 79203  1  0  0  0  0
 86204  1  0  0  0  0
 87205  1  0  0  0  0
 90206  1  0  0  0  0
 90207  1  0  0  0  0
 90208  1  0  0  0  0
 91209  1  0  0  0  0
 92210  1  0  0  0  0
 94211  1  0  0  0  0
 95212  1  0  0  0  0
 98213  1  0  0  0  0
 98214  1  0  0  0  0
 98215  1  0  0  0  0
 99216  1  0  0  0  0
100217  1  0  0  0  0
107218  1  0  0  0  0
108219  1  0  0  0  0
110220  1  0  0  0  0
110221  1  0  0  0  0
110222  1  0  0  0  0
111223  1  0  0  0  0
112224  1  0  0  0  0
114225  1  0  0  0  0
115226  1  0  0  0  0
117227  1  0  0  0  0
117228  1  0  0  0  0
117229  1  0  0  0  0
118230  1  0  0  0  0
119231  1  0  0  0  0
126232  1  0  0  0  0
127233  1  0  0  0  0
129234  1  0  0  0  0
129235  1  0  0  0  0
129236  1  0  0  0  0
130237  1  0  0  0  0
131238  1  0  0  0  0
133239  1  0  0  0  0
134240  1  0  0  0  0
136241  1  0  0  0  0
136242  1  0  0  0  0
136243  1  0  0  0  0
137244  1  0  0  0  0
138245  1  0  0  0  0
141246  1  0  0  0  0
147247  1  0  0  0  0
148248  1  0  0  0  0
M  END
