
  xtb     02032219323D
 energy: -184.934986460250 gnorm: 0.000186020335 xtb: 6.4.1 (unknown)
 90 98  0     0  0            999 V2000
    5.8595    4.2485   -6.0790 C   0  0  0  0  0  0  0  0  0  0  0  0
    7.0632    3.6614   -5.8882 C   0  0  0  0  0  0  0  0  0  0  0  0
    7.2899    2.5277   -4.9413 C   0  0  0  0  0  0  0  0  0  0  0  0
    6.4753    1.9900   -4.2312 O   0  0  0  0  0  0  0  0  0  0  0  0
    8.6956    2.1245   -5.1487 C   0  0  0  0  0  0  0  0  0  0  0  0
    9.2792    2.9183   -6.1546 C   0  0  0  0  0  0  0  0  0  0  0  0
   10.5981    2.7024   -6.5275 C   0  0  0  0  0  0  0  0  0  0  0  0
   11.3140    1.7024   -5.8883 C   0  0  0  0  0  0  0  0  0  0  0  0
   10.7358    0.9238   -4.8958 C   0  0  0  0  0  0  0  0  0  0  0  0
   11.7667   -0.4196   -4.0622 Br  0  0  0  0  0  0  0  0  0  0  0  0
    9.4050    1.1191   -4.5085 C   0  0  0  0  0  0  0  0  0  0  0  0
    8.6853    0.1615   -3.2892 Cl  0  0  0  0  0  0  0  0  0  0  0  0
    8.2942    3.8823   -6.6334 C   0  0  0  0  0  0  0  0  0  0  0  0
    8.5139    4.8482   -7.5754 C   0  0  0  0  0  0  0  0  0  0  0  0
    7.5575    5.7964   -8.0017 C   0  0  0  0  0  0  0  0  0  0  0  0
    6.8356    6.5970   -8.3949 N   0  0  0  0  0  0  0  0  0  0  0  0
    9.7381    5.0338   -8.2555 C   0  0  0  0  0  0  0  0  0  0  0  0
   10.7017    5.2322   -8.8453 N   0  0  0  0  0  0  0  0  0  0  0  0
    4.7197    4.0434   -5.2097 C   0  0  0  0  0  0  0  0  0  0  0  0
    4.8248    4.1002   -3.8142 C   0  0  0  0  0  0  0  0  0  0  0  0
    5.9862    4.4809   -3.2589 F   0  0  0  0  0  0  0  0  0  0  0  0
    3.7624    3.8295   -2.9863 C   0  0  0  0  0  0  0  0  0  0  0  0
    2.5188    3.4570   -3.5090 C   0  0  0  0  0  0  0  0  0  0  0  0
    2.3980    3.4839   -4.9062 C   0  0  0  0  0  0  0  0  0  0  0  0
    1.2139    3.2100   -5.4881 F   0  0  0  0  0  0  0  0  0  0  0  0
    3.4539    3.7845   -5.7367 C   0  0  0  0  0  0  0  0  0  0  0  0
    1.4623    3.0210   -2.6275 C   0  0  0  0  0  0  0  0  0  0  0  0
    0.3566    2.2802   -2.9276 C   0  0  0  0  0  0  0  0  0  0  0  0
   -0.3921    1.8798   -1.7920 C   0  0  0  0  0  0  0  0  0  0  0  0
   -1.5178    1.0467   -1.7537 C   0  0  0  0  0  0  0  0  0  0  0  0
   -2.1376    0.4799   -2.9943 C   0  0  0  0  0  0  0  0  0  0  0  0
   -1.4321   -0.8125   -3.4118 C   0  0  0  0  0  0  0  0  0  0  0  0
   -1.9802    0.7053   -0.4958 C   0  0  0  0  0  0  0  0  0  0  0  0
   -1.4146    1.1970    0.7098 C   0  0  0  0  0  0  0  0  0  0  0  0
   -0.3168    2.0710    0.6697 C   0  0  0  0  0  0  0  0  0  0  0  0
    0.2803    2.6593    1.9113 C   0  0  0  0  0  0  0  0  0  0  0  0
   -0.5255    3.8762    2.3716 C   0  0  0  0  0  0  0  0  0  0  0  0
    0.1738    2.3710   -0.5858 C   0  0  0  0  0  0  0  0  0  0  0  0
    1.5994    3.3216   -0.9041 S   0  0  0  0  0  0  0  0  0  0  0  0
   -2.0536    0.6468    1.8457 C   0  0  0  0  0  0  0  0  0  0  0  0
   -3.0392   -0.2543    1.5445 C   0  0  0  0  0  0  0  0  0  0  0  0
   -3.2648   -0.4251   -0.1805 S   0  0  0  0  0  0  0  0  0  0  0  0
   -3.7721   -1.0573    2.4915 C   0  0  0  0  0  0  0  0  0  0  0  0
   -4.3831   -2.2748    2.1502 C   0  0  0  0  0  0  0  0  0  0  0  0
   -4.3601   -2.6876    0.8704 F   0  0  0  0  0  0  0  0  0  0  0  0
   -4.9704   -3.1088    3.0715 C   0  0  0  0  0  0  0  0  0  0  0  0
   -5.0096   -2.7635    4.4283 C   0  0  0  0  0  0  0  0  0  0  0  0
   -4.4471   -1.5140    4.7607 C   0  0  0  0  0  0  0  0  0  0  0  0
   -4.4940   -1.0985    6.0383 F   0  0  0  0  0  0  0  0  0  0  0  0
   -3.8523   -0.6873    3.8407 C   0  0  0  0  0  0  0  0  0  0  0  0
   -5.4604   -3.6070    5.4958 C   0  0  0  0  0  0  0  0  0  0  0  0
   -6.2074   -4.7444    5.5118 C   0  0  0  0  0  0  0  0  0  0  0  0
   -7.0663   -5.3144    4.4388 C   0  0  0  0  0  0  0  0  0  0  0  0
   -7.1224   -5.0037    3.2721 O   0  0  0  0  0  0  0  0  0  0  0  0
   -7.8988   -6.3387    5.1070 C   0  0  0  0  0  0  0  0  0  0  0  0
   -7.5324   -6.4497    6.4609 C   0  0  0  0  0  0  0  0  0  0  0  0
   -8.1897   -7.3479    7.2879 C   0  0  0  0  0  0  0  0  0  0  0  0
   -9.1988   -8.1295    6.7473 C   0  0  0  0  0  0  0  0  0  0  0  0
   -9.5513   -8.0254    5.4095 C   0  0  0  0  0  0  0  0  0  0  0  0
  -10.9270   -9.1280    4.7331 Br  0  0  0  0  0  0  0  0  0  0  0  0
   -8.9058   -7.1199    4.5589 C   0  0  0  0  0  0  0  0  0  0  0  0
   -9.3422   -6.9883    2.9107 Cl  0  0  0  0  0  0  0  0  0  0  0  0
   -6.4341   -5.5274    6.7216 C   0  0  0  0  0  0  0  0  0  0  0  0
   -5.6780   -5.4984    7.8608 C   0  0  0  0  0  0  0  0  0  0  0  0
   -4.5104   -4.7243    8.0519 C   0  0  0  0  0  0  0  0  0  0  0  0
   -3.5319   -4.1683    8.2763 N   0  0  0  0  0  0  0  0  0  0  0  0
   -5.9267   -6.3024    8.9952 C   0  0  0  0  0  0  0  0  0  0  0  0
   -6.0806   -6.9218    9.9486 N   0  0  0  0  0  0  0  0  0  0  0  0
    5.6946    4.8908   -6.9340 H   0  0  0  0  0  0  0  0  0  0  0  0
   11.0742    3.2866   -7.2969 H   0  0  0  0  0  0  0  0  0  0  0  0
   12.3415    1.5195   -6.1631 H   0  0  0  0  0  0  0  0  0  0  0  0
    3.9094    3.8712   -1.9183 H   0  0  0  0  0  0  0  0  0  0  0  0
    3.3032    3.7655   -6.8050 H   0  0  0  0  0  0  0  0  0  0  0  0
    0.0993    1.9821   -3.9261 H   0  0  0  0  0  0  0  0  0  0  0  0
   -3.1906    0.2641   -2.7998 H   0  0  0  0  0  0  0  0  0  0  0  0
   -2.0818    1.2076   -3.8050 H   0  0  0  0  0  0  0  0  0  0  0  0
   -0.3776   -0.6285   -3.6045 H   0  0  0  0  0  0  0  0  0  0  0  0
   -1.5143   -1.5576   -2.6240 H   0  0  0  0  0  0  0  0  0  0  0  0
   -1.8870   -1.2125   -4.3142 H   0  0  0  0  0  0  0  0  0  0  0  0
    0.3037    1.9124    2.7066 H   0  0  0  0  0  0  0  0  0  0  0  0
    1.3073    2.9669    1.7033 H   0  0  0  0  0  0  0  0  0  0  0  0
   -0.5260    4.6412    1.5987 H   0  0  0  0  0  0  0  0  0  0  0  0
   -0.0897    4.2966    3.2742 H   0  0  0  0  0  0  0  0  0  0  0  0
   -1.5564    3.5973    2.5783 H   0  0  0  0  0  0  0  0  0  0  0  0
   -1.7522    0.8708    2.8523 H   0  0  0  0  0  0  0  0  0  0  0  0
   -5.3931   -4.0377    2.7277 H   0  0  0  0  0  0  0  0  0  0  0  0
   -3.4474    0.2534    4.1760 H   0  0  0  0  0  0  0  0  0  0  0  0
   -5.1246   -3.2580    6.4667 H   0  0  0  0  0  0  0  0  0  0  0  0
   -7.9404   -7.4476    8.3309 H   0  0  0  0  0  0  0  0  0  0  0  0
   -9.7232   -8.8357    7.3725 H   0  0  0  0  0  0  0  0  0  0  0  0
  1  2  2  0  0  0  0
  2  3  1  0  0  0  0
  3  4  2  0  0  0  0
  3  5  1  0  0  0  0
  5  6  2  0  0  0  0
  6  7  1  0  0  0  0
  7  8  2  0  0  0  0
  8  9  1  0  0  0  0
  9 10  1  0  0  0  0
  9 11  2  0  0  0  0
 11 12  1  0  0  0  0
  6 13  1  0  0  0  0
 13 14  2  0  0  0  0
 14 15  1  0  0  0  0
 15 16  3  0  0  0  0
 14 17  1  0  0  0  0
 17 18  3  0  0  0  0
  1 19  1  0  0  0  0
 19 20  2  0  0  0  0
 20 21  1  0  0  0  0
 20 22  1  0  0  0  0
 22 23  2  0  0  0  0
 23 24  1  0  0  0  0
 24 25  1  0  0  0  0
 24 26  2  0  0  0  0
 23 27  1  0  0  0  0
 27 28  2  0  0  0  0
 28 29  1  0  0  0  0
 29 30  2  0  0  0  0
 30 31  1  0  0  0  0
 31 32  1  0  0  0  0
 30 33  1  0  0  0  0
 33 34  2  0  0  0  0
 34 35  1  0  0  0  0
 35 36  1  0  0  0  0
 36 37  1  0  0  0  0
 35 38  2  0  0  0  0
 38 39  1  0  0  0  0
 34 40  1  0  0  0  0
 40 41  2  0  0  0  0
 41 42  1  0  0  0  0
 41 43  1  0  0  0  0
 43 44  2  0  0  0  0
 44 45  1  0  0  0  0
 44 46  1  0  0  0  0
 46 47  2  0  0  0  0
 47 48  1  0  0  0  0
 48 49  1  0  0  0  0
 48 50  2  0  0  0  0
 47 51  1  0  0  0  0
 51 52  2  0  0  0  0
 52 53  1  0  0  0  0
 53 54  2  0  0  0  0
 53 55  1  0  0  0  0
 55 56  2  0  0  0  0
 56 57  1  0  0  0  0
 57 58  2  0  0  0  0
 58 59  1  0  0  0  0
 59 60  1  0  0  0  0
 59 61  2  0  0  0  0
 61 62  1  0  0  0  0
 56 63  1  0  0  0  0
 63 64  2  0  0  0  0
 64 65  1  0  0  0  0
 65 66  3  0  0  0  0
 64 67  1  0  0  0  0
 67 68  3  0  0  0  0
 13  2  1  0  0  0  0
 26 19  1  0  0  0  0
 39 27  1  0  0  0  0
 50 43  1  0  0  0  0
 63 52  1  0  0  0  0
 11  5  1  0  0  0  0
 38 29  1  0  0  0  0
 61 55  1  0  0  0  0
 42 33  1  0  0  0  0
  1 69  1  0  0  0  0
  7 70  1  0  0  0  0
  8 71  1  0  0  0  0
 22 72  1  0  0  0  0
 26 73  1  0  0  0  0
 28 74  1  0  0  0  0
 31 75  1  0  0  0  0
 31 76  1  0  0  0  0
 32 77  1  0  0  0  0
 32 78  1  0  0  0  0
 32 79  1  0  0  0  0
 36 80  1  0  0  0  0
 36 81  1  0  0  0  0
 37 82  1  0  0  0  0
 37 83  1  0  0  0  0
 37 84  1  0  0  0  0
 40 85  1  0  0  0  0
 46 86  1  0  0  0  0
 50 87  1  0  0  0  0
 51 88  1  0  0  0  0
 57 89  1  0  0  0  0
 58 90  1  0  0  0  0
M  END
