
  xtb     02042200523D
 energy: -355.293061251070 gnorm: 0.000684860684 xtb: 6.4.1 (unknown)
204223  0     0  0            999 V2000
   -8.7225    4.4719   -6.8225 C   0  0  0  0  0  0  0  0  0  0  0  0
   -8.5205    5.6196   -7.5258 C   0  0  0  0  0  0  0  0  0  0  0  0
   -9.5999    6.1083   -8.4246 C   0  0  0  0  0  0  0  0  0  0  0  0
  -10.7593    5.7716   -8.4137 O   0  0  0  0  0  0  0  0  0  0  0  0
   -8.9227    7.0364   -9.3600 C   0  0  0  0  0  0  0  0  0  0  0  0
   -7.5800    7.2024   -8.9680 C   0  0  0  0  0  0  0  0  0  0  0  0
   -6.7277    7.9975   -9.7157 C   0  0  0  0  0  0  0  0  0  0  0  0
   -7.2296    8.6254  -10.8458 C   0  0  0  0  0  0  0  0  0  0  0  0
   -8.5559    8.4739  -11.2216 C   0  0  0  0  0  0  0  0  0  0  0  0
   -9.1806    9.3673  -12.7645 Br  0  0  0  0  0  0  0  0  0  0  0  0
   -9.4320    7.6710  -10.4822 C   0  0  0  0  0  0  0  0  0  0  0  0
  -11.0679    7.4785  -10.9459 Cl  0  0  0  0  0  0  0  0  0  0  0  0
   -7.3603    6.4592   -7.7282 C   0  0  0  0  0  0  0  0  0  0  0  0
   -6.3742    6.7341   -6.8192 C   0  0  0  0  0  0  0  0  0  0  0  0
   -6.3589    6.2673   -5.4861 C   0  0  0  0  0  0  0  0  0  0  0  0
   -6.3086    6.0001   -4.3707 N   0  0  0  0  0  0  0  0  0  0  0  0
   -5.2928    7.6037   -7.0689 C   0  0  0  0  0  0  0  0  0  0  0  0
   -4.3744    8.2751   -7.2217 N   0  0  0  0  0  0  0  0  0  0  0  0
   -7.7807    3.5937   -6.2393 C   0  0  0  0  0  0  0  0  0  0  0  0
   -8.0821    2.5644   -5.3795 C   0  0  0  0  0  0  0  0  0  0  0  0
   -6.9619    1.8321   -4.9392 C   0  0  0  0  0  0  0  0  0  0  0  0
   -6.9249    0.7610   -4.0143 C   0  0  0  0  0  0  0  0  0  0  0  0
   -8.1247    0.1761   -3.4595 C   0  0  0  0  0  0  0  0  0  0  0  0
   -8.3241   -0.3217   -2.1992 C   0  0  0  0  0  0  0  0  0  0  0  0
   -9.6104   -0.8565   -2.0034 C   0  0  0  0  0  0  0  0  0  0  0  0
  -10.4020   -0.7888   -3.1099 C   0  0  0  0  0  0  0  0  0  0  0  0
  -11.7923   -1.2907   -3.2897 C   0  0  0  0  0  0  0  0  0  0  0  0
  -11.8143   -2.5704   -4.1287 C   0  0  0  0  0  0  0  0  0  0  0  0
   -9.5603   -0.0433   -4.4247 S   0  0  0  0  0  0  0  0  0  0  0  0
   -5.6580    0.3211   -3.6450 C   0  0  0  0  0  0  0  0  0  0  0  0
   -4.4631    0.8750   -4.1642 C   0  0  0  0  0  0  0  0  0  0  0  0
   -4.4935    1.9185   -5.1093 C   0  0  0  0  0  0  0  0  0  0  0  0
   -3.2933    2.6050   -5.5460 C   0  0  0  0  0  0  0  0  0  0  0  0
   -3.1219    3.9574   -5.6694 C   0  0  0  0  0  0  0  0  0  0  0  0
   -1.8135    4.3278   -6.0322 C   0  0  0  0  0  0  0  0  0  0  0  0
   -0.9731    3.2699   -6.1964 C   0  0  0  0  0  0  0  0  0  0  0  0
    0.4595    3.2746   -6.6000 C   0  0  0  0  0  0  0  0  0  0  0  0
    0.6324    2.8204   -8.0503 C   0  0  0  0  0  0  0  0  0  0  0  0
   -1.8018    1.7768   -5.9059 S   0  0  0  0  0  0  0  0  0  0  0  0
   -5.7576    2.3542   -5.4792 C   0  0  0  0  0  0  0  0  0  0  0  0
   -6.0685    3.6394   -6.6059 S   0  0  0  0  0  0  0  0  0  0  0  0
   -3.3222    0.3695   -3.5051 C   0  0  0  0  0  0  0  0  0  0  0  0
   -3.6003   -0.5259   -2.5183 C   0  0  0  0  0  0  0  0  0  0  0  0
   -5.3090   -0.8841   -2.4269 S   0  0  0  0  0  0  0  0  0  0  0  0
   -2.6469   -0.8831   -1.5105 C   0  0  0  0  0  0  0  0  0  0  0  0
   -1.8092    0.0603   -0.9350 C   0  0  0  0  0  0  0  0  0  0  0  0
   -1.8492    1.4358   -1.1790 N   0  0  0  0  0  0  0  0  0  0  0  0
   -3.0999    2.0691   -1.2534 C   0  0  0  0  0  0  0  0  0  0  0  0
   -4.1360    1.6385   -0.4268 C   0  0  0  0  0  0  0  0  0  0  0  0
   -5.4174    2.1330   -0.5724 C   0  0  0  0  0  0  0  0  0  0  0  0
   -5.6876    3.0931   -1.5378 C   0  0  0  0  0  0  0  0  0  0  0  0
   -7.2963    3.7119   -1.9119 S   0  0  0  0  0  0  0  0  0  0  0  0
   -8.3443    3.0328   -0.5903 C   0  0  0  0  0  0  0  0  0  0  0  0
   -4.6388    3.5927   -2.3062 C   0  0  0  0  0  0  0  0  0  0  0  0
   -3.3651    3.0863   -2.1728 C   0  0  0  0  0  0  0  0  0  0  0  0
   -0.7031    2.0224   -1.7356 C   0  0  0  0  0  0  0  0  0  0  0  0
    0.1493    1.2730   -2.5479 C   0  0  0  0  0  0  0  0  0  0  0  0
    1.2551    1.8563   -3.1249 C   0  0  0  0  0  0  0  0  0  0  0  0
    1.5397    3.2015   -2.9060 C   0  0  0  0  0  0  0  0  0  0  0  0
    2.9712    3.8532   -3.7108 S   0  0  0  0  0  0  0  0  0  0  0  0
    3.3538    5.3498   -2.7589 C   0  0  0  0  0  0  0  0  0  0  0  0
    0.7012    3.9496   -2.0877 C   0  0  0  0  0  0  0  0  0  0  0  0
   -0.4028    3.3619   -1.5019 C   0  0  0  0  0  0  0  0  0  0  0  0
   -0.9194   -0.5510   -0.0261 C   0  0  0  0  0  0  0  0  0  0  0  0
    0.3733    0.0238    0.9561 S   0  0  0  0  0  0  0  0  0  0  0  0
    0.6805   -1.6095    1.5646 C   0  0  0  0  0  0  0  0  0  0  0  0
   -0.1670   -2.5484    0.9788 C   0  0  0  0  0  0  0  0  0  0  0  0
   -0.1460   -3.9228    1.1452 N   0  0  0  0  0  0  0  0  0  0  0  0
    1.0527   -4.6425    1.1308 C   0  0  0  0  0  0  0  0  0  0  0  0
    1.1769   -5.8156    1.8747 C   0  0  0  0  0  0  0  0  0  0  0  0
    2.3832   -6.4801    1.9465 C   0  0  0  0  0  0  0  0  0  0  0  0
    3.4915   -5.9866    1.2697 C   0  0  0  0  0  0  0  0  0  0  0  0
    5.0971   -6.7060    1.3676 S   0  0  0  0  0  0  0  0  0  0  0  0
    4.7787   -8.3851    1.9733 C   0  0  0  0  0  0  0  0  0  0  0  0
    3.3611   -4.8406    0.4882 C   0  0  0  0  0  0  0  0  0  0  0  0
    2.1559   -4.1799    0.4110 C   0  0  0  0  0  0  0  0  0  0  0  0
   -1.3776   -4.5956    1.1609 C   0  0  0  0  0  0  0  0  0  0  0  0
   -2.4549   -4.0547    1.8573 C   0  0  0  0  0  0  0  0  0  0  0  0
   -3.6843   -4.6838    1.8580 C   0  0  0  0  0  0  0  0  0  0  0  0
   -3.8540   -5.8748    1.1654 C   0  0  0  0  0  0  0  0  0  0  0  0
   -5.3702   -6.7722    1.0918 S   0  0  0  0  0  0  0  0  0  0  0  0
   -6.5689   -5.6700    1.8945 C   0  0  0  0  0  0  0  0  0  0  0  0
   -2.7727   -6.4279    0.4800 C   0  0  0  0  0  0  0  0  0  0  0  0
   -1.5504   -5.7967    0.4723 C   0  0  0  0  0  0  0  0  0  0  0  0
   -1.0927   -1.9183    0.1051 C   0  0  0  0  0  0  0  0  0  0  0  0
   -2.4005   -2.4936   -0.8770 S   0  0  0  0  0  0  0  0  0  0  0  0
    1.7305   -1.7275    2.5160 C   0  0  0  0  0  0  0  0  0  0  0  0
    2.5491   -0.6980    2.9107 C   0  0  0  0  0  0  0  0  0  0  0  0
    3.5903   -1.0789    3.7812 C   0  0  0  0  0  0  0  0  0  0  0  0
    4.6535   -0.2973    4.2727 C   0  0  0  0  0  0  0  0  0  0  0  0
    4.7720    1.1301    3.9421 C   0  0  0  0  0  0  0  0  0  0  0  0
    5.0188    2.0739    4.9351 C   0  0  0  0  0  0  0  0  0  0  0  0
    5.1181    3.4149    4.6085 C   0  0  0  0  0  0  0  0  0  0  0  0
    4.9333    3.8366    3.3059 C   0  0  0  0  0  0  0  0  0  0  0  0
    4.6727    2.9004    2.3116 C   0  0  0  0  0  0  0  0  0  0  0  0
    4.3813    3.4966    0.6689 S   0  0  0  0  0  0  0  0  0  0  0  0
    3.2003    2.2659    0.0024 C   0  0  0  0  0  0  0  0  0  0  0  0
    3.8515    1.2384   -0.9025 C   0  0  0  0  0  0  0  0  0  0  0  0
    4.6310    1.5517    2.6228 C   0  0  0  0  0  0  0  0  0  0  0  0
    5.5920   -0.9461    5.0610 C   0  0  0  0  0  0  0  0  0  0  0  0
    5.5237   -2.3390    5.3508 C   0  0  0  0  0  0  0  0  0  0  0  0
    4.4610   -3.1274    4.8514 C   0  0  0  0  0  0  0  0  0  0  0  0
    4.4095   -4.5788    5.0587 C   0  0  0  0  0  0  0  0  0  0  0  0
    3.2320   -5.1996    5.4634 C   0  0  0  0  0  0  0  0  0  0  0  0
    3.2031   -6.5716    5.6464 C   0  0  0  0  0  0  0  0  0  0  0  0
    4.3397   -7.3279    5.4468 C   0  0  0  0  0  0  0  0  0  0  0  0
    5.5245   -6.7157    5.0355 C   0  0  0  0  0  0  0  0  0  0  0  0
    6.9167   -7.7817    4.8268 S   0  0  0  0  0  0  0  0  0  0  0  0
    8.3460   -6.6752    4.5745 C   0  0  0  0  0  0  0  0  0  0  0  0
    8.5213   -6.2715    3.1227 C   0  0  0  0  0  0  0  0  0  0  0  0
    5.5482   -5.3473    4.8233 C   0  0  0  0  0  0  0  0  0  0  0  0
    3.5089   -2.4605    4.1091 C   0  0  0  0  0  0  0  0  0  0  0  0
    2.1367   -3.2158    3.3435 S   0  0  0  0  0  0  0  0  0  0  0  0
    6.6086   -2.7521    6.1312 C   0  0  0  0  0  0  0  0  0  0  0  0
    7.5248   -1.7489    6.4069 C   0  0  0  0  0  0  0  0  0  0  0  0
    7.0148   -0.2081    5.7457 S   0  0  0  0  0  0  0  0  0  0  0  0
    8.7360   -2.0290    7.0603 C   0  0  0  0  0  0  0  0  0  0  0  0
    9.7826   -1.2100    7.3943 C   0  0  0  0  0  0  0  0  0  0  0  0
    9.7855    0.2596    7.3372 C   0  0  0  0  0  0  0  0  0  0  0  0
    8.9328    0.9883    6.8757 O   0  0  0  0  0  0  0  0  0  0  0  0
   11.0447    0.6774    7.9954 C   0  0  0  0  0  0  0  0  0  0  0  0
   11.7761   -0.4630    8.3781 C   0  0  0  0  0  0  0  0  0  0  0  0
   12.9921   -0.3215    9.0269 C   0  0  0  0  0  0  0  0  0  0  0  0
   13.4627    0.9583    9.2825 C   0  0  0  0  0  0  0  0  0  0  0  0
   12.7422    2.0787    8.8985 C   0  0  0  0  0  0  0  0  0  0  0  0
   13.4411    3.7937    9.2718 Br  0  0  0  0  0  0  0  0  0  0  0  0
   11.5107    1.9581    8.2437 C   0  0  0  0  0  0  0  0  0  0  0  0
   10.6175    3.3382    7.7679 Cl  0  0  0  0  0  0  0  0  0  0  0  0
   11.0373   -1.6525    7.9604 C   0  0  0  0  0  0  0  0  0  0  0  0
   11.5079   -2.9414    8.0101 C   0  0  0  0  0  0  0  0  0  0  0  0
   12.7476   -3.3096    8.5717 C   0  0  0  0  0  0  0  0  0  0  0  0
   13.7391   -3.6726    9.0223 N   0  0  0  0  0  0  0  0  0  0  0  0
   10.8531   -4.0622    7.4585 C   0  0  0  0  0  0  0  0  0  0  0  0
   10.3971   -5.0117    6.9990 N   0  0  0  0  0  0  0  0  0  0  0  0
   -9.7553    4.1392   -6.7759 H   0  0  0  0  0  0  0  0  0  0  0  0
   -5.6923    8.1260   -9.4467 H   0  0  0  0  0  0  0  0  0  0  0  0
   -6.5834    9.2459  -11.4474 H   0  0  0  0  0  0  0  0  0  0  0  0
   -9.0862    2.3920   -5.0387 H   0  0  0  0  0  0  0  0  0  0  0  0
   -7.5804   -0.2810   -1.4242 H   0  0  0  0  0  0  0  0  0  0  0  0
   -9.9402   -1.2779   -1.0701 H   0  0  0  0  0  0  0  0  0  0  0  0
  -12.3984   -0.5284   -3.7851 H   0  0  0  0  0  0  0  0  0  0  0  0
  -12.2249   -1.4878   -2.3065 H   0  0  0  0  0  0  0  0  0  0  0  0
  -12.8343   -2.9280   -4.2421 H   0  0  0  0  0  0  0  0  0  0  0  0
  -11.4002   -2.3805   -5.1164 H   0  0  0  0  0  0  0  0  0  0  0  0
  -11.2233   -3.3477   -3.6496 H   0  0  0  0  0  0  0  0  0  0  0  0
   -3.8937    4.6743   -5.4553 H   0  0  0  0  0  0  0  0  0  0  0  0
   -1.5064    5.3507   -6.1583 H   0  0  0  0  0  0  0  0  0  0  0  0
    1.0295    2.6125   -5.9446 H   0  0  0  0  0  0  0  0  0  0  0  0
    0.8525    4.2857   -6.4823 H   0  0  0  0  0  0  0  0  0  0  0  0
    0.0918    3.4838   -8.7218 H   0  0  0  0  0  0  0  0  0  0  0  0
    1.6843    2.8307   -8.3221 H   0  0  0  0  0  0  0  0  0  0  0  0
    0.2485    1.8106   -8.1787 H   0  0  0  0  0  0  0  0  0  0  0  0
   -2.3210    0.6875   -3.7247 H   0  0  0  0  0  0  0  0  0  0  0  0
   -3.9431    0.8811    0.3192 H   0  0  0  0  0  0  0  0  0  0  0  0
   -6.1968    1.7508    0.0673 H   0  0  0  0  0  0  0  0  0  0  0  0
   -8.4224    1.9539   -0.6882 H   0  0  0  0  0  0  0  0  0  0  0  0
   -9.3208    3.4841   -0.7345 H   0  0  0  0  0  0  0  0  0  0  0  0
   -7.9472    3.3178    0.3791 H   0  0  0  0  0  0  0  0  0  0  0  0
   -4.8474    4.3662   -3.0289 H   0  0  0  0  0  0  0  0  0  0  0  0
   -2.5789    3.4577   -2.8117 H   0  0  0  0  0  0  0  0  0  0  0  0
   -0.0632    0.2301   -2.7345 H   0  0  0  0  0  0  0  0  0  0  0  0
    1.9091    1.2756   -3.7573 H   0  0  0  0  0  0  0  0  0  0  0  0
    2.6080    6.1176   -2.9431 H   0  0  0  0  0  0  0  0  0  0  0  0
    4.3208    5.6850   -3.1209 H   0  0  0  0  0  0  0  0  0  0  0  0
    3.4227    5.1041   -1.7031 H   0  0  0  0  0  0  0  0  0  0  0  0
    0.9020    4.9913   -1.8951 H   0  0  0  0  0  0  0  0  0  0  0  0
   -1.0452    3.9466   -0.8610 H   0  0  0  0  0  0  0  0  0  0  0  0
    0.3288   -6.1852    2.4308 H   0  0  0  0  0  0  0  0  0  0  0  0
    2.4559   -7.3653    2.5570 H   0  0  0  0  0  0  0  0  0  0  0  0
    5.7285   -8.9062    1.9082 H   0  0  0  0  0  0  0  0  0  0  0  0
    4.4527   -8.3556    3.0085 H   0  0  0  0  0  0  0  0  0  0  0  0
    4.0422   -8.8651    1.3359 H   0  0  0  0  0  0  0  0  0  0  0  0
    4.2192   -4.4735   -0.0537 H   0  0  0  0  0  0  0  0  0  0  0  0
    2.0668   -3.2907   -0.1954 H   0  0  0  0  0  0  0  0  0  0  0  0
   -2.3255   -3.1327    2.4057 H   0  0  0  0  0  0  0  0  0  0  0  0
   -4.4962   -4.2369    2.4083 H   0  0  0  0  0  0  0  0  0  0  0  0
   -6.3291   -5.5576    2.9479 H   0  0  0  0  0  0  0  0  0  0  0  0
   -7.5317   -6.1601    1.7886 H   0  0  0  0  0  0  0  0  0  0  0  0
   -6.5837   -4.7109    1.3853 H   0  0  0  0  0  0  0  0  0  0  0  0
   -2.9116   -7.3534   -0.0573 H   0  0  0  0  0  0  0  0  0  0  0  0
   -0.7238   -6.2211   -0.0772 H   0  0  0  0  0  0  0  0  0  0  0  0
    2.4026    0.3098    2.5675 H   0  0  0  0  0  0  0  0  0  0  0  0
    5.1163    1.7606    5.9628 H   0  0  0  0  0  0  0  0  0  0  0  0
    5.3199    4.1407    5.3815 H   0  0  0  0  0  0  0  0  0  0  0  0
    4.9812    4.8832    3.0480 H   0  0  0  0  0  0  0  0  0  0  0  0
    2.7002    1.8076    0.8530 H   0  0  0  0  0  0  0  0  0  0  0  0
    2.4636    2.8460   -0.5514 H   0  0  0  0  0  0  0  0  0  0  0  0
    4.6343    0.6891   -0.3843 H   0  0  0  0  0  0  0  0  0  0  0  0
    3.0970    0.5334   -1.2469 H   0  0  0  0  0  0  0  0  0  0  0  0
    4.2928    1.7259   -1.7683 H   0  0  0  0  0  0  0  0  0  0  0  0
    4.5106    0.8112    1.8483 H   0  0  0  0  0  0  0  0  0  0  0  0
    2.3517   -4.6082    5.6619 H   0  0  0  0  0  0  0  0  0  0  0  0
    2.2891   -7.0516    5.9635 H   0  0  0  0  0  0  0  0  0  0  0  0
    4.3320   -8.3948    5.6150 H   0  0  0  0  0  0  0  0  0  0  0  0
    9.1985   -7.2604    4.9186 H   0  0  0  0  0  0  0  0  0  0  0  0
    8.2330   -5.8199    5.2384 H   0  0  0  0  0  0  0  0  0  0  0  0
    9.3669   -5.5920    3.0325 H   0  0  0  0  0  0  0  0  0  0  0  0
    8.7138   -7.1485    2.5091 H   0  0  0  0  0  0  0  0  0  0  0  0
    7.6321   -5.7803    2.7330 H   0  0  0  0  0  0  0  0  0  0  0  0
    6.4332   -4.8585    4.4504 H   0  0  0  0  0  0  0  0  0  0  0  0
    6.7358   -3.7556    6.4975 H   0  0  0  0  0  0  0  0  0  0  0  0
    8.8448   -3.0770    7.3143 H   0  0  0  0  0  0  0  0  0  0  0  0
   13.5727   -1.1736    9.3385 H   0  0  0  0  0  0  0  0  0  0  0  0
   14.4068    1.0911    9.7878 H   0  0  0  0  0  0  0  0  0  0  0  0
  1  2  2  0  0  0  0
  2  3  1  0  0  0  0
  3  4  2  0  0  0  0
  3  5  1  0  0  0  0
  5  6  2  0  0  0  0
  6  7  1  0  0  0  0
  7  8  2  0  0  0  0
  8  9  1  0  0  0  0
  9 10  1  0  0  0  0
  9 11  2  0  0  0  0
 11 12  1  0  0  0  0
  6 13  1  0  0  0  0
 13 14  2  0  0  0  0
 14 15  1  0  0  0  0
 15 16  3  0  0  0  0
 14 17  1  0  0  0  0
 17 18  3  0  0  0  0
  1 19  1  0  0  0  0
 19 20  2  0  0  0  0
 20 21  1  0  0  0  0
 21 22  2  0  0  0  0
 22 23  1  0  0  0  0
 23 24  2  0  0  0  0
 24 25  1  0  0  0  0
 25 26  2  0  0  0  0
 26 27  1  0  0  0  0
 27 28  1  0  0  0  0
 26 29  1  0  0  0  0
 22 30  1  0  0  0  0
 30 31  2  0  0  0  0
 31 32  1  0  0  0  0
 32 33  1  0  0  0  0
 33 34  2  0  0  0  0
 34 35  1  0  0  0  0
 35 36  2  0  0  0  0
 36 37  1  0  0  0  0
 37 38  1  0  0  0  0
 36 39  1  0  0  0  0
 32 40  2  0  0  0  0
 40 41  1  0  0  0  0
 31 42  1  0  0  0  0
 42 43  2  0  0  0  0
 43 44  1  0  0  0  0
 43 45  1  0  0  0  0
 45 46  2  0  0  0  0
 46 47  1  0  0  0  0
 47 48  1  0  0  0  0
 48 49  2  0  0  0  0
 49 50  1  0  0  0  0
 50 51  2  0  0  0  0
 51 52  1  0  0  0  0
 52 53  1  0  0  0  0
 51 54  1  0  0  0  0
 54 55  2  0  0  0  0
 47 56  1  0  0  0  0
 56 57  2  0  0  0  0
 57 58  1  0  0  0  0
 58 59  2  0  0  0  0
 59 60  1  0  0  0  0
 60 61  1  0  0  0  0
 59 62  1  0  0  0  0
 62 63  2  0  0  0  0
 46 64  1  0  0  0  0
 64 65  1  0  0  0  0
 65 66  1  0  0  0  0
 66 67  2  0  0  0  0
 67 68  1  0  0  0  0
 68 69  1  0  0  0  0
 69 70  2  0  0  0  0
 70 71  1  0  0  0  0
 71 72  2  0  0  0  0
 72 73  1  0  0  0  0
 73 74  1  0  0  0  0
 72 75  1  0  0  0  0
 75 76  2  0  0  0  0
 68 77  1  0  0  0  0
 77 78  2  0  0  0  0
 78 79  1  0  0  0  0
 79 80  2  0  0  0  0
 80 81  1  0  0  0  0
 81 82  1  0  0  0  0
 80 83  1  0  0  0  0
 83 84  2  0  0  0  0
 67 85  1  0  0  0  0
 85 86  1  0  0  0  0
 66 87  1  0  0  0  0
 87 88  2  0  0  0  0
 88 89  1  0  0  0  0
 89 90  2  0  0  0  0
 90 91  1  0  0  0  0
 91 92  2  0  0  0  0
 92 93  1  0  0  0  0
 93 94  2  0  0  0  0
 94 95  1  0  0  0  0
 95 96  1  0  0  0  0
 96 97  1  0  0  0  0
 97 98  1  0  0  0  0
 95 99  2  0  0  0  0
 90100  1  0  0  0  0
100101  2  0  0  0  0
101102  1  0  0  0  0
102103  1  0  0  0  0
103104  2  0  0  0  0
104105  1  0  0  0  0
105106  2  0  0  0  0
106107  1  0  0  0  0
107108  1  0  0  0  0
108109  1  0  0  0  0
109110  1  0  0  0  0
107111  2  0  0  0  0
102112  2  0  0  0  0
112113  1  0  0  0  0
101114  1  0  0  0  0
114115  2  0  0  0  0
115116  1  0  0  0  0
115117  1  0  0  0  0
117118  2  0  0  0  0
118119  1  0  0  0  0
119120  2  0  0  0  0
119121  1  0  0  0  0
121122  2  0  0  0  0
122123  1  0  0  0  0
123124  2  0  0  0  0
124125  1  0  0  0  0
125126  1  0  0  0  0
125127  2  0  0  0  0
127128  1  0  0  0  0
122129  1  0  0  0  0
129130  2  0  0  0  0
130131  1  0  0  0  0
131132  3  0  0  0  0
130133  1  0  0  0  0
133134  3  0  0  0  0
 13  2  1  0  0  0  0
 41 19  1  0  0  0  0
 86 45  1  0  0  0  0
113 87  1  0  0  0  0
129118  1  0  0  0  0
 11  5  1  0  0  0  0
 40 21  1  0  0  0  0
 55 48  1  0  0  0  0
 63 56  1  0  0  0  0
 85 64  2  0  0  0  0
112 89  1  0  0  0  0
127121  1  0  0  0  0
 29 23  1  0  0  0  0
 44 30  1  0  0  0  0
 76 69  1  0  0  0  0
 84 77  1  0  0  0  0
 99 91  1  0  0  0  0
116100  1  0  0  0  0
 39 33  1  0  0  0  0
111103  1  0  0  0  0
  1135  1  0  0  0  0
  7136  1  0  0  0  0
  8137  1  0  0  0  0
 20138  1  0  0  0  0
 24139  1  0  0  0  0
 25140  1  0  0  0  0
 27141  1  0  0  0  0
 27142  1  0  0  0  0
 28143  1  0  0  0  0
 28144  1  0  0  0  0
 28145  1  0  0  0  0
 34146  1  0  0  0  0
 35147  1  0  0  0  0
 37148  1  0  0  0  0
 37149  1  0  0  0  0
 38150  1  0  0  0  0
 38151  1  0  0  0  0
 38152  1  0  0  0  0
 42153  1  0  0  0  0
 49154  1  0  0  0  0
 50155  1  0  0  0  0
 53156  1  0  0  0  0
 53157  1  0  0  0  0
 53158  1  0  0  0  0
 54159  1  0  0  0  0
 55160  1  0  0  0  0
 57161  1  0  0  0  0
 58162  1  0  0  0  0
 61163  1  0  0  0  0
 61164  1  0  0  0  0
 61165  1  0  0  0  0
 62166  1  0  0  0  0
 63167  1  0  0  0  0
 70168  1  0  0  0  0
 71169  1  0  0  0  0
 74170  1  0  0  0  0
 74171  1  0  0  0  0
 74172  1  0  0  0  0
 75173  1  0  0  0  0
 76174  1  0  0  0  0
 78175  1  0  0  0  0
 79176  1  0  0  0  0
 82177  1  0  0  0  0
 82178  1  0  0  0  0
 82179  1  0  0  0  0
 83180  1  0  0  0  0
 84181  1  0  0  0  0
 88182  1  0  0  0  0
 92183  1  0  0  0  0
 93184  1  0  0  0  0
 94185  1  0  0  0  0
 97186  1  0  0  0  0
 97187  1  0  0  0  0
 98188  1  0  0  0  0
 98189  1  0  0  0  0
 98190  1  0  0  0  0
 99191  1  0  0  0  0
104192  1  0  0  0  0
105193  1  0  0  0  0
106194  1  0  0  0  0
109195  1  0  0  0  0
109196  1  0  0  0  0
110197  1  0  0  0  0
110198  1  0  0  0  0
110199  1  0  0  0  0
111200  1  0  0  0  0
114201  1  0  0  0  0
117202  1  0  0  0  0
123203  1  0  0  0  0
124204  1  0  0  0  0
M  END
