
  xtb     02032222013D
 energy: -180.698691056731 gnorm: 0.000443967325 xtb: 6.4.1 (unknown)
 77 88  0     0  0            999 V2000
   -5.0969    1.8977   -5.4270 C   0  0  0  0  0  0  0  0  0  0  0  0
   -6.3076    2.2657   -4.9159 C   0  0  0  0  0  0  0  0  0  0  0  0
   -6.7010    2.1133   -3.4928 C   0  0  0  0  0  0  0  0  0  0  0  0
   -6.0643    1.6149   -2.5932 O   0  0  0  0  0  0  0  0  0  0  0  0
   -8.1133    2.5544   -3.4296 C   0  0  0  0  0  0  0  0  0  0  0  0
   -8.5709    2.8695   -4.7220 C   0  0  0  0  0  0  0  0  0  0  0  0
   -9.8829    3.2752   -4.9122 C   0  0  0  0  0  0  0  0  0  0  0  0
  -10.7161    3.3696   -3.8075 C   0  0  0  0  0  0  0  0  0  0  0  0
  -10.2580    3.0672   -2.5339 C   0  0  0  0  0  0  0  0  0  0  0  0
  -11.4382    3.2292   -1.0683 Br  0  0  0  0  0  0  0  0  0  0  0  0
   -8.9409    2.6453   -2.3222 C   0  0  0  0  0  0  0  0  0  0  0  0
   -8.3698    2.2694   -0.7537 Cl  0  0  0  0  0  0  0  0  0  0  0  0
   -7.4683    2.6980   -5.6659 C   0  0  0  0  0  0  0  0  0  0  0  0
   -7.5190    2.9764   -7.0066 C   0  0  0  0  0  0  0  0  0  0  0  0
   -6.4281    2.8867   -7.8981 C   0  0  0  0  0  0  0  0  0  0  0  0
   -5.5937    2.8646   -8.6862 N   0  0  0  0  0  0  0  0  0  0  0  0
   -8.6782    3.4105   -7.6838 C   0  0  0  0  0  0  0  0  0  0  0  0
   -9.5870    3.7581   -8.2927 N   0  0  0  0  0  0  0  0  0  0  0  0
   -3.9147    1.6784   -4.6702 C   0  0  0  0  0  0  0  0  0  0  0  0
   -2.9405    0.7543   -5.1021 C   0  0  0  0  0  0  0  0  0  0  0  0
   -1.7707    0.4198   -4.3128 C   0  0  0  0  0  0  0  0  0  0  0  0
   -1.0403   -0.5315   -4.9086 N   0  0  0  0  0  0  0  0  0  0  0  0
   -1.7331   -0.9409   -6.2907 S   0  0  0  0  0  4  0  0  0  0  0  0
   -3.0022    0.0329   -6.2232 N   0  0  0  0  0  0  0  0  0  0  0  0
   -1.5211    1.0037   -3.0565 C   0  0  0  0  0  0  0  0  0  0  0  0
   -2.4068    2.0387   -2.7039 C   0  0  0  0  0  0  0  0  0  0  0  0
   -2.2671    2.8677   -1.6635 N   0  0  0  0  0  0  0  0  0  0  0  0
   -3.4598    3.9240   -1.6727 S   0  0  0  0  0  0  0  0  0  0  0  0
   -4.2182    3.4324   -2.9938 N   0  0  0  0  0  0  0  0  0  0  0  0
   -3.5760    2.3750   -3.4926 C   0  0  0  0  0  0  0  0  0  0  0  0
   -0.4606    0.5575   -2.1827 C   0  0  0  0  0  0  0  0  0  0  0  0
    0.7684    0.1269   -2.6597 C   0  0  0  0  0  0  0  0  0  0  0  0
    1.7938   -0.2969   -1.8172 C   0  0  0  0  0  0  0  0  0  0  0  0
    1.6469   -0.3684   -0.4402 C   0  0  0  0  0  0  0  0  0  0  0  0
    0.4019    0.0563    0.0918 C   0  0  0  0  0  0  0  0  0  0  0  0
    0.0479    0.1206    1.3736 N   0  0  0  0  0  0  0  0  0  0  0  0
   -1.4614    0.6506    1.4702 S   0  0  0  0  0  0  0  0  0  0  0  0
   -1.7435    0.8489   -0.0950 N   0  0  0  0  0  0  0  0  0  0  0  0
   -0.6474    0.5222   -0.7764 C   0  0  0  0  0  0  0  0  0  0  0  0
    2.6981   -0.8423    0.4305 C   0  0  0  0  0  0  0  0  0  0  0  0
    2.4334   -1.5943    1.5900 C   0  0  0  0  0  0  0  0  0  0  0  0
    3.4606   -1.9414    2.5520 C   0  0  0  0  0  0  0  0  0  0  0  0
    2.9803   -2.7150    3.5269 N   0  0  0  0  0  0  0  0  0  0  0  0
    1.4167   -2.9507    3.2792 S   0  0  0  0  0  4  0  0  0  0  0  0
    1.2536   -2.1291    1.9238 N   0  0  0  0  0  0  0  0  0  0  0  0
    4.8033   -1.5415    2.3970 C   0  0  0  0  0  0  0  0  0  0  0  0
    5.0900   -0.9231    1.1626 C   0  0  0  0  0  0  0  0  0  0  0  0
    6.2973   -0.5213    0.7600 N   0  0  0  0  0  0  0  0  0  0  0  0
    6.1630    0.1944   -0.6661 S   0  0  0  0  0  0  0  0  0  0  0  0
    4.5809    0.0606   -0.8563 N   0  0  0  0  0  0  0  0  0  0  0  0
    4.0610   -0.5765    0.2007 C   0  0  0  0  0  0  0  0  0  0  0  0
    5.8253   -1.7835    3.3542 C   0  0  0  0  0  0  0  0  0  0  0  0
    5.6430   -1.8101    4.7066 C   0  0  0  0  0  0  0  0  0  0  0  0
    4.4895   -1.1918    5.4073 C   0  0  0  0  0  0  0  0  0  0  0  0
    3.5753   -0.5626    4.9262 O   0  0  0  0  0  0  0  0  0  0  0  0
    4.7717   -1.3665    6.8504 C   0  0  0  0  0  0  0  0  0  0  0  0
    6.0274   -1.9779    7.0191 C   0  0  0  0  0  0  0  0  0  0  0  0
    6.5174   -2.2131    8.2944 C   0  0  0  0  0  0  0  0  0  0  0  0
    5.7421   -1.8421    9.3829 C   0  0  0  0  0  0  0  0  0  0  0  0
    4.5011   -1.2471    9.2120 C   0  0  0  0  0  0  0  0  0  0  0  0
    3.4880   -0.7765   10.7349 Br  0  0  0  0  0  0  0  0  0  0  0  0
    3.9933   -0.9917    7.9336 C   0  0  0  0  0  0  0  0  0  0  0  0
    2.4637   -0.2564    7.7159 Cl  0  0  0  0  0  0  0  0  0  0  0  0
    6.5890   -2.2684    5.7015 C   0  0  0  0  0  0  0  0  0  0  0  0
    7.7618   -2.9364    5.4655 C   0  0  0  0  0  0  0  0  0  0  0  0
    8.2498   -3.2899    4.1888 C   0  0  0  0  0  0  0  0  0  0  0  0
    8.7081   -3.6331    3.1939 N   0  0  0  0  0  0  0  0  0  0  0  0
    8.6370   -3.3852    6.4770 C   0  0  0  0  0  0  0  0  0  0  0  0
    9.3915   -3.7685    7.2524 N   0  0  0  0  0  0  0  0  0  0  0  0
   -4.9974    1.7100   -6.4888 H   0  0  0  0  0  0  0  0  0  0  0  0
  -10.2685    3.5143   -5.8890 H   0  0  0  0  0  0  0  0  0  0  0  0
  -11.7404    3.6846   -3.9337 H   0  0  0  0  0  0  0  0  0  0  0  0
    0.9392    0.1362   -3.7243 H   0  0  0  0  0  0  0  0  0  0  0  0
    2.7324   -0.6026   -2.2513 H   0  0  0  0  0  0  0  0  0  0  0  0
    6.8172   -1.9175    2.9413 H   0  0  0  0  0  0  0  0  0  0  0  0
    7.4787   -2.6701    8.4591 H   0  0  0  0  0  0  0  0  0  0  0  0
    6.1045   -2.0173   10.3842 H   0  0  0  0  0  0  0  0  0  0  0  0
  1  2  2  0  0  0  0
  2  3  1  0  0  0  0
  3  4  2  0  0  0  0
  3  5  1  0  0  0  0
  5  6  2  0  0  0  0
  6  7  1  0  0  0  0
  7  8  2  0  0  0  0
  8  9  1  0  0  0  0
  9 10  1  0  0  0  0
  9 11  2  0  0  0  0
 11 12  1  0  0  0  0
  6 13  1  0  0  0  0
 13 14  2  0  0  0  0
 14 15  1  0  0  0  0
 15 16  3  0  0  0  0
 14 17  1  0  0  0  0
 17 18  3  0  0  0  0
  1 19  1  0  0  0  0
 19 20  2  0  0  0  0
 20 21  1  0  0  0  0
 21 22  1  0  0  0  0
 22 23  2  0  0  0  0
 23 24  2  0  0  0  0
 21 25  2  0  0  0  0
 25 26  1  0  0  0  0
 26 27  2  0  0  0  0
 27 28  1  0  0  0  0
 28 29  1  0  0  0  0
 29 30  2  0  0  0  0
 25 31  1  0  0  0  0
 31 32  2  0  0  0  0
 32 33  1  0  0  0  0
 33 34  2  0  0  0  0
 34 35  1  0  0  0  0
 35 36  2  0  0  0  0
 36 37  1  0  0  0  0
 37 38  1  0  0  0  0
 38 39  2  0  0  0  0
 34 40  1  0  0  0  0
 40 41  2  0  0  0  0
 41 42  1  0  0  0  0
 42 43  1  0  0  0  0
 43 44  2  0  0  0  0
 44 45  2  0  0  0  0
 42 46  2  0  0  0  0
 46 47  1  0  0  0  0
 47 48  2  0  0  0  0
 48 49  1  0  0  0  0
 49 50  1  0  0  0  0
 50 51  2  0  0  0  0
 46 52  1  0  0  0  0
 52 53  2  0  0  0  0
 53 54  1  0  0  0  0
 54 55  2  0  0  0  0
 54 56  1  0  0  0  0
 56 57  2  0  0  0  0
 57 58  1  0  0  0  0
 58 59  2  0  0  0  0
 59 60  1  0  0  0  0
 60 61  1  0  0  0  0
 60 62  2  0  0  0  0
 62 63  1  0  0  0  0
 57 64  1  0  0  0  0
 64 65  2  0  0  0  0
 65 66  1  0  0  0  0
 66 67  3  0  0  0  0
 65 68  1  0  0  0  0
 68 69  3  0  0  0  0
 13  2  1  0  0  0  0
 30 19  1  0  0  0  0
 39 31  1  0  0  0  0
 51 40  1  0  0  0  0
 64 53  1  0  0  0  0
 11  5  1  0  0  0  0
 24 20  1  0  0  0  0
 30 26  1  0  0  0  0
 39 35  1  0  0  0  0
 45 41  1  0  0  0  0
 51 47  1  0  0  0  0
 62 56  1  0  0  0  0
  1 70  1  0  0  0  0
  7 71  1  0  0  0  0
  8 72  1  0  0  0  0
 32 73  1  0  0  0  0
 33 74  1  0  0  0  0
 52 75  1  0  0  0  0
 58 76  1  0  0  0  0
 59 77  1  0  0  0  0
M  END
