
  xtb     02032222323D
 energy: -261.236147274954 gnorm: 0.000541079742 xtb: 6.4.1 (unknown)
143158  0     0  0            999 V2000
   -1.1492  -10.6315   -3.3616 C   0  0  0  0  0  0  0  0  0  0  0  0
   -1.0067  -11.3606   -4.5127 C   0  0  0  0  0  0  0  0  0  0  0  0
   -0.8450  -10.8126   -5.8679 C   0  0  0  0  0  0  0  0  0  0  0  0
   -0.7723   -9.6468   -6.1964 O   0  0  0  0  0  0  0  0  0  0  0  0
   -0.8010  -11.9839   -6.7707 C   0  0  0  0  0  0  0  0  0  0  0  0
   -0.9091  -13.1645   -6.0126 C   0  0  0  0  0  0  0  0  0  0  0  0
   -0.8964  -14.3964   -6.6478 C   0  0  0  0  0  0  0  0  0  0  0  0
   -0.7750  -14.4311   -8.0291 C   0  0  0  0  0  0  0  0  0  0  0  0
   -0.6671  -13.2649   -8.7711 C   0  0  0  0  0  0  0  0  0  0  0  0
   -0.5042  -13.3805  -10.6498 Br  0  0  0  0  0  0  0  0  0  0  0  0
   -0.6786  -12.0108   -8.1504 C   0  0  0  0  0  0  0  0  0  0  0  0
   -0.5469  -10.5678   -9.0605 Cl  0  0  0  0  0  0  0  0  0  0  0  0
   -1.0218  -12.8068   -4.5992 C   0  0  0  0  0  0  0  0  0  0  0  0
   -1.0959  -13.7045   -3.5646 C   0  0  0  0  0  0  0  0  0  0  0  0
   -1.1768  -13.3843   -2.1927 C   0  0  0  0  0  0  0  0  0  0  0  0
   -1.2418  -13.2212   -1.0573 N   0  0  0  0  0  0  0  0  0  0  0  0
   -1.0869  -15.1059   -3.7287 C   0  0  0  0  0  0  0  0  0  0  0  0
   -1.0837  -16.2523   -3.7884 N   0  0  0  0  0  0  0  0  0  0  0  0
   -1.1061   -9.2439   -3.1392 C   0  0  0  0  0  0  0  0  0  0  0  0
   -1.2659   -8.7164   -1.8678 C   0  0  0  0  0  0  0  0  0  0  0  0
   -1.1413   -7.3241   -1.8003 C   0  0  0  0  0  0  0  0  0  0  0  0
   -1.2262   -6.4920   -0.6554 C   0  0  0  0  0  0  0  0  0  0  0  0
   -1.4237   -7.0158    0.6769 C   0  0  0  0  0  0  0  0  0  0  0  0
   -2.1561   -6.4723    1.6985 C   0  0  0  0  0  0  0  0  0  0  0  0
   -2.0988   -7.2226    2.8871 C   0  0  0  0  0  0  0  0  0  0  0  0
   -1.3081   -8.3286    2.7965 C   0  0  0  0  0  0  0  0  0  0  0  0
   -1.0310   -9.3646    3.8294 C   0  0  0  0  0  0  0  0  0  0  0  0
   -1.6949  -10.6967    3.4735 C   0  0  0  0  0  0  0  0  0  0  0  0
   -0.6288   -8.4735    1.2122 S   0  0  0  0  0  0  0  0  0  0  0  0
   -1.0716   -5.1306   -0.8792 C   0  0  0  0  0  0  0  0  0  0  0  0
   -0.8009   -4.5725   -2.1575 C   0  0  0  0  0  0  0  0  0  0  0  0
   -0.7278   -5.4000   -3.2979 C   0  0  0  0  0  0  0  0  0  0  0  0
   -0.4635   -4.8913   -4.6286 C   0  0  0  0  0  0  0  0  0  0  0  0
   -1.0144   -5.3138   -5.8070 C   0  0  0  0  0  0  0  0  0  0  0  0
   -0.5118   -4.6395   -6.9359 C   0  0  0  0  0  0  0  0  0  0  0  0
    0.4327   -3.7067   -6.6375 C   0  0  0  0  0  0  0  0  0  0  0  0
    1.2098   -2.8403   -7.5670 C   0  0  0  0  0  0  0  0  0  0  0  0
    2.6403   -3.3563   -7.7386 C   0  0  0  0  0  0  0  0  0  0  0  0
    0.7144   -3.6404   -4.9294 S   0  0  0  0  0  0  0  0  0  0  0  0
   -0.9110   -6.7639   -3.0872 C   0  0  0  0  0  0  0  0  0  0  0  0
   -0.8284   -7.9862   -4.3242 S   0  0  0  0  0  0  0  0  0  0  0  0
   -0.6218   -3.1731   -2.0831 C   0  0  0  0  0  0  0  0  0  0  0  0
   -0.7317   -2.6666   -0.8177 C   0  0  0  0  0  0  0  0  0  0  0  0
   -1.1123   -3.8991    0.3555 S   0  0  0  0  0  0  0  0  0  0  0  0
   -0.5423   -1.3069   -0.3955 C   0  0  0  0  0  0  0  0  0  0  0  0
    0.1428   -0.3690   -1.1557 C   0  0  0  0  0  0  0  0  0  0  0  0
    0.3811    0.9312   -0.7171 C   0  0  0  0  0  0  0  0  0  0  0  0
   -0.0637    1.4034    0.5115 C   0  0  0  0  0  0  0  0  0  0  0  0
   -0.8046    0.4864    1.2992 C   0  0  0  0  0  0  0  0  0  0  0  0
   -1.3439    0.7152    2.4939 N   0  0  0  0  0  0  0  0  0  0  0  0
   -2.0544   -0.6304    3.0136 S   0  0  0  0  0  0  0  0  0  0  0  0
   -1.7138   -1.5679    1.7544 N   0  0  0  0  0  0  0  0  0  0  0  0
   -1.0226   -0.8626    0.8611 C   0  0  0  0  0  0  0  0  0  0  0  0
    0.2102    2.7207    1.0002 C   0  0  0  0  0  0  0  0  0  0  0  0
   -0.6308    3.3387    2.3908 S   0  0  0  0  0  0  0  0  0  0  0  0
    0.2514    4.8225    2.2874 C   0  0  0  0  0  0  0  0  0  0  0  0
    0.1056    5.9872    3.0644 C   0  0  0  0  0  0  0  0  0  0  0  0
    0.7602    7.1532    2.6259 C   0  0  0  0  0  0  0  0  0  0  0  0
    1.5159    7.2039    1.5150 O   0  0  0  0  0  0  0  0  0  0  0  0
    2.1250    5.9677    1.0815 C   0  0  0  0  0  0  0  0  0  0  0  0
    3.3800    5.7639    1.9273 C   0  0  0  0  0  0  0  0  0  0  0  0
    4.2537    6.8373    2.0521 C   0  0  0  0  0  0  0  0  0  0  0  0
    5.3923    6.7268    2.8253 C   0  0  0  0  0  0  0  0  0  0  0  0
    5.6880    5.5434    3.4911 C   0  0  0  0  0  0  0  0  0  0  0  0
    6.9469    5.4084    4.2977 C   0  0  0  0  0  0  0  0  0  0  0  0
    8.0845    4.8710    3.4268 C   0  0  0  0  0  0  0  0  0  0  0  0
    4.8148    4.4731    3.3553 C   0  0  0  0  0  0  0  0  0  0  0  0
    3.6695    4.5786    2.5861 C   0  0  0  0  0  0  0  0  0  0  0  0
    2.4844    6.1326   -0.3834 C   0  0  0  0  0  0  0  0  0  0  0  0
    3.5588    5.4394   -0.9254 C   0  0  0  0  0  0  0  0  0  0  0  0
    3.8537    5.5549   -2.2707 C   0  0  0  0  0  0  0  0  0  0  0  0
    3.0886    6.3620   -3.1032 C   0  0  0  0  0  0  0  0  0  0  0  0
    3.4470    6.5255   -4.5519 C   0  0  0  0  0  0  0  0  0  0  0  0
    4.4512    7.6668   -4.7253 C   0  0  0  0  0  0  0  0  0  0  0  0
    2.0166    7.0516   -2.5525 C   0  0  0  0  0  0  0  0  0  0  0  0
    1.7105    6.9342   -1.2094 C   0  0  0  0  0  0  0  0  0  0  0  0
    1.1700    4.8127    1.2433 C   0  0  0  0  0  0  0  0  0  0  0  0
    1.1328    3.6302    0.5116 C   0  0  0  0  0  0  0  0  0  0  0  0
    0.4656    8.2432    3.4221 C   0  0  0  0  0  0  0  0  0  0  0  0
   -0.4042    7.9438    4.4795 C   0  0  0  0  0  0  0  0  0  0  0  0
   -0.8590    6.2509    4.4602 S   0  0  0  0  0  0  0  0  0  0  0  0
   -0.8030    8.9130    5.4027 C   0  0  0  0  0  0  0  0  0  0  0  0
   -1.6619    8.8244    6.4761 C   0  0  0  0  0  0  0  0  0  0  0  0
   -2.4148    7.6308    6.8570 C   0  0  0  0  0  0  0  0  0  0  0  0
   -2.3644    6.5266    6.3457 O   0  0  0  0  0  0  0  0  0  0  0  0
   -3.2666    8.0333    7.9967 C   0  0  0  0  0  0  0  0  0  0  0  0
   -3.0197    9.3840    8.3050 C   0  0  0  0  0  0  0  0  0  0  0  0
   -3.7076    9.9925    9.3418 C   0  0  0  0  0  0  0  0  0  0  0  0
   -4.6330    9.2438   10.0556 C   0  0  0  0  0  0  0  0  0  0  0  0
   -4.8722    7.9142    9.7475 C   0  0  0  0  0  0  0  0  0  0  0  0
   -6.1464    6.9499   10.7557 Br  0  0  0  0  0  0  0  0  0  0  0  0
   -4.1877    7.2794    8.7045 C   0  0  0  0  0  0  0  0  0  0  0  0
   -4.4800    5.6379    8.3178 Cl  0  0  0  0  0  0  0  0  0  0  0  0
   -2.0064    9.8971    7.3807 C   0  0  0  0  0  0  0  0  0  0  0  0
   -1.4845   11.1662    7.4142 C   0  0  0  0  0  0  0  0  0  0  0  0
   -1.8655   12.1564    8.3433 C   0  0  0  0  0  0  0  0  0  0  0  0
   -2.1283   13.0081    9.0672 N   0  0  0  0  0  0  0  0  0  0  0  0
   -0.4901   11.6710    6.5509 C   0  0  0  0  0  0  0  0  0  0  0  0
    0.3171   12.1630    5.8979 N   0  0  0  0  0  0  0  0  0  0  0  0
   -1.3124  -11.1938   -2.4501 H   0  0  0  0  0  0  0  0  0  0  0  0
   -0.9794  -15.3201   -6.1006 H   0  0  0  0  0  0  0  0  0  0  0  0
   -0.7638  -15.3805   -8.5419 H   0  0  0  0  0  0  0  0  0  0  0  0
   -1.4697   -9.3465   -1.0210 H   0  0  0  0  0  0  0  0  0  0  0  0
   -2.7514   -5.5840    1.5901 H   0  0  0  0  0  0  0  0  0  0  0  0
   -2.6245   -6.9483    3.7844 H   0  0  0  0  0  0  0  0  0  0  0  0
   -1.4063   -9.0091    4.7913 H   0  0  0  0  0  0  0  0  0  0  0  0
    0.0479   -9.5166    3.9177 H   0  0  0  0  0  0  0  0  0  0  0  0
   -1.4895  -11.4360    4.2432 H   0  0  0  0  0  0  0  0  0  0  0  0
   -2.7721  -10.5725    3.3893 H   0  0  0  0  0  0  0  0  0  0  0  0
   -1.3140  -11.0687    2.5252 H   0  0  0  0  0  0  0  0  0  0  0  0
   -1.7831   -6.0623   -5.8649 H   0  0  0  0  0  0  0  0  0  0  0  0
   -0.8433   -4.8405   -7.9390 H   0  0  0  0  0  0  0  0  0  0  0  0
    1.2410   -1.8181   -7.1816 H   0  0  0  0  0  0  0  0  0  0  0  0
    0.7060   -2.8264   -8.5358 H   0  0  0  0  0  0  0  0  0  0  0  0
    2.6306   -4.3724   -8.1261 H   0  0  0  0  0  0  0  0  0  0  0  0
    3.1583   -3.3563   -6.7821 H   0  0  0  0  0  0  0  0  0  0  0  0
    3.1887   -2.7239   -8.4322 H   0  0  0  0  0  0  0  0  0  0  0  0
   -0.4376   -2.5554   -2.9416 H   0  0  0  0  0  0  0  0  0  0  0  0
    0.5337   -0.6645   -2.1168 H   0  0  0  0  0  0  0  0  0  0  0  0
    0.9345    1.5953   -1.3624 H   0  0  0  0  0  0  0  0  0  0  0  0
    4.0263    7.7609    1.5407 H   0  0  0  0  0  0  0  0  0  0  0  0
    6.0598    7.5715    2.9160 H   0  0  0  0  0  0  0  0  0  0  0  0
    7.2327    6.3808    4.7029 H   0  0  0  0  0  0  0  0  0  0  0  0
    6.7800    4.7251    5.1328 H   0  0  0  0  0  0  0  0  0  0  0  0
    8.2716    5.5430    2.5922 H   0  0  0  0  0  0  0  0  0  0  0  0
    8.9977    4.7779    4.0097 H   0  0  0  0  0  0  0  0  0  0  0  0
    7.8259    3.8929    3.0272 H   0  0  0  0  0  0  0  0  0  0  0  0
    5.0271    3.5436    3.8640 H   0  0  0  0  0  0  0  0  0  0  0  0
    3.0076    3.7292    2.5017 H   0  0  0  0  0  0  0  0  0  0  0  0
    4.1682    4.8112   -0.2917 H   0  0  0  0  0  0  0  0  0  0  0  0
    4.6923    5.0098   -2.6803 H   0  0  0  0  0  0  0  0  0  0  0  0
    3.8851    5.6005   -4.9325 H   0  0  0  0  0  0  0  0  0  0  0  0
    2.5496    6.7443   -5.1339 H   0  0  0  0  0  0  0  0  0  0  0  0
    5.3593    7.4601   -4.1634 H   0  0  0  0  0  0  0  0  0  0  0  0
    4.0289    8.6002   -4.3602 H   0  0  0  0  0  0  0  0  0  0  0  0
    4.7111    7.7891   -5.7741 H   0  0  0  0  0  0  0  0  0  0  0  0
    1.4093    7.6846   -3.1835 H   0  0  0  0  0  0  0  0  0  0  0  0
    0.8737    7.4739   -0.7936 H   0  0  0  0  0  0  0  0  0  0  0  0
    1.7720    3.4346   -0.3297 H   0  0  0  0  0  0  0  0  0  0  0  0
    0.8559    9.2302    3.2538 H   0  0  0  0  0  0  0  0  0  0  0  0
   -0.3613    9.8840    5.2149 H   0  0  0  0  0  0  0  0  0  0  0  0
   -3.5461   11.0242    9.6048 H   0  0  0  0  0  0  0  0  0  0  0  0
   -5.1802    9.7003   10.8659 H   0  0  0  0  0  0  0  0  0  0  0  0
  1  2  2  0  0  0  0
  2  3  1  0  0  0  0
  3  4  2  0  0  0  0
  3  5  1  0  0  0  0
  5  6  2  0  0  0  0
  6  7  1  0  0  0  0
  7  8  2  0  0  0  0
  8  9  1  0  0  0  0
  9 10  1  0  0  0  0
  9 11  2  0  0  0  0
 11 12  1  0  0  0  0
  6 13  1  0  0  0  0
 13 14  2  0  0  0  0
 14 15  1  0  0  0  0
 15 16  3  0  0  0  0
 14 17  1  0  0  0  0
 17 18  3  0  0  0  0
  1 19  1  0  0  0  0
 19 20  2  0  0  0  0
 20 21  1  0  0  0  0
 21 22  2  0  0  0  0
 22 23  1  0  0  0  0
 23 24  2  0  0  0  0
 24 25  1  0  0  0  0
 25 26  2  0  0  0  0
 26 27  1  0  0  0  0
 27 28  1  0  0  0  0
 26 29  1  0  0  0  0
 22 30  1  0  0  0  0
 30 31  2  0  0  0  0
 31 32  1  0  0  0  0
 32 33  1  0  0  0  0
 33 34  2  0  0  0  0
 34 35  1  0  0  0  0
 35 36  2  0  0  0  0
 36 37  1  0  0  0  0
 37 38  1  0  0  0  0
 36 39  1  0  0  0  0
 32 40  2  0  0  0  0
 40 41  1  0  0  0  0
 31 42  1  0  0  0  0
 42 43  2  0  0  0  0
 43 44  1  0  0  0  0
 43 45  1  0  0  0  0
 45 46  2  0  0  0  0
 46 47  1  0  0  0  0
 47 48  2  0  0  0  0
 48 49  1  0  0  0  0
 49 50  2  0  0  0  0
 50 51  1  0  0  0  0
 51 52  1  0  0  0  0
 52 53  2  0  0  0  0
 48 54  1  0  0  0  0
 54 55  1  0  0  0  0
 55 56  1  0  0  0  0
 56 57  1  0  0  0  0
 57 58  2  0  0  0  0
 58 59  1  0  0  0  0
 59 60  1  0  0  0  0
 60 61  1  0  0  0  0
 61 62  2  0  0  0  0
 62 63  1  0  0  0  0
 63 64  2  0  0  0  0
 64 65  1  0  0  0  0
 65 66  1  0  0  0  0
 64 67  1  0  0  0  0
 67 68  2  0  0  0  0
 60 69  1  0  0  0  0
 69 70  2  0  0  0  0
 70 71  1  0  0  0  0
 71 72  2  0  0  0  0
 72 73  1  0  0  0  0
 73 74  1  0  0  0  0
 72 75  1  0  0  0  0
 75 76  2  0  0  0  0
 60 77  1  0  0  0  0
 77 78  1  0  0  0  0
 58 79  1  0  0  0  0
 79 80  2  0  0  0  0
 80 81  1  0  0  0  0
 80 82  1  0  0  0  0
 82 83  2  0  0  0  0
 83 84  1  0  0  0  0
 84 85  2  0  0  0  0
 84 86  1  0  0  0  0
 86 87  2  0  0  0  0
 87 88  1  0  0  0  0
 88 89  2  0  0  0  0
 89 90  1  0  0  0  0
 90 91  1  0  0  0  0
 90 92  2  0  0  0  0
 92 93  1  0  0  0  0
 87 94  1  0  0  0  0
 94 95  2  0  0  0  0
 95 96  1  0  0  0  0
 96 97  3  0  0  0  0
 95 98  1  0  0  0  0
 98 99  3  0  0  0  0
 13  2  1  0  0  0  0
 41 19  1  0  0  0  0
 53 45  1  0  0  0  0
 78 54  2  0  0  0  0
 94 83  1  0  0  0  0
 11  5  1  0  0  0  0
 40 21  1  0  0  0  0
 53 49  1  0  0  0  0
 77 56  2  0  0  0  0
 92 86  1  0  0  0  0
 29 23  1  0  0  0  0
 44 30  1  0  0  0  0
 81 57  1  0  0  0  0
 39 33  1  0  0  0  0
 68 61  1  0  0  0  0
 76 69  1  0  0  0  0
  1100  1  0  0  0  0
  7101  1  0  0  0  0
  8102  1  0  0  0  0
 20103  1  0  0  0  0
 24104  1  0  0  0  0
 25105  1  0  0  0  0
 27106  1  0  0  0  0
 27107  1  0  0  0  0
 28108  1  0  0  0  0
 28109  1  0  0  0  0
 28110  1  0  0  0  0
 34111  1  0  0  0  0
 35112  1  0  0  0  0
 37113  1  0  0  0  0
 37114  1  0  0  0  0
 38115  1  0  0  0  0
 38116  1  0  0  0  0
 38117  1  0  0  0  0
 42118  1  0  0  0  0
 46119  1  0  0  0  0
 47120  1  0  0  0  0
 62121  1  0  0  0  0
 63122  1  0  0  0  0
 65123  1  0  0  0  0
 65124  1  0  0  0  0
 66125  1  0  0  0  0
 66126  1  0  0  0  0
 66127  1  0  0  0  0
 67128  1  0  0  0  0
 68129  1  0  0  0  0
 70130  1  0  0  0  0
 71131  1  0  0  0  0
 73132  1  0  0  0  0
 73133  1  0  0  0  0
 74134  1  0  0  0  0
 74135  1  0  0  0  0
 74136  1  0  0  0  0
 75137  1  0  0  0  0
 76138  1  0  0  0  0
 78139  1  0  0  0  0
 79140  1  0  0  0  0
 82141  1  0  0  0  0
 88142  1  0  0  0  0
 89143  1  0  0  0  0
M  END
