
  xtb     02042201123D
 energy: -365.314363494827 gnorm: 0.000359269035 xtb: 6.4.1 (unknown)
208227  0     0  0            999 V2000
   10.0614    0.4188    4.4572 C   0  0  0  0  0  0  0  0  0  0  0  0
   10.8347   -0.5683    3.8750 C   0  0  0  0  0  0  0  0  0  0  0  0
   10.4273   -1.4007    2.7502 C   0  0  0  0  0  0  0  0  0  0  0  0
    9.3506   -1.4079    2.1742 O   0  0  0  0  0  0  0  0  0  0  0  0
   11.6057   -2.2228    2.4018 C   0  0  0  0  0  0  0  0  0  0  0  0
   12.6590   -1.9167    3.2831 C   0  0  0  0  0  0  0  0  0  0  0  0
   13.8722   -2.5728    3.1628 C   0  0  0  0  0  0  0  0  0  0  0  0
   14.0177   -3.5246    2.1626 C   0  0  0  0  0  0  0  0  0  0  0  0
   12.9785   -3.8190    1.2950 C   0  0  0  0  0  0  0  0  0  0  0  0
   13.2398   -5.1237   -0.0485 Br  0  0  0  0  0  0  0  0  0  0  0  0
   11.7450   -3.1666    1.3991 C   0  0  0  0  0  0  0  0  0  0  0  0
   10.4579   -3.5244    0.3271 Cl  0  0  0  0  0  0  0  0  0  0  0  0
   12.1999   -0.8837    4.2149 C   0  0  0  0  0  0  0  0  0  0  0  0
   12.9548   -0.3567    5.2349 C   0  0  0  0  0  0  0  0  0  0  0  0
   14.2881   -0.7246    5.5056 C   0  0  0  0  0  0  0  0  0  0  0  0
   15.3748   -0.9749    5.7800 N   0  0  0  0  0  0  0  0  0  0  0  0
   12.5209    0.6132    6.1612 C   0  0  0  0  0  0  0  0  0  0  0  0
   12.2497    1.3948    6.9588 N   0  0  0  0  0  0  0  0  0  0  0  0
    8.7244    0.7450    4.2557 C   0  0  0  0  0  0  0  0  0  0  0  0
    7.5619   -0.1340    3.2765 S   0  0  0  0  0  0  0  0  0  0  0  0
    6.3197    0.9545    3.7427 C   0  0  0  0  0  0  0  0  0  0  0  0
    4.9640    0.9382    3.3975 C   0  0  0  0  0  0  0  0  0  0  0  0
    4.0948    1.8622    3.9846 C   0  0  0  0  0  0  0  0  0  0  0  0
    4.4884    2.7419    4.9198 O   0  0  0  0  0  0  0  0  0  0  0  0
    5.8714    3.1587    4.8720 C   0  0  0  0  0  0  0  0  0  0  0  0
    6.1797    3.7250    6.2458 C   0  0  0  0  0  0  0  0  0  0  0  0
    6.5266    5.0516    6.4482 C   0  0  0  0  0  0  0  0  0  0  0  0
    6.8089    5.5078    7.7235 C   0  0  0  0  0  0  0  0  0  0  0  0
    6.7429    4.6588    8.8198 C   0  0  0  0  0  0  0  0  0  0  0  0
    7.1012    5.1462   10.1934 C   0  0  0  0  0  0  0  0  0  0  0  0
    8.5944    4.9394   10.4572 C   0  0  0  0  0  0  0  0  0  0  0  0
    6.3847    3.3327    8.6092 C   0  0  0  0  0  0  0  0  0  0  0  0
    6.1067    2.8695    7.3387 C   0  0  0  0  0  0  0  0  0  0  0  0
    6.0380    4.1808    3.7479 C   0  0  0  0  0  0  0  0  0  0  0  0
    7.2941    4.4821    3.2373 C   0  0  0  0  0  0  0  0  0  0  0  0
    7.4316    5.3794    2.1966 C   0  0  0  0  0  0  0  0  0  0  0  0
    6.3231    5.9986    1.6339 C   0  0  0  0  0  0  0  0  0  0  0  0
    6.4751    6.9042    0.4470 C   0  0  0  0  0  0  0  0  0  0  0  0
    6.4041    6.0910   -0.8478 C   0  0  0  0  0  0  0  0  0  0  0  0
    5.0722    5.7124    2.1630 C   0  0  0  0  0  0  0  0  0  0  0  0
    4.9294    4.8198    3.2103 C   0  0  0  0  0  0  0  0  0  0  0  0
    6.7815    1.9923    4.5663 C   0  0  0  0  0  0  0  0  0  0  0  0
    8.1130    1.8491    4.8756 C   0  0  0  0  0  0  0  0  0  0  0  0
    2.7924    1.7657    3.4911 C   0  0  0  0  0  0  0  0  0  0  0  0
    2.6661    0.8145    2.4959 C   0  0  0  0  0  0  0  0  0  0  0  0
    4.1378   -0.0954    2.2885 S   0  0  0  0  0  0  0  0  0  0  0  0
    1.5166    0.5991    1.6880 C   0  0  0  0  0  0  0  0  0  0  0  0
    1.4156    0.2448    0.3434 C   0  0  0  0  0  0  0  0  0  0  0  0
    2.4336    0.0265   -0.5598 N   0  0  0  0  0  0  0  0  0  0  0  0
    3.6838    0.6501   -0.4722 C   0  0  0  0  0  0  0  0  0  0  0  0
    3.8165    1.9617   -0.0120 C   0  0  0  0  0  0  0  0  0  0  0  0
    5.0667    2.4917    0.2170 C   0  0  0  0  0  0  0  0  0  0  0  0
    6.2123    1.7350   -0.0301 C   0  0  0  0  0  0  0  0  0  0  0  0
    7.7556    2.4657    0.4036 S   0  0  0  0  0  0  0  0  0  0  0  0
    8.9722    1.1584    0.0750 C   0  0  0  0  0  0  0  0  0  0  0  0
    6.0853    0.4655   -0.5784 C   0  0  0  0  0  0  0  0  0  0  0  0
    4.8321   -0.0695   -0.7965 C   0  0  0  0  0  0  0  0  0  0  0  0
    2.1759   -0.8489   -1.6364 C   0  0  0  0  0  0  0  0  0  0  0  0
    2.4831   -0.4714   -2.9428 C   0  0  0  0  0  0  0  0  0  0  0  0
    2.1033   -1.2699   -3.9982 C   0  0  0  0  0  0  0  0  0  0  0  0
    1.4085   -2.4587   -3.7754 C   0  0  0  0  0  0  0  0  0  0  0  0
    0.8506   -3.3482   -5.1925 S   0  0  0  0  0  0  0  0  0  0  0  0
   -0.5263   -4.3378   -4.5422 C   0  0  0  0  0  0  0  0  0  0  0  0
    1.1837   -2.8804   -2.4708 C   0  0  0  0  0  0  0  0  0  0  0  0
    1.5679   -2.0814   -1.4115 C   0  0  0  0  0  0  0  0  0  0  0  0
    0.0508    0.1483   -0.0334 C   0  0  0  0  0  0  0  0  0  0  0  0
   -0.7370   -0.2902   -1.5021 S   0  0  0  0  0  0  0  0  0  0  0  0
   -2.3110   -0.1791   -0.7249 C   0  0  0  0  0  0  0  0  0  0  0  0
   -2.2180    0.2041    0.6091 C   0  0  0  0  0  0  0  0  0  0  0  0
   -3.2667    0.2592    1.5081 N   0  0  0  0  0  0  0  0  0  0  0  0
   -3.2185    1.2043    2.5426 C   0  0  0  0  0  0  0  0  0  0  0  0
   -2.7336    2.4855    2.2940 C   0  0  0  0  0  0  0  0  0  0  0  0
   -2.6576    3.4219    3.3068 C   0  0  0  0  0  0  0  0  0  0  0  0
   -3.0750    3.0928    4.5889 C   0  0  0  0  0  0  0  0  0  0  0  0
   -3.0341    4.1988    5.9620 S   0  0  0  0  0  0  0  0  0  0  0  0
   -2.1652    5.6591    5.3227 C   0  0  0  0  0  0  0  0  0  0  0  0
   -3.5742    1.8144    4.8381 C   0  0  0  0  0  0  0  0  0  0  0  0
   -3.6422    0.8791    3.8317 C   0  0  0  0  0  0  0  0  0  0  0  0
   -4.2870   -0.7003    1.4617 C   0  0  0  0  0  0  0  0  0  0  0  0
   -5.5972   -0.3564    1.7945 C   0  0  0  0  0  0  0  0  0  0  0  0
   -6.6077   -1.2858    1.6862 C   0  0  0  0  0  0  0  0  0  0  0  0
   -6.3379   -2.5711    1.2278 C   0  0  0  0  0  0  0  0  0  0  0  0
   -7.6914   -3.6958    1.0852 S   0  0  0  0  0  0  0  0  0  0  0  0
   -7.1570   -4.7648   -0.2856 C   0  0  0  0  0  0  0  0  0  0  0  0
   -5.0308   -2.9301    0.9297 C   0  0  0  0  0  0  0  0  0  0  0  0
   -4.0158   -2.0044    1.0535 C   0  0  0  0  0  0  0  0  0  0  0  0
   -0.8625    0.4191    0.9711 C   0  0  0  0  0  0  0  0  0  0  0  0
   -0.0621    0.8724    2.4351 S   0  0  0  0  0  0  0  0  0  0  0  0
   -3.4028   -0.6511   -1.5059 C   0  0  0  0  0  0  0  0  0  0  0  0
   -3.0122   -1.8337   -2.7293 S   0  0  0  0  0  0  0  0  0  0  0  0
   -4.6717   -1.9473   -3.1783 C   0  0  0  0  0  0  0  0  0  0  0  0
   -5.2327   -2.8297   -4.1142 C   0  0  0  0  0  0  0  0  0  0  0  0
   -6.6288   -2.9826   -4.1082 C   0  0  0  0  0  0  0  0  0  0  0  0
   -7.4215   -2.2978   -3.2598 O   0  0  0  0  0  0  0  0  0  0  0  0
   -6.9362   -1.0072   -2.8221 C   0  0  0  0  0  0  0  0  0  0  0  0
   -7.1166   -0.0302   -3.9858 C   0  0  0  0  0  0  0  0  0  0  0  0
   -8.3374   -0.0387   -4.6491 C   0  0  0  0  0  0  0  0  0  0  0  0
   -8.5643    0.8168   -5.7082 C   0  0  0  0  0  0  0  0  0  0  0  0
   -7.5833    1.7083   -6.1256 C   0  0  0  0  0  0  0  0  0  0  0  0
   -7.8164    2.6065   -7.3053 C   0  0  0  0  0  0  0  0  0  0  0  0
   -7.4286    1.8932   -8.6023 C   0  0  0  0  0  0  0  0  0  0  0  0
   -6.3683    1.7142   -5.4552 C   0  0  0  0  0  0  0  0  0  0  0  0
   -6.1323    0.8553   -4.3963 C   0  0  0  0  0  0  0  0  0  0  0  0
   -7.8286   -0.5479   -1.6841 C   0  0  0  0  0  0  0  0  0  0  0  0
   -8.7654   -1.3948   -1.1130 C   0  0  0  0  0  0  0  0  0  0  0  0
   -9.6091   -0.9359   -0.1183 C   0  0  0  0  0  0  0  0  0  0  0  0
   -9.5358    0.3745    0.3333 C   0  0  0  0  0  0  0  0  0  0  0  0
  -10.4483    0.8619    1.4227 C   0  0  0  0  0  0  0  0  0  0  0  0
   -9.9053    0.4980    2.8062 C   0  0  0  0  0  0  0  0  0  0  0  0
   -8.5894    1.2160   -0.2383 C   0  0  0  0  0  0  0  0  0  0  0  0
   -7.7536    0.7677   -1.2428 C   0  0  0  0  0  0  0  0  0  0  0  0
   -5.4796   -1.1001   -2.4300 C   0  0  0  0  0  0  0  0  0  0  0  0
   -4.7561   -0.3711   -1.4836 C   0  0  0  0  0  0  0  0  0  0  0  0
   -7.0414   -3.9634   -4.9893 C   0  0  0  0  0  0  0  0  0  0  0  0
   -5.9838   -4.5654   -5.6882 C   0  0  0  0  0  0  0  0  0  0  0  0
   -4.4415   -3.8823   -5.2111 S   0  0  0  0  0  0  0  0  0  0  0  0
   -6.1828   -5.5526   -6.6542 C   0  0  0  0  0  0  0  0  0  0  0  0
   -5.2671   -6.2603   -7.4037 C   0  0  0  0  0  0  0  0  0  0  0  0
   -3.8172   -6.1839   -7.2763 C   0  0  0  0  0  0  0  0  0  0  0  0
   -3.1657   -5.4266   -6.5766 O   0  0  0  0  0  0  0  0  0  0  0  0
   -3.2716   -7.2522   -8.1408 C   0  0  0  0  0  0  0  0  0  0  0  0
   -1.9566   -7.6534   -8.2919 C   0  0  0  0  0  0  0  0  0  0  0  0
   -0.6714   -6.8018   -7.5600 Cl  0  0  0  0  0  0  0  0  0  0  0  0
   -1.6982   -8.7947   -9.0650 C   0  0  0  0  0  0  0  0  0  0  0  0
   -0.0866   -9.3099   -9.3126 Cl  0  0  0  0  0  0  0  0  0  0  0  0
   -2.7549   -9.5341   -9.5918 C   0  0  0  0  0  0  0  0  0  0  0  0
   -2.4207  -10.9791  -10.4438 Cl  0  0  0  0  0  0  0  0  0  0  0  0
   -4.0896   -9.1257   -9.4244 C   0  0  0  0  0  0  0  0  0  0  0  0
   -5.3323  -10.1877   -9.9427 Cl  0  0  0  0  0  0  0  0  0  0  0  0
   -4.3408   -7.9336   -8.7583 C   0  0  0  0  0  0  0  0  0  0  0  0
   -5.5776   -7.2155   -8.4492 C   0  0  0  0  0  0  0  0  0  0  0  0
   -6.7490   -7.2703   -9.1610 C   0  0  0  0  0  0  0  0  0  0  0  0
   -7.9238   -6.5603   -8.8294 C   0  0  0  0  0  0  0  0  0  0  0  0
   -8.9259   -6.0376   -8.6250 N   0  0  0  0  0  0  0  0  0  0  0  0
   -6.9265   -7.8894  -10.4172 C   0  0  0  0  0  0  0  0  0  0  0  0
   -7.1486   -8.2581  -11.4812 N   0  0  0  0  0  0  0  0  0  0  0  0
   10.5534    1.0538    5.1838 H   0  0  0  0  0  0  0  0  0  0  0  0
   14.7001   -2.3649    3.8195 H   0  0  0  0  0  0  0  0  0  0  0  0
   14.9553   -4.0474    2.0535 H   0  0  0  0  0  0  0  0  0  0  0  0
    6.5799    5.7312    5.6109 H   0  0  0  0  0  0  0  0  0  0  0  0
    7.0815    6.5435    7.8678 H   0  0  0  0  0  0  0  0  0  0  0  0
    6.5244    4.6000   10.9424 H   0  0  0  0  0  0  0  0  0  0  0  0
    6.8629    6.2077   10.2845 H   0  0  0  0  0  0  0  0  0  0  0  0
    9.1870    5.4890    9.7295 H   0  0  0  0  0  0  0  0  0  0  0  0
    8.8508    3.8854   10.3792 H   0  0  0  0  0  0  0  0  0  0  0  0
    8.8561    5.2881   11.4533 H   0  0  0  0  0  0  0  0  0  0  0  0
    6.3241    2.6565    9.4498 H   0  0  0  0  0  0  0  0  0  0  0  0
    5.8272    1.8368    7.1876 H   0  0  0  0  0  0  0  0  0  0  0  0
    8.1736    4.0126    3.6500 H   0  0  0  0  0  0  0  0  0  0  0  0
    8.4160    5.5939    1.8083 H   0  0  0  0  0  0  0  0  0  0  0  0
    7.4379    7.4159    0.4960 H   0  0  0  0  0  0  0  0  0  0  0  0
    5.6852    7.6581    0.4461 H   0  0  0  0  0  0  0  0  0  0  0  0
    6.5732    6.7324   -1.7094 H   0  0  0  0  0  0  0  0  0  0  0  0
    5.4275    5.6231   -0.9511 H   0  0  0  0  0  0  0  0  0  0  0  0
    7.1575    5.3066   -0.8401 H   0  0  0  0  0  0  0  0  0  0  0  0
    4.1950    6.1922    1.7516 H   0  0  0  0  0  0  0  0  0  0  0  0
    3.9480    4.6216    3.6137 H   0  0  0  0  0  0  0  0  0  0  0  0
    8.6599    2.5077    5.5282 H   0  0  0  0  0  0  0  0  0  0  0  0
    1.9857    2.4062    3.7970 H   0  0  0  0  0  0  0  0  0  0  0  0
    2.9349    2.5485    0.1997 H   0  0  0  0  0  0  0  0  0  0  0  0
    5.1734    3.4906    0.6113 H   0  0  0  0  0  0  0  0  0  0  0  0
    8.7470    0.2753    0.6669 H   0  0  0  0  0  0  0  0  0  0  0  0
    8.9977    0.9318   -0.9870 H   0  0  0  0  0  0  0  0  0  0  0  0
    9.9281    1.5731    0.3822 H   0  0  0  0  0  0  0  0  0  0  0  0
    6.9518   -0.1318   -0.8073 H   0  0  0  0  0  0  0  0  0  0  0  0
    4.7376   -1.0729   -1.1830 H   0  0  0  0  0  0  0  0  0  0  0  0
    2.9891    0.4659   -3.1201 H   0  0  0  0  0  0  0  0  0  0  0  0
    2.3093   -0.9671   -5.0130 H   0  0  0  0  0  0  0  0  0  0  0  0
   -0.1494   -5.2193   -4.0311 H   0  0  0  0  0  0  0  0  0  0  0  0
   -1.1237   -4.6344   -5.3993 H   0  0  0  0  0  0  0  0  0  0  0  0
   -1.1247   -3.7207   -3.8792 H   0  0  0  0  0  0  0  0  0  0  0  0
    0.7017   -3.8239   -2.2711 H   0  0  0  0  0  0  0  0  0  0  0  0
    1.3766   -2.4018   -0.3973 H   0  0  0  0  0  0  0  0  0  0  0  0
   -2.4196    2.7530    1.2955 H   0  0  0  0  0  0  0  0  0  0  0  0
   -2.2789    4.4047    3.0777 H   0  0  0  0  0  0  0  0  0  0  0  0
   -2.7592    6.1427    4.5525 H   0  0  0  0  0  0  0  0  0  0  0  0
   -1.1874    5.3712    4.9482 H   0  0  0  0  0  0  0  0  0  0  0  0
   -2.0532    6.3260    6.1718 H   0  0  0  0  0  0  0  0  0  0  0  0
   -3.8964    1.5639    5.8370 H   0  0  0  0  0  0  0  0  0  0  0  0
   -4.0144   -0.1129    4.0378 H   0  0  0  0  0  0  0  0  0  0  0  0
   -5.8198    0.6486    2.1206 H   0  0  0  0  0  0  0  0  0  0  0  0
   -7.6217   -1.0174    1.9302 H   0  0  0  0  0  0  0  0  0  0  0  0
   -6.7668   -4.1463   -1.0885 H   0  0  0  0  0  0  0  0  0  0  0  0
   -6.4156   -5.4825    0.0531 H   0  0  0  0  0  0  0  0  0  0  0  0
   -8.0460   -5.2912   -0.6186 H   0  0  0  0  0  0  0  0  0  0  0  0
   -4.7912   -3.9319    0.6100 H   0  0  0  0  0  0  0  0  0  0  0  0
   -2.9999   -2.2979    0.8348 H   0  0  0  0  0  0  0  0  0  0  0  0
   -9.1060   -0.7256   -4.3270 H   0  0  0  0  0  0  0  0  0  0  0  0
   -9.5182    0.7970   -6.2149 H   0  0  0  0  0  0  0  0  0  0  0  0
   -8.8698    2.8895   -7.3518 H   0  0  0  0  0  0  0  0  0  0  0  0
   -7.2214    3.5161   -7.2025 H   0  0  0  0  0  0  0  0  0  0  0  0
   -7.5978    2.5423   -9.4580 H   0  0  0  0  0  0  0  0  0  0  0  0
   -8.0203    0.9894   -8.7290 H   0  0  0  0  0  0  0  0  0  0  0  0
   -6.3778    1.6130   -8.5805 H   0  0  0  0  0  0  0  0  0  0  0  0
   -5.5919    2.3998   -5.7634 H   0  0  0  0  0  0  0  0  0  0  0  0
   -5.1769    0.8854   -3.8929 H   0  0  0  0  0  0  0  0  0  0  0  0
   -8.8491   -2.4114   -1.4610 H   0  0  0  0  0  0  0  0  0  0  0  0
  -10.3373   -1.6094    0.3092 H   0  0  0  0  0  0  0  0  0  0  0  0
  -11.4356    0.4121    1.2996 H   0  0  0  0  0  0  0  0  0  0  0  0
  -10.5566    1.9461    1.3538 H   0  0  0  0  0  0  0  0  0  0  0  0
   -8.9245    0.9438    2.9599 H   0  0  0  0  0  0  0  0  0  0  0  0
  -10.5742    0.8625    3.5822 H   0  0  0  0  0  0  0  0  0  0  0  0
   -9.8170   -0.5816    2.9087 H   0  0  0  0  0  0  0  0  0  0  0  0
   -8.5193    2.2427    0.0922 H   0  0  0  0  0  0  0  0  0  0  0  0
   -7.0580    1.4522   -1.7066 H   0  0  0  0  0  0  0  0  0  0  0  0
   -5.1927    0.3454   -0.8144 H   0  0  0  0  0  0  0  0  0  0  0  0
   -8.0671   -4.2468   -5.1386 H   0  0  0  0  0  0  0  0  0  0  0  0
   -7.2265   -5.7981   -6.8063 H   0  0  0  0  0  0  0  0  0  0  0  0
  1  2  2  0  0  0  0
  2  3  1  0  0  0  0
  3  4  2  0  0  0  0
  3  5  1  0  0  0  0
  5  6  2  0  0  0  0
  6  7  1  0  0  0  0
  7  8  2  0  0  0  0
  8  9  1  0  0  0  0
  9 10  1  0  0  0  0
  9 11  2  0  0  0  0
 11 12  1  0  0  0  0
  6 13  1  0  0  0  0
 13 14  2  0  0  0  0
 14 15  1  0  0  0  0
 15 16  3  0  0  0  0
 14 17  1  0  0  0  0
 17 18  3  0  0  0  0
  1 19  1  0  0  0  0
 19 20  1  0  0  0  0
 20 21  1  0  0  0  0
 21 22  1  0  0  0  0
 22 23  2  0  0  0  0
 23 24  1  0  0  0  0
 24 25  1  0  0  0  0
 25 26  1  0  0  0  0
 26 27  2  0  0  0  0
 27 28  1  0  0  0  0
 28 29  2  0  0  0  0
 29 30  1  0  0  0  0
 30 31  1  0  0  0  0
 29 32  1  0  0  0  0
 32 33  2  0  0  0  0
 25 34  1  0  0  0  0
 34 35  2  0  0  0  0
 35 36  1  0  0  0  0
 36 37  2  0  0  0  0
 37 38  1  0  0  0  0
 38 39  1  0  0  0  0
 37 40  1  0  0  0  0
 40 41  2  0  0  0  0
 25 42  1  0  0  0  0
 42 43  1  0  0  0  0
 23 44  1  0  0  0  0
 44 45  2  0  0  0  0
 45 46  1  0  0  0  0
 45 47  1  0  0  0  0
 47 48  2  0  0  0  0
 48 49  1  0  0  0  0
 49 50  1  0  0  0  0
 50 51  2  0  0  0  0
 51 52  1  0  0  0  0
 52 53  2  0  0  0  0
 53 54  1  0  0  0  0
 54 55  1  0  0  0  0
 53 56  1  0  0  0  0
 56 57  2  0  0  0  0
 49 58  1  0  0  0  0
 58 59  2  0  0  0  0
 59 60  1  0  0  0  0
 60 61  2  0  0  0  0
 61 62  1  0  0  0  0
 62 63  1  0  0  0  0
 61 64  1  0  0  0  0
 64 65  2  0  0  0  0
 48 66  1  0  0  0  0
 66 67  1  0  0  0  0
 67 68  1  0  0  0  0
 68 69  2  0  0  0  0
 69 70  1  0  0  0  0
 70 71  1  0  0  0  0
 71 72  2  0  0  0  0
 72 73  1  0  0  0  0
 73 74  2  0  0  0  0
 74 75  1  0  0  0  0
 75 76  1  0  0  0  0
 74 77  1  0  0  0  0
 77 78  2  0  0  0  0
 70 79  1  0  0  0  0
 79 80  2  0  0  0  0
 80 81  1  0  0  0  0
 81 82  2  0  0  0  0
 82 83  1  0  0  0  0
 83 84  1  0  0  0  0
 82 85  1  0  0  0  0
 85 86  2  0  0  0  0
 69 87  1  0  0  0  0
 87 88  1  0  0  0  0
 68 89  1  0  0  0  0
 89 90  1  0  0  0  0
 90 91  1  0  0  0  0
 91 92  1  0  0  0  0
 92 93  2  0  0  0  0
 93 94  1  0  0  0  0
 94 95  1  0  0  0  0
 95 96  1  0  0  0  0
 96 97  2  0  0  0  0
 97 98  1  0  0  0  0
 98 99  2  0  0  0  0
 99100  1  0  0  0  0
100101  1  0  0  0  0
 99102  1  0  0  0  0
102103  2  0  0  0  0
 95104  1  0  0  0  0
104105  2  0  0  0  0
105106  1  0  0  0  0
106107  2  0  0  0  0
107108  1  0  0  0  0
108109  1  0  0  0  0
107110  1  0  0  0  0
110111  2  0  0  0  0
 95112  1  0  0  0  0
112113  1  0  0  0  0
 93114  1  0  0  0  0
114115  2  0  0  0  0
115116  1  0  0  0  0
115117  1  0  0  0  0
117118  2  0  0  0  0
118119  1  0  0  0  0
119120  2  0  0  0  0
119121  1  0  0  0  0
121122  2  0  0  0  0
122123  1  0  0  0  0
122124  1  0  0  0  0
124125  1  0  0  0  0
124126  2  0  0  0  0
126127  1  0  0  0  0
126128  1  0  0  0  0
128129  1  0  0  0  0
128130  2  0  0  0  0
130131  1  0  0  0  0
131132  2  0  0  0  0
132133  1  0  0  0  0
133134  3  0  0  0  0
132135  1  0  0  0  0
135136  3  0  0  0  0
 13  2  1  0  0  0  0
 43 19  2  0  0  0  0
 88 47  1  0  0  0  0
113 89  2  0  0  0  0
131118  1  0  0  0  0
 11  5  1  0  0  0  0
 42 21  2  0  0  0  0
 57 50  1  0  0  0  0
 65 58  1  0  0  0  0
 87 66  2  0  0  0  0
112 91  2  0  0  0  0
130121  1  0  0  0  0
 46 22  1  0  0  0  0
 78 71  1  0  0  0  0
 86 79  1  0  0  0  0
116 92  1  0  0  0  0
 33 26  1  0  0  0  0
 41 34  1  0  0  0  0
103 96  1  0  0  0  0
111104  1  0  0  0  0
  1137  1  0  0  0  0
  7138  1  0  0  0  0
  8139  1  0  0  0  0
 27140  1  0  0  0  0
 28141  1  0  0  0  0
 30142  1  0  0  0  0
 30143  1  0  0  0  0
 31144  1  0  0  0  0
 31145  1  0  0  0  0
 31146  1  0  0  0  0
 32147  1  0  0  0  0
 33148  1  0  0  0  0
 35149  1  0  0  0  0
 36150  1  0  0  0  0
 38151  1  0  0  0  0
 38152  1  0  0  0  0
 39153  1  0  0  0  0
 39154  1  0  0  0  0
 39155  1  0  0  0  0
 40156  1  0  0  0  0
 41157  1  0  0  0  0
 43158  1  0  0  0  0
 44159  1  0  0  0  0
 51160  1  0  0  0  0
 52161  1  0  0  0  0
 55162  1  0  0  0  0
 55163  1  0  0  0  0
 55164  1  0  0  0  0
 56165  1  0  0  0  0
 57166  1  0  0  0  0
 59167  1  0  0  0  0
 60168  1  0  0  0  0
 63169  1  0  0  0  0
 63170  1  0  0  0  0
 63171  1  0  0  0  0
 64172  1  0  0  0  0
 65173  1  0  0  0  0
 72174  1  0  0  0  0
 73175  1  0  0  0  0
 76176  1  0  0  0  0
 76177  1  0  0  0  0
 76178  1  0  0  0  0
 77179  1  0  0  0  0
 78180  1  0  0  0  0
 80181  1  0  0  0  0
 81182  1  0  0  0  0
 84183  1  0  0  0  0
 84184  1  0  0  0  0
 84185  1  0  0  0  0
 85186  1  0  0  0  0
 86187  1  0  0  0  0
 97188  1  0  0  0  0
 98189  1  0  0  0  0
100190  1  0  0  0  0
100191  1  0  0  0  0
101192  1  0  0  0  0
101193  1  0  0  0  0
101194  1  0  0  0  0
102195  1  0  0  0  0
103196  1  0  0  0  0
105197  1  0  0  0  0
106198  1  0  0  0  0
108199  1  0  0  0  0
108200  1  0  0  0  0
109201  1  0  0  0  0
109202  1  0  0  0  0
109203  1  0  0  0  0
110204  1  0  0  0  0
111205  1  0  0  0  0
113206  1  0  0  0  0
114207  1  0  0  0  0
117208  1  0  0  0  0
M  END
