
  xtb     02032221053D
 energy: -303.075742356971 gnorm: 0.000531538205 xtb: 6.4.1 (unknown)
164179  0     0  0            999 V2000
   -1.8327   -4.6257    6.7472 C   0  0  0  0  0  0  0  0  0  0  0  0
   -2.2237   -4.1470    7.9617 C   0  0  0  0  0  0  0  0  0  0  0  0
   -2.9828   -5.0163    8.8979 C   0  0  0  0  0  0  0  0  0  0  0  0
   -3.1522   -6.2084    8.8108 O   0  0  0  0  0  0  0  0  0  0  0  0
   -3.5213   -4.0896    9.9252 C   0  0  0  0  0  0  0  0  0  0  0  0
   -3.0159   -2.7944    9.6999 C   0  0  0  0  0  0  0  0  0  0  0  0
   -3.3940   -1.7423   10.5167 C   0  0  0  0  0  0  0  0  0  0  0  0
   -4.2765   -1.9973   11.5561 C   0  0  0  0  0  0  0  0  0  0  0  0
   -4.7642   -3.2748   11.7845 C   0  0  0  0  0  0  0  0  0  0  0  0
   -5.9542   -3.5582   13.2248 Br  0  0  0  0  0  0  0  0  0  0  0  0
   -4.3931   -4.3512   10.9693 C   0  0  0  0  0  0  0  0  0  0  0  0
   -4.9940   -5.9286   11.2525 Cl  0  0  0  0  0  0  0  0  0  0  0  0
   -2.1006   -2.8445    8.5647 C   0  0  0  0  0  0  0  0  0  0  0  0
   -1.1346   -1.9138    8.2672 C   0  0  0  0  0  0  0  0  0  0  0  0
   -0.0914   -2.1955    7.3659 C   0  0  0  0  0  0  0  0  0  0  0  0
    0.7957   -2.4460    6.6812 N   0  0  0  0  0  0  0  0  0  0  0  0
   -1.0249   -0.6549    8.8864 C   0  0  0  0  0  0  0  0  0  0  0  0
   -0.9178    0.3939    9.3406 N   0  0  0  0  0  0  0  0  0  0  0  0
   -1.4702   -3.9150    5.5660 C   0  0  0  0  0  0  0  0  0  0  0  0
   -0.6148   -4.5418    4.6331 C   0  0  0  0  0  0  0  0  0  0  0  0
   -0.1062   -5.7892    4.8126 N   0  0  0  0  0  0  0  0  0  0  0  0
    0.6225   -6.1745    3.8359 C   0  0  0  0  0  0  0  0  0  0  0  0
    1.3103   -7.4860    3.7620 C   0  0  0  0  0  0  0  0  0  0  0  0
    1.1162   -8.1643    2.4082 C   0  0  0  0  0  0  0  0  0  0  0  0
    0.7878   -4.9993    2.5303 S   0  0  0  0  0  0  0  0  0  0  0  0
   -0.2155   -3.9125    3.4355 C   0  0  0  0  0  0  0  0  0  0  0  0
   -0.6951   -2.6572    3.0463 C   0  0  0  0  0  0  0  0  0  0  0  0
   -1.6265   -2.0780    3.9283 C   0  0  0  0  0  0  0  0  0  0  0  0
   -1.9662   -2.6674    5.1646 C   0  0  0  0  0  0  0  0  0  0  0  0
   -3.1507   -1.6690    5.9496 S   0  0  0  0  0  0  0  0  0  0  0  0
   -3.0890   -0.5641    4.5678 C   0  0  0  0  0  0  0  0  0  0  0  0
   -3.9349    0.6530    4.5352 C   0  0  0  0  0  0  0  0  0  0  0  0
   -4.6833    0.7629    3.2075 C   0  0  0  0  0  0  0  0  0  0  0  0
   -2.2690   -0.9133    3.6563 N   0  0  0  0  0  0  0  0  0  0  0  0
   -0.3906   -2.0197    1.8057 C   0  0  0  0  0  0  0  0  0  0  0  0
    0.7719   -2.1145    1.0446 C   0  0  0  0  0  0  0  0  0  0  0  0
    1.9812   -2.5760    1.5251 N   0  0  0  0  0  0  0  0  0  0  0  0
    2.3834   -2.2273    2.8302 C   0  0  0  0  0  0  0  0  0  0  0  0
    2.0126   -1.0065    3.3926 C   0  0  0  0  0  0  0  0  0  0  0  0
    2.4142   -0.6783    4.6672 C   0  0  0  0  0  0  0  0  0  0  0  0
    3.1923   -1.5603    5.4126 C   0  0  0  0  0  0  0  0  0  0  0  0
    3.6737   -1.0428    7.0267 S   0  0  0  0  0  0  0  0  0  0  0  0
    3.9763   -2.6196    7.8761 C   0  0  0  0  0  0  0  0  0  0  0  0
    3.5774   -2.7701    4.8508 C   0  0  0  0  0  0  0  0  0  0  0  0
    3.1757   -3.0986    3.5715 C   0  0  0  0  0  0  0  0  0  0  0  0
    2.9131   -3.0945    0.6178 C   0  0  0  0  0  0  0  0  0  0  0  0
    4.2622   -2.7460    0.6878 C   0  0  0  0  0  0  0  0  0  0  0  0
    5.1492   -3.2298   -0.2457 C   0  0  0  0  0  0  0  0  0  0  0  0
    4.7143   -4.0683   -1.2710 C   0  0  0  0  0  0  0  0  0  0  0  0
    5.9392   -4.5896   -2.4293 S   0  0  0  0  0  0  0  0  0  0  0  0
    4.9821   -5.4266   -3.7254 C   0  0  0  0  0  0  0  0  0  0  0  0
    3.3791   -4.4421   -1.3266 C   0  0  0  0  0  0  0  0  0  0  0  0
    2.4888   -3.9589   -0.3881 C   0  0  0  0  0  0  0  0  0  0  0  0
    0.5951   -1.5141   -0.2241 C   0  0  0  0  0  0  0  0  0  0  0  0
    1.6196   -1.3007   -1.6012 S   0  0  0  0  0  0  0  0  0  0  0  0
    0.3457   -0.4223   -2.4169 C   0  0  0  0  0  0  0  0  0  0  0  0
   -0.7651   -0.1957   -1.6089 C   0  0  0  0  0  0  0  0  0  0  0  0
   -1.7989    0.6784   -1.8942 N   0  0  0  0  0  0  0  0  0  0  0  0
   -1.5787    1.8466   -2.6407 C   0  0  0  0  0  0  0  0  0  0  0  0
   -0.3703    2.5429   -2.5684 C   0  0  0  0  0  0  0  0  0  0  0  0
   -0.1328    3.6187   -3.3943 C   0  0  0  0  0  0  0  0  0  0  0  0
   -1.1002    4.0375   -4.3064 C   0  0  0  0  0  0  0  0  0  0  0  0
   -0.6791    5.4022   -5.3455 S   0  0  0  0  0  0  0  0  0  0  0  0
   -2.0614    5.4895   -6.5210 C   0  0  0  0  0  0  0  0  0  0  0  0
   -2.3284    3.3921   -4.3386 C   0  0  0  0  0  0  0  0  0  0  0  0
   -2.5618    2.3103   -3.5127 C   0  0  0  0  0  0  0  0  0  0  0  0
   -3.0672    0.4208   -1.3551 C   0  0  0  0  0  0  0  0  0  0  0  0
   -3.8434    1.4556   -0.8419 C   0  0  0  0  0  0  0  0  0  0  0  0
   -5.0854    1.1999   -0.2956 C   0  0  0  0  0  0  0  0  0  0  0  0
   -5.5694   -0.1007   -0.2471 C   0  0  0  0  0  0  0  0  0  0  0  0
   -7.1219   -0.5534    0.4592 S   0  0  0  0  0  0  0  0  0  0  0  0
   -7.9289    1.0359    0.8050 C   0  0  0  0  0  0  0  0  0  0  0  0
   -4.7989   -1.1382   -0.7679 C   0  0  0  0  0  0  0  0  0  0  0  0
   -3.5646   -0.8822   -1.3206 C   0  0  0  0  0  0  0  0  0  0  0  0
   -0.6301   -0.8803   -0.3760 C   0  0  0  0  0  0  0  0  0  0  0  0
   -1.6132   -1.0168    1.0439 S   0  0  0  0  0  0  0  0  0  0  0  0
    0.5708    0.0848   -3.7355 C   0  0  0  0  0  0  0  0  0  0  0  0
    1.8387    0.5620   -4.1093 C   0  0  0  0  0  0  0  0  0  0  0  0
    2.9644    0.3330   -3.3879 N   0  0  0  0  0  0  0  0  0  0  0  0
    4.0041    0.8635   -3.9073 C   0  0  0  0  0  0  0  0  0  0  0  0
    5.3754    0.7635   -3.3522 C   0  0  0  0  0  0  0  0  0  0  0  0
    5.5522   -0.4980   -2.5127 C   0  0  0  0  0  0  0  0  0  0  0  0
    3.6935    1.7890   -5.3820 S   0  0  0  0  0  0  0  0  0  0  0  0
    2.0205    1.3740   -5.2524 C   0  0  0  0  0  0  0  0  0  0  0  0
    0.9613    1.7012   -6.1058 C   0  0  0  0  0  0  0  0  0  0  0  0
   -0.2374    0.9855   -5.8711 C   0  0  0  0  0  0  0  0  0  0  0  0
   -0.4229    0.2135   -4.7093 C   0  0  0  0  0  0  0  0  0  0  0  0
   -2.0028   -0.5063   -4.7381 S   0  0  0  0  0  0  0  0  0  0  0  0
   -2.2957    0.3213   -6.2736 C   0  0  0  0  0  0  0  0  0  0  0  0
   -3.5839    0.1626   -6.9875 C   0  0  0  0  0  0  0  0  0  0  0  0
   -3.8510   -1.2991   -7.3459 C   0  0  0  0  0  0  0  0  0  0  0  0
   -1.3216    1.0350   -6.6888 N   0  0  0  0  0  0  0  0  0  0  0  0
    0.9143    2.6617   -7.1576 C   0  0  0  0  0  0  0  0  0  0  0  0
    1.5217    3.8781   -7.2315 C   0  0  0  0  0  0  0  0  0  0  0  0
    2.3386    4.5271   -6.1893 C   0  0  0  0  0  0  0  0  0  0  0  0
    2.5526    4.1376   -5.0615 O   0  0  0  0  0  0  0  0  0  0  0  0
    2.8379    5.7822   -6.7965 C   0  0  0  0  0  0  0  0  0  0  0  0
    3.7510    6.6855   -6.2838 C   0  0  0  0  0  0  0  0  0  0  0  0
    4.3607    6.5292   -4.6990 Cl  0  0  0  0  0  0  0  0  0  0  0  0
    4.1805    7.7348   -7.1085 C   0  0  0  0  0  0  0  0  0  0  0  0
    5.2877    8.8916   -6.5098 Cl  0  0  0  0  0  0  0  0  0  0  0  0
    3.7407    7.8116   -8.4292 C   0  0  0  0  0  0  0  0  0  0  0  0
    4.3555    9.0425   -9.4463 Cl  0  0  0  0  0  0  0  0  0  0  0  0
    2.8145    6.8905   -8.9435 C   0  0  0  0  0  0  0  0  0  0  0  0
    2.4534    6.9435  -10.6196 Cl  0  0  0  0  0  0  0  0  0  0  0  0
    2.3102    5.9129   -8.0957 C   0  0  0  0  0  0  0  0  0  0  0  0
    1.3254    4.8540   -8.2957 C   0  0  0  0  0  0  0  0  0  0  0  0
    0.2659    4.9029   -9.1601 C   0  0  0  0  0  0  0  0  0  0  0  0
   -0.1414    6.0558   -9.8687 C   0  0  0  0  0  0  0  0  0  0  0  0
   -0.6238    6.9640  -10.3779 N   0  0  0  0  0  0  0  0  0  0  0  0
   -0.7118    3.8966   -9.3294 C   0  0  0  0  0  0  0  0  0  0  0  0
   -1.5597    3.1542   -9.5514 N   0  0  0  0  0  0  0  0  0  0  0  0
   -1.8409   -5.7056    6.6411 H   0  0  0  0  0  0  0  0  0  0  0  0
   -3.0281   -0.7417   10.3547 H   0  0  0  0  0  0  0  0  0  0  0  0
   -4.5917   -1.1935   12.2035 H   0  0  0  0  0  0  0  0  0  0  0  0
    2.3790   -7.3267    3.9358 H   0  0  0  0  0  0  0  0  0  0  0  0
    0.9258   -8.1120    4.5686 H   0  0  0  0  0  0  0  0  0  0  0  0
    1.6304   -9.1214    2.3942 H   0  0  0  0  0  0  0  0  0  0  0  0
    1.5167   -7.5422    1.6104 H   0  0  0  0  0  0  0  0  0  0  0  0
    0.0595   -8.3357    2.2176 H   0  0  0  0  0  0  0  0  0  0  0  0
   -4.6342    0.6306    5.3729 H   0  0  0  0  0  0  0  0  0  0  0  0
   -3.2858    1.5257    4.6554 H   0  0  0  0  0  0  0  0  0  0  0  0
   -5.3795   -0.0645    3.0925 H   0  0  0  0  0  0  0  0  0  0  0  0
   -5.2375    1.6976    3.1759 H   0  0  0  0  0  0  0  0  0  0  0  0
   -3.9800    0.7361    2.3795 H   0  0  0  0  0  0  0  0  0  0  0  0
    1.4122   -0.3111    2.8254 H   0  0  0  0  0  0  0  0  0  0  0  0
    2.1295    0.2673    5.1017 H   0  0  0  0  0  0  0  0  0  0  0  0
    4.9276   -3.0439    7.5679 H   0  0  0  0  0  0  0  0  0  0  0  0
    4.0060   -2.3865    8.9359 H   0  0  0  0  0  0  0  0  0  0  0  0
    3.1503   -3.2910    7.6625 H   0  0  0  0  0  0  0  0  0  0  0  0
    4.1910   -3.4651    5.4010 H   0  0  0  0  0  0  0  0  0  0  0  0
    3.4844   -4.0374    3.1349 H   0  0  0  0  0  0  0  0  0  0  0  0
    4.6038   -2.0789    1.4645 H   0  0  0  0  0  0  0  0  0  0  0  0
    6.1905   -2.9504   -0.2043 H   0  0  0  0  0  0  0  0  0  0  0  0
    5.6948   -5.6628   -4.5094 H   0  0  0  0  0  0  0  0  0  0  0  0
    4.5466   -6.3433   -3.3384 H   0  0  0  0  0  0  0  0  0  0  0  0
    4.2183   -4.7560   -4.1078 H   0  0  0  0  0  0  0  0  0  0  0  0
    3.0166   -5.1088   -2.0919 H   0  0  0  0  0  0  0  0  0  0  0  0
    1.4512   -4.2549   -0.4302 H   0  0  0  0  0  0  0  0  0  0  0  0
    0.3891    2.2308   -1.8677 H   0  0  0  0  0  0  0  0  0  0  0  0
    0.8134    4.1354   -3.3554 H   0  0  0  0  0  0  0  0  0  0  0  0
   -2.9718    5.7792   -6.0047 H   0  0  0  0  0  0  0  0  0  0  0  0
   -2.1779    4.5338   -7.0248 H   0  0  0  0  0  0  0  0  0  0  0  0
   -1.7928    6.2596   -7.2384 H   0  0  0  0  0  0  0  0  0  0  0  0
   -3.1074    3.7061   -5.0137 H   0  0  0  0  0  0  0  0  0  0  0  0
   -3.5137    1.8014   -3.5589 H   0  0  0  0  0  0  0  0  0  0  0  0
   -3.4653    2.4670   -0.8630 H   0  0  0  0  0  0  0  0  0  0  0  0
   -5.6575    2.0227    0.1009 H   0  0  0  0  0  0  0  0  0  0  0  0
   -8.9253    0.7864    1.1562 H   0  0  0  0  0  0  0  0  0  0  0  0
   -7.3886    1.5697    1.5811 H   0  0  0  0  0  0  0  0  0  0  0  0
   -7.9948    1.6216   -0.1069 H   0  0  0  0  0  0  0  0  0  0  0  0
   -5.1854   -2.1451   -0.7377 H   0  0  0  0  0  0  0  0  0  0  0  0
   -2.9797   -1.6866   -1.7401 H   0  0  0  0  0  0  0  0  0  0  0  0
    5.5558    1.6471   -2.7310 H   0  0  0  0  0  0  0  0  0  0  0  0
    6.0964    0.7899   -4.1722 H   0  0  0  0  0  0  0  0  0  0  0  0
    6.5450   -0.5174   -2.0720 H   0  0  0  0  0  0  0  0  0  0  0  0
    5.4286   -1.3848   -3.1280 H   0  0  0  0  0  0  0  0  0  0  0  0
    4.8093   -0.5312   -1.7212 H   0  0  0  0  0  0  0  0  0  0  0  0
   -3.5403    0.7756   -7.8889 H   0  0  0  0  0  0  0  0  0  0  0  0
   -4.3923    0.5307   -6.3495 H   0  0  0  0  0  0  0  0  0  0  0  0
   -3.0648   -1.6784   -7.9939 H   0  0  0  0  0  0  0  0  0  0  0  0
   -3.8878   -1.9106   -6.4467 H   0  0  0  0  0  0  0  0  0  0  0  0
   -4.8011   -1.3861   -7.8658 H   0  0  0  0  0  0  0  0  0  0  0  0
    0.2042    2.4010   -7.9325 H   0  0  0  0  0  0  0  0  0  0  0  0
  1  2  2  0  0  0  0
  2  3  1  0  0  0  0
  3  4  2  0  0  0  0
  3  5  1  0  0  0  0
  5  6  2  0  0  0  0
  6  7  1  0  0  0  0
  7  8  2  0  0  0  0
  8  9  1  0  0  0  0
  9 10  1  0  0  0  0
  9 11  2  0  0  0  0
 11 12  1  0  0  0  0
  6 13  1  0  0  0  0
 13 14  2  0  0  0  0
 14 15  1  0  0  0  0
 15 16  3  0  0  0  0
 14 17  1  0  0  0  0
 17 18  3  0  0  0  0
  1 19  1  0  0  0  0
 19 20  2  0  0  0  0
 20 21  1  0  0  0  0
 21 22  2  0  0  0  0
 22 23  1  0  0  0  0
 23 24  1  0  0  0  0
 22 25  1  0  0  0  0
 25 26  1  0  0  0  0
 26 27  2  0  0  0  0
 27 28  1  0  0  0  0
 28 29  2  0  0  0  0
 29 30  1  0  0  0  0
 30 31  1  0  0  0  0
 31 32  1  0  0  0  0
 32 33  1  0  0  0  0
 31 34  2  0  0  0  0
 27 35  1  0  0  0  0
 35 36  2  0  0  0  0
 36 37  1  0  0  0  0
 37 38  1  0  0  0  0
 38 39  2  0  0  0  0
 39 40  1  0  0  0  0
 40 41  2  0  0  0  0
 41 42  1  0  0  0  0
 42 43  1  0  0  0  0
 41 44  1  0  0  0  0
 44 45  2  0  0  0  0
 37 46  1  0  0  0  0
 46 47  2  0  0  0  0
 47 48  1  0  0  0  0
 48 49  2  0  0  0  0
 49 50  1  0  0  0  0
 50 51  1  0  0  0  0
 49 52  1  0  0  0  0
 52 53  2  0  0  0  0
 36 54  1  0  0  0  0
 54 55  1  0  0  0  0
 55 56  1  0  0  0  0
 56 57  2  0  0  0  0
 57 58  1  0  0  0  0
 58 59  1  0  0  0  0
 59 60  2  0  0  0  0
 60 61  1  0  0  0  0
 61 62  2  0  0  0  0
 62 63  1  0  0  0  0
 63 64  1  0  0  0  0
 62 65  1  0  0  0  0
 65 66  2  0  0  0  0
 58 67  1  0  0  0  0
 67 68  2  0  0  0  0
 68 69  1  0  0  0  0
 69 70  2  0  0  0  0
 70 71  1  0  0  0  0
 71 72  1  0  0  0  0
 70 73  1  0  0  0  0
 73 74  2  0  0  0  0
 57 75  1  0  0  0  0
 75 76  1  0  0  0  0
 56 77  1  0  0  0  0
 77 78  2  0  0  0  0
 78 79  1  0  0  0  0
 79 80  2  0  0  0  0
 80 81  1  0  0  0  0
 81 82  1  0  0  0  0
 80 83  1  0  0  0  0
 83 84  1  0  0  0  0
 84 85  2  0  0  0  0
 85 86  1  0  0  0  0
 86 87  2  0  0  0  0
 87 88  1  0  0  0  0
 88 89  1  0  0  0  0
 89 90  1  0  0  0  0
 90 91  1  0  0  0  0
 89 92  2  0  0  0  0
 85 93  1  0  0  0  0
 93 94  2  0  0  0  0
 94 95  1  0  0  0  0
 95 96  2  0  0  0  0
 95 97  1  0  0  0  0
 97 98  2  0  0  0  0
 98 99  1  0  0  0  0
 98100  1  0  0  0  0
100101  1  0  0  0  0
100102  2  0  0  0  0
102103  1  0  0  0  0
102104  1  0  0  0  0
104105  1  0  0  0  0
104106  2  0  0  0  0
106107  1  0  0  0  0
107108  2  0  0  0  0
108109  1  0  0  0  0
109110  3  0  0  0  0
108111  1  0  0  0  0
111112  3  0  0  0  0
 13  2  1  0  0  0  0
 29 19  1  0  0  0  0
 76 35  1  0  0  0  0
 87 77  1  0  0  0  0
107 94  1  0  0  0  0
 11  5  1  0  0  0  0
 26 20  1  0  0  0  0
 34 28  1  0  0  0  0
 45 38  1  0  0  0  0
 53 46  1  0  0  0  0
 75 54  2  0  0  0  0
 84 78  1  0  0  0  0
 92 86  1  0  0  0  0
106 97  1  0  0  0  0
 66 59  1  0  0  0  0
 74 67  1  0  0  0  0
  1113  1  0  0  0  0
  7114  1  0  0  0  0
  8115  1  0  0  0  0
 23116  1  0  0  0  0
 23117  1  0  0  0  0
 24118  1  0  0  0  0
 24119  1  0  0  0  0
 24120  1  0  0  0  0
 32121  1  0  0  0  0
 32122  1  0  0  0  0
 33123  1  0  0  0  0
 33124  1  0  0  0  0
 33125  1  0  0  0  0
 39126  1  0  0  0  0
 40127  1  0  0  0  0
 43128  1  0  0  0  0
 43129  1  0  0  0  0
 43130  1  0  0  0  0
 44131  1  0  0  0  0
 45132  1  0  0  0  0
 47133  1  0  0  0  0
 48134  1  0  0  0  0
 51135  1  0  0  0  0
 51136  1  0  0  0  0
 51137  1  0  0  0  0
 52138  1  0  0  0  0
 53139  1  0  0  0  0
 60140  1  0  0  0  0
 61141  1  0  0  0  0
 64142  1  0  0  0  0
 64143  1  0  0  0  0
 64144  1  0  0  0  0
 65145  1  0  0  0  0
 66146  1  0  0  0  0
 68147  1  0  0  0  0
 69148  1  0  0  0  0
 72149  1  0  0  0  0
 72150  1  0  0  0  0
 72151  1  0  0  0  0
 73152  1  0  0  0  0
 74153  1  0  0  0  0
 81154  1  0  0  0  0
 81155  1  0  0  0  0
 82156  1  0  0  0  0
 82157  1  0  0  0  0
 82158  1  0  0  0  0
 90159  1  0  0  0  0
 90160  1  0  0  0  0
 91161  1  0  0  0  0
 91162  1  0  0  0  0
 91163  1  0  0  0  0
 93164  1  0  0  0  0
M  END
