
  xtb     02032220113D
 energy: -203.158932375930 gnorm: 0.000411608812 xtb: 6.4.1 (unknown)
109117  0     0  0            999 V2000
   -4.4454    4.3197    2.0726 C   0  0  0  0  0  0  0  0  0  0  0  0
   -5.5561    3.7848    1.4869 C   0  0  0  0  0  0  0  0  0  0  0  0
   -6.6161    4.6846    0.9752 C   0  0  0  0  0  0  0  0  0  0  0  0
   -6.7200    5.8714    1.1845 O   0  0  0  0  0  0  0  0  0  0  0  0
   -7.4758    3.8221    0.1309 C   0  0  0  0  0  0  0  0  0  0  0  0
   -7.0354    2.4875    0.2246 C   0  0  0  0  0  0  0  0  0  0  0  0
   -7.6621    1.4923   -0.5065 C   0  0  0  0  0  0  0  0  0  0  0  0
   -8.7303    1.8411   -1.3194 C   0  0  0  0  0  0  0  0  0  0  0  0
   -9.1729    3.1528   -1.3981 C   0  0  0  0  0  0  0  0  0  0  0  0
  -10.6432    3.5597   -2.5132 Br  0  0  0  0  0  0  0  0  0  0  0  0
   -8.5494    4.1737   -0.6716 C   0  0  0  0  0  0  0  0  0  0  0  0
   -9.0923    5.7938   -0.7705 Cl  0  0  0  0  0  0  0  0  0  0  0  0
   -5.9289    2.4238    1.1776 C   0  0  0  0  0  0  0  0  0  0  0  0
   -5.5225    1.2932    1.8378 C   0  0  0  0  0  0  0  0  0  0  0  0
   -5.9842   -0.0046    1.5425 C   0  0  0  0  0  0  0  0  0  0  0  0
   -6.3158   -1.0838    1.3351 N   0  0  0  0  0  0  0  0  0  0  0  0
   -4.6701    1.3148    2.9611 C   0  0  0  0  0  0  0  0  0  0  0  0
   -4.0359    1.2996    3.9183 N   0  0  0  0  0  0  0  0  0  0  0  0
   -3.1910    3.6818    2.2419 C   0  0  0  0  0  0  0  0  0  0  0  0
   -2.2175    3.7914    3.2297 C   0  0  0  0  0  0  0  0  0  0  0  0
   -2.2417    4.4743    4.3842 O   0  0  0  0  0  0  0  0  0  0  0  0
   -3.2580    5.4149    4.6715 C   0  0  0  0  0  0  0  0  0  0  0  0
   -2.9971    6.7625    4.0063 C   0  0  0  0  0  0  0  0  0  0  0  0
   -1.1005    2.9256    2.9975 C   0  0  0  0  0  0  0  0  0  0  0  0
   -0.0198    2.7785    3.8039 O   0  0  0  0  0  0  0  0  0  0  0  0
    0.6372    3.9601    4.2468 C   0  0  0  0  0  0  0  0  0  0  0  0
    1.1558    4.7996    3.0855 C   0  0  0  0  0  0  0  0  0  0  0  0
   -1.2107    2.1990    1.8374 C   0  0  0  0  0  0  0  0  0  0  0  0
   -2.7013    2.5116    1.0278 S   0  0  0  0  0  0  0  0  0  0  0  0
   -0.2643    1.2278    1.3182 C   0  0  0  0  0  0  0  0  0  0  0  0
    0.1396    0.1335    2.0960 C   0  0  0  0  0  0  0  0  0  0  0  0
   -0.2799   -0.2219    3.4089 C   0  0  0  0  0  0  0  0  0  0  0  0
    0.2855   -1.3612    3.8662 C   0  0  0  0  0  0  0  0  0  0  0  0
    0.1026   -2.0051    5.1959 C   0  0  0  0  0  0  0  0  0  0  0  0
    1.3268   -1.7846    6.0867 C   0  0  0  0  0  0  0  0  0  0  0  0
    1.3755   -2.0781    2.7005 S   0  0  0  0  0  0  0  0  0  0  0  0
    1.0414   -0.8132    1.5567 C   0  0  0  0  0  0  0  0  0  0  0  0
    1.5654   -0.7128    0.2774 C   0  0  0  0  0  0  0  0  0  0  0  0
    1.1670    0.3830   -0.4964 C   0  0  0  0  0  0  0  0  0  0  0  0
    0.2563    1.3232    0.0341 C   0  0  0  0  0  0  0  0  0  0  0  0
   -0.0808    2.5872   -1.1145 S   0  0  0  0  0  0  0  0  0  0  0  0
    0.9661    1.8381   -2.3009 C   0  0  0  0  0  0  0  0  0  0  0  0
    1.1509    2.4876   -3.6279 C   0  0  0  0  0  0  0  0  0  0  0  0
    1.9597    3.7802   -3.5032 C   0  0  0  0  0  0  0  0  0  0  0  0
    1.5369    0.7063   -1.8356 C   0  0  0  0  0  0  0  0  0  0  0  0
    2.4686   -1.7368   -0.2760 C   0  0  0  0  0  0  0  0  0  0  0  0
    1.9896   -3.0496   -0.4387 C   0  0  0  0  0  0  0  0  0  0  0  0
    0.7169   -3.2576   -0.0377 O   0  0  0  0  0  0  0  0  0  0  0  0
    0.0633   -4.4691   -0.3578 C   0  0  0  0  0  0  0  0  0  0  0  0
    2.8574   -3.9719   -1.0101 C   0  0  0  0  0  0  0  0  0  0  0  0
    2.5132   -5.2759   -1.1024 F   0  0  0  0  0  0  0  0  0  0  0  0
    4.1397   -3.6269   -1.4417 C   0  0  0  0  0  0  0  0  0  0  0  0
    4.6355   -2.3258   -1.2260 C   0  0  0  0  0  0  0  0  0  0  0  0
    5.8978   -2.1122   -1.6626 O   0  0  0  0  0  0  0  0  0  0  0  0
    6.5554   -0.8924   -1.3827 C   0  0  0  0  0  0  0  0  0  0  0  0
    3.7643   -1.4055   -0.6477 C   0  0  0  0  0  0  0  0  0  0  0  0
    4.1587   -0.1284   -0.4168 F   0  0  0  0  0  0  0  0  0  0  0  0
    5.0051   -4.5975   -2.0804 C   0  0  0  0  0  0  0  0  0  0  0  0
    4.6214   -5.4367   -3.0674 C   0  0  0  0  0  0  0  0  0  0  0  0
    3.3288   -5.3272   -3.8232 C   0  0  0  0  0  0  0  0  0  0  0  0
    2.4528   -4.5042   -3.6713 O   0  0  0  0  0  0  0  0  0  0  0  0
    3.4057   -6.3686   -4.8469 C   0  0  0  0  0  0  0  0  0  0  0  0
    4.6589   -7.0577   -4.7502 C   0  0  0  0  0  0  0  0  0  0  0  0
    4.7915   -8.0384   -5.6844 C   0  0  0  0  0  0  0  0  0  0  0  0
    3.3900   -8.1275   -6.6864 S   0  0  0  0  0  0  0  0  0  0  0  0
    2.5977   -6.8182   -5.8458 C   0  0  0  0  0  0  0  0  0  0  0  0
    1.2500   -6.3409   -6.2266 C   0  0  0  0  0  0  0  0  0  0  0  0
    5.4298   -6.4970   -3.6631 C   0  0  0  0  0  0  0  0  0  0  0  0
    6.6659   -6.9338   -3.2726 C   0  0  0  0  0  0  0  0  0  0  0  0
    7.3121   -7.9919   -3.9467 C   0  0  0  0  0  0  0  0  0  0  0  0
    7.8488   -8.8481   -4.4900 N   0  0  0  0  0  0  0  0  0  0  0  0
    7.4246   -6.4194   -2.2024 C   0  0  0  0  0  0  0  0  0  0  0  0
    8.0957   -6.0541   -1.3454 N   0  0  0  0  0  0  0  0  0  0  0  0
   -4.5350    5.3738    2.3106 H   0  0  0  0  0  0  0  0  0  0  0  0
   -7.3328    0.4673   -0.4646 H   0  0  0  0  0  0  0  0  0  0  0  0
   -9.2319    1.0838   -1.9021 H   0  0  0  0  0  0  0  0  0  0  0  0
   -3.2253    5.5233    5.7592 H   0  0  0  0  0  0  0  0  0  0  0  0
   -4.2359    5.0077    4.3897 H   0  0  0  0  0  0  0  0  0  0  0  0
   -2.8714    6.6512    2.9314 H   0  0  0  0  0  0  0  0  0  0  0  0
   -3.8306    7.4326    4.1958 H   0  0  0  0  0  0  0  0  0  0  0  0
   -2.0899    7.2069    4.4088 H   0  0  0  0  0  0  0  0  0  0  0  0
    1.4676    3.5838    4.8485 H   0  0  0  0  0  0  0  0  0  0  0  0
   -0.0274    4.5519    4.8842 H   0  0  0  0  0  0  0  0  0  0  0  0
    1.7538    5.6231    3.4654 H   0  0  0  0  0  0  0  0  0  0  0  0
    0.3292    5.2057    2.5051 H   0  0  0  0  0  0  0  0  0  0  0  0
    1.7707    4.1880    2.4286 H   0  0  0  0  0  0  0  0  0  0  0  0
   -0.9834    0.3583    3.9767 H   0  0  0  0  0  0  0  0  0  0  0  0
   -0.0571   -3.0780    5.0648 H   0  0  0  0  0  0  0  0  0  0  0  0
   -0.7821   -1.5788    5.6722 H   0  0  0  0  0  0  0  0  0  0  0  0
    1.4948   -0.7209    6.2374 H   0  0  0  0  0  0  0  0  0  0  0  0
    1.1772   -2.2554    7.0550 H   0  0  0  0  0  0  0  0  0  0  0  0
    2.2123   -2.2137    5.6231 H   0  0  0  0  0  0  0  0  0  0  0  0
    0.1743    2.7169   -4.0614 H   0  0  0  0  0  0  0  0  0  0  0  0
    1.6668    1.7904   -4.2912 H   0  0  0  0  0  0  0  0  0  0  0  0
    1.4431    4.4856   -2.8563 H   0  0  0  0  0  0  0  0  0  0  0  0
    2.0932    4.2368   -4.4806 H   0  0  0  0  0  0  0  0  0  0  0  0
    2.9390    3.5735   -3.0776 H   0  0  0  0  0  0  0  0  0  0  0  0
    2.2018    0.0980   -2.4225 H   0  0  0  0  0  0  0  0  0  0  0  0
    0.4676   -5.3082    0.2133 H   0  0  0  0  0  0  0  0  0  0  0  0
   -0.9777   -4.3111   -0.0800 H   0  0  0  0  0  0  0  0  0  0  0  0
    0.1295   -4.6869   -1.4263 H   0  0  0  0  0  0  0  0  0  0  0  0
    6.0910   -0.0536   -1.9064 H   0  0  0  0  0  0  0  0  0  0  0  0
    6.5797   -0.6840   -0.3109 H   0  0  0  0  0  0  0  0  0  0  0  0
    7.5718   -1.0295   -1.7482 H   0  0  0  0  0  0  0  0  0  0  0  0
    6.0334   -4.5912   -1.7428 H   0  0  0  0  0  0  0  0  0  0  0  0
    5.6060   -8.7121   -5.8607 H   0  0  0  0  0  0  0  0  0  0  0  0
    1.2417   -5.9967   -7.2605 H   0  0  0  0  0  0  0  0  0  0  0  0
    0.9650   -5.5196   -5.5730 H   0  0  0  0  0  0  0  0  0  0  0  0
    0.5177   -7.1429   -6.1374 H   0  0  0  0  0  0  0  0  0  0  0  0
  1  2  2  0  0  0  0
  2  3  1  0  0  0  0
  3  4  2  0  0  0  0
  3  5  1  0  0  0  0
  5  6  2  0  0  0  0
  6  7  1  0  0  0  0
  7  8  2  0  0  0  0
  8  9  1  0  0  0  0
  9 10  1  0  0  0  0
  9 11  2  0  0  0  0
 11 12  1  0  0  0  0
  6 13  1  0  0  0  0
 13 14  2  0  0  0  0
 14 15  1  0  0  0  0
 15 16  3  0  0  0  0
 14 17  1  0  0  0  0
 17 18  3  0  0  0  0
  1 19  1  0  0  0  0
 19 20  2  0  0  0  0
 20 21  1  0  0  0  0
 21 22  1  0  0  0  0
 22 23  1  0  0  0  0
 20 24  1  0  0  0  0
 24 25  1  0  0  0  0
 25 26  1  0  0  0  0
 26 27  1  0  0  0  0
 24 28  2  0  0  0  0
 28 29  1  0  0  0  0
 28 30  1  0  0  0  0
 30 31  2  0  0  0  0
 31 32  1  0  0  0  0
 32 33  2  0  0  0  0
 33 34  1  0  0  0  0
 34 35  1  0  0  0  0
 33 36  1  0  0  0  0
 36 37  1  0  0  0  0
 37 38  2  0  0  0  0
 38 39  1  0  0  0  0
 39 40  2  0  0  0  0
 40 41  1  0  0  0  0
 41 42  1  0  0  0  0
 42 43  1  0  0  0  0
 43 44  1  0  0  0  0
 42 45  2  0  0  0  0
 38 46  1  0  0  0  0
 46 47  2  0  0  0  0
 47 48  1  0  0  0  0
 48 49  1  0  0  0  0
 47 50  1  0  0  0  0
 50 51  1  0  0  0  0
 50 52  2  0  0  0  0
 52 53  1  0  0  0  0
 53 54  1  0  0  0  0
 54 55  1  0  0  0  0
 53 56  2  0  0  0  0
 56 57  1  0  0  0  0
 52 58  1  0  0  0  0
 58 59  2  0  0  0  0
 59 60  1  0  0  0  0
 60 61  2  0  0  0  0
 60 62  1  0  0  0  0
 62 63  1  0  0  0  0
 63 64  2  0  0  0  0
 64 65  1  0  0  0  0
 65 66  1  0  0  0  0
 66 67  1  0  0  0  0
 63 68  1  0  0  0  0
 68 69  2  0  0  0  0
 69 70  1  0  0  0  0
 70 71  3  0  0  0  0
 69 72  1  0  0  0  0
 72 73  3  0  0  0  0
 13  2  1  0  0  0  0
 29 19  1  0  0  0  0
 40 30  1  0  0  0  0
 56 46  1  0  0  0  0
 68 59  1  0  0  0  0
 11  5  1  0  0  0  0
 37 31  1  0  0  0  0
 45 39  1  0  0  0  0
 66 62  2  0  0  0  0
  1 74  1  0  0  0  0
  7 75  1  0  0  0  0
  8 76  1  0  0  0  0
 22 77  1  0  0  0  0
 22 78  1  0  0  0  0
 23 79  1  0  0  0  0
 23 80  1  0  0  0  0
 23 81  1  0  0  0  0
 26 82  1  0  0  0  0
 26 83  1  0  0  0  0
 27 84  1  0  0  0  0
 27 85  1  0  0  0  0
 27 86  1  0  0  0  0
 32 87  1  0  0  0  0
 34 88  1  0  0  0  0
 34 89  1  0  0  0  0
 35 90  1  0  0  0  0
 35 91  1  0  0  0  0
 35 92  1  0  0  0  0
 43 93  1  0  0  0  0
 43 94  1  0  0  0  0
 44 95  1  0  0  0  0
 44 96  1  0  0  0  0
 44 97  1  0  0  0  0
 45 98  1  0  0  0  0
 49 99  1  0  0  0  0
 49100  1  0  0  0  0
 49101  1  0  0  0  0
 55102  1  0  0  0  0
 55103  1  0  0  0  0
 55104  1  0  0  0  0
 58105  1  0  0  0  0
 64106  1  0  0  0  0
 67107  1  0  0  0  0
 67108  1  0  0  0  0
 67109  1  0  0  0  0
M  END
