
  xtb     02132204363D
 energy: -420.053973363703 gnorm: 0.000769314066 xtb: 6.4.1 (unknown)
248269  0     0  0            999 V2000
   -7.7658   -2.0885   -4.7044 C   0  0  0  0  0  0  0  0  0  0  0  0
   -9.0412   -1.5769   -4.5554 C   0  0  0  0  0  0  0  0  0  0  0  0
   -9.6797   -1.2195   -3.2921 C   0  0  0  0  0  0  0  0  0  0  0  0
   -9.1842   -1.2061   -2.1801 O   0  0  0  0  0  0  0  0  0  0  0  0
  -11.0846   -0.8920   -3.6289 C   0  0  0  0  0  0  0  0  0  0  0  0
  -11.2721   -1.0325   -5.0161 C   0  0  0  0  0  0  0  0  0  0  0  0
  -12.5135   -0.7811   -5.5753 C   0  0  0  0  0  0  0  0  0  0  0  0
  -13.5527   -0.3945   -4.7401 C   0  0  0  0  0  0  0  0  0  0  0  0
  -13.3619   -0.2561   -3.3750 C   0  0  0  0  0  0  0  0  0  0  0  0
  -14.8164    0.2773   -2.2921 Br  0  0  0  0  0  0  0  0  0  0  0  0
  -12.1148   -0.5035   -2.7902 C   0  0  0  0  0  0  0  0  0  0  0  0
  -11.8727   -0.3292   -1.1036 Cl  0  0  0  0  0  0  0  0  0  0  0  0
   -9.9982   -1.4288   -5.6192 C   0  0  0  0  0  0  0  0  0  0  0  0
   -9.7814   -1.5865   -6.9688 C   0  0  0  0  0  0  0  0  0  0  0  0
   -8.5308   -1.8128   -7.5734 C   0  0  0  0  0  0  0  0  0  0  0  0
   -7.5476   -1.9547   -8.1533 N   0  0  0  0  0  0  0  0  0  0  0  0
  -10.7897   -1.5027   -7.9483 C   0  0  0  0  0  0  0  0  0  0  0  0
  -11.5640   -1.4702   -8.7967 N   0  0  0  0  0  0  0  0  0  0  0  0
   -6.7487   -2.2727   -3.7778 C   0  0  0  0  0  0  0  0  0  0  0  0
   -5.4871   -2.8365   -4.1203 C   0  0  0  0  0  0  0  0  0  0  0  0
   -5.1561   -3.4018   -5.3205 N   0  0  0  0  0  0  0  0  0  0  0  0
   -3.8220   -3.2690   -5.7600 C   0  0  0  0  0  0  0  0  0  0  0  0
   -3.1955   -2.0262   -5.6927 C   0  0  0  0  0  0  0  0  0  0  0  0
   -1.8811   -1.8916   -6.0871 C   0  0  0  0  0  0  0  0  0  0  0  0
   -1.1656   -2.9841   -6.5663 C   0  0  0  0  0  0  0  0  0  0  0  0
    0.2663   -2.8201   -6.9684 C   0  0  0  0  0  0  0  0  0  0  0  0
   -1.8056   -4.2135   -6.6512 C   0  0  0  0  0  0  0  0  0  0  0  0
   -3.1198   -4.3629   -6.2518 C   0  0  0  0  0  0  0  0  0  0  0  0
   -6.0419   -4.2024   -6.0626 C   0  0  0  0  0  0  0  0  0  0  0  0
   -5.9789   -4.2044   -7.4539 C   0  0  0  0  0  0  0  0  0  0  0  0
   -6.8429   -4.9982   -8.1812 C   0  0  0  0  0  0  0  0  0  0  0  0
   -7.7915   -5.7953   -7.5512 C   0  0  0  0  0  0  0  0  0  0  0  0
   -8.7452   -6.6190   -8.3596 C   0  0  0  0  0  0  0  0  0  0  0  0
   -7.8350   -5.7973   -6.1615 C   0  0  0  0  0  0  0  0  0  0  0  0
   -6.9680   -5.0207   -5.4197 C   0  0  0  0  0  0  0  0  0  0  0  0
   -4.5815   -2.7076   -3.0579 C   0  0  0  0  0  0  0  0  0  0  0  0
   -2.9165   -3.1280   -2.8285 S   0  0  0  0  0  0  0  0  0  0  0  0
   -2.9464   -2.4615   -1.2038 C   0  0  0  0  0  0  0  0  0  0  0  0
   -4.1970   -1.9758   -0.8570 C   0  0  0  0  0  0  0  0  0  0  0  0
   -4.5143   -1.3103    0.3455 N   0  0  0  0  0  0  0  0  0  0  0  0
   -4.3534    0.0916    0.3374 C   0  0  0  0  0  0  0  0  0  0  0  0
   -5.3491    0.9430    0.8154 C   0  0  0  0  0  0  0  0  0  0  0  0
   -5.1345    2.3038    0.8894 C   0  0  0  0  0  0  0  0  0  0  0  0
   -3.9379    2.8734    0.4684 C   0  0  0  0  0  0  0  0  0  0  0  0
   -3.6923    4.3425    0.6209 C   0  0  0  0  0  0  0  0  0  0  0  0
   -2.9845    2.0327   -0.0875 C   0  0  0  0  0  0  0  0  0  0  0  0
   -3.1856    0.6663   -0.1618 C   0  0  0  0  0  0  0  0  0  0  0  0
   -5.4097   -1.9271    1.2279 C   0  0  0  0  0  0  0  0  0  0  0  0
   -5.5771   -1.4194    2.5190 C   0  0  0  0  0  0  0  0  0  0  0  0
   -6.4660   -2.0045    3.3950 C   0  0  0  0  0  0  0  0  0  0  0  0
   -7.2085   -3.1234    3.0329 C   0  0  0  0  0  0  0  0  0  0  0  0
   -8.1883   -3.7296    3.9927 C   0  0  0  0  0  0  0  0  0  0  0  0
   -6.9913   -3.6619    1.7744 C   0  0  0  0  0  0  0  0  0  0  0  0
   -6.1020   -3.0862    0.8872 C   0  0  0  0  0  0  0  0  0  0  0  0
   -5.1171   -2.1181   -1.9185 C   0  0  0  0  0  0  0  0  0  0  0  0
   -6.7824   -1.6974   -2.1050 S   0  0  0  0  0  0  0  0  0  0  0  0
   -1.6846   -2.2851   -0.5623 C   0  0  0  0  0  0  0  0  0  0  0  0
   -1.3429   -2.1212    0.7776 C   0  0  0  0  0  0  0  0  0  0  0  0
   -2.0849   -2.5104    1.8724 N   0  0  0  0  0  0  0  0  0  0  0  0
   -1.9559   -1.7447    3.0525 C   0  0  0  0  0  0  0  0  0  0  0  0
   -2.1816   -0.3700    3.0121 C   0  0  0  0  0  0  0  0  0  0  0  0
   -2.1621    0.3709    4.1725 C   0  0  0  0  0  0  0  0  0  0  0  0
   -1.8939   -0.2391    5.3953 C   0  0  0  0  0  0  0  0  0  0  0  0
   -1.9722    0.7897    6.8260 S   0  0  0  0  0  0  0  0  0  0  0  0
   -1.3593   -0.2606    8.1728 C   0  0  0  0  0  0  0  0  0  0  0  0
   -1.6053   -1.5980    5.4315 C   0  0  0  0  0  0  0  0  0  0  0  0
   -1.6342   -2.3412    4.2677 C   0  0  0  0  0  0  0  0  0  0  0  0
   -2.8177   -3.7037    1.8954 C   0  0  0  0  0  0  0  0  0  0  0  0
   -3.7411   -3.9370    2.9132 C   0  0  0  0  0  0  0  0  0  0  0  0
   -4.4782   -5.1022    2.9599 C   0  0  0  0  0  0  0  0  0  0  0  0
   -4.3280   -6.0639    1.9723 C   0  0  0  0  0  0  0  0  0  0  0  0
   -5.2543   -7.5630    1.8960 S   0  0  0  0  0  0  0  0  0  0  0  0
   -6.4345   -7.4115    3.2666 C   0  0  0  0  0  0  0  0  0  0  0  0
   -3.3867   -5.8544    0.9683 C   0  0  0  0  0  0  0  0  0  0  0  0
   -2.6342   -4.7020    0.9365 C   0  0  0  0  0  0  0  0  0  0  0  0
   -0.0409   -1.5660    0.8890 C   0  0  0  0  0  0  0  0  0  0  0  0
    0.8900   -0.9333    2.2050 S   0  0  0  0  0  0  0  0  0  0  0  0
    2.1709   -0.4682    1.0902 C   0  0  0  0  0  0  0  0  0  0  0  0
    1.9325   -0.9113   -0.2118 C   0  0  0  0  0  0  0  0  0  0  0  0
    2.8388   -0.8437   -1.2586 N   0  0  0  0  0  0  0  0  0  0  0  0
    4.1444   -1.3234   -1.0740 C   0  0  0  0  0  0  0  0  0  0  0  0
    4.4130   -2.3189   -0.1335 C   0  0  0  0  0  0  0  0  0  0  0  0
    5.7055   -2.7397    0.0842 C   0  0  0  0  0  0  0  0  0  0  0  0
    6.7637   -2.1867   -0.6351 C   0  0  0  0  0  0  0  0  0  0  0  0
    8.3768   -2.7912   -0.2643 S   0  0  0  0  0  0  0  0  0  0  0  0
    9.4787   -1.6277   -1.1187 C   0  0  0  0  0  0  0  0  0  0  0  0
    6.4982   -1.2164   -1.5931 C   0  0  0  0  0  0  0  0  0  0  0  0
    5.2047   -0.7878   -1.8048 C   0  0  0  0  0  0  0  0  0  0  0  0
    2.3829   -0.4650   -2.5253 C   0  0  0  0  0  0  0  0  0  0  0  0
    2.9031   -1.0417   -3.6817 C   0  0  0  0  0  0  0  0  0  0  0  0
    2.4851   -0.6225   -4.9270 C   0  0  0  0  0  0  0  0  0  0  0  0
    1.5166    0.3656   -5.0409 C   0  0  0  0  0  0  0  0  0  0  0  0
    0.9441    0.9751   -6.5980 S   0  0  0  0  0  0  0  0  0  0  0  0
    2.3479    0.6272   -7.6991 C   0  0  0  0  0  0  0  0  0  0  0  0
    0.9549    0.9098   -3.8893 C   0  0  0  0  0  0  0  0  0  0  0  0
    1.3917    0.5102   -2.6453 C   0  0  0  0  0  0  0  0  0  0  0  0
    0.6363   -1.4570   -0.3168 C   0  0  0  0  0  0  0  0  0  0  0  0
   -0.3237   -1.9879   -1.6488 S   0  0  0  0  0  0  0  0  0  0  0  0
    3.1684    0.4350    1.5170 C   0  0  0  0  0  0  0  0  0  0  0  0
    3.2346    1.0452    2.7659 C   0  0  0  0  0  0  0  0  0  0  0  0
    2.3410    0.7547    3.8133 N   0  0  0  0  0  0  0  0  0  0  0  0
    1.3325    1.7160    4.0140 C   0  0  0  0  0  0  0  0  0  0  0  0
    0.6742    2.2523    2.9052 C   0  0  0  0  0  0  0  0  0  0  0  0
   -0.3497    3.1567    3.0669 C   0  0  0  0  0  0  0  0  0  0  0  0
   -0.7326    3.5667    4.3409 C   0  0  0  0  0  0  0  0  0  0  0  0
   -2.1004    4.6818    4.4386 S   0  0  0  0  0  0  0  0  0  0  0  0
   -2.5396    4.6624    6.1981 C   0  0  0  0  0  0  0  0  0  0  0  0
   -0.0382    3.0908    5.4435 C   0  0  0  0  0  0  0  0  0  0  0  0
    0.9817    2.1731    5.2793 C   0  0  0  0  0  0  0  0  0  0  0  0
    2.7766   -0.0901    4.8442 C   0  0  0  0  0  0  0  0  0  0  0  0
    4.1245   -0.3791    5.0348 C   0  0  0  0  0  0  0  0  0  0  0  0
    4.5361   -1.1797    6.0832 C   0  0  0  0  0  0  0  0  0  0  0  0
    3.6040   -1.7173    6.9571 C   0  0  0  0  0  0  0  0  0  0  0  0
    4.0290   -2.6943    8.3637 S   0  0  0  0  0  0  0  0  0  0  0  0
    5.8044   -2.3828    8.5717 C   0  0  0  0  0  0  0  0  0  0  0  0
    2.2478   -1.4980    6.7205 C   0  0  0  0  0  0  0  0  0  0  0  0
    1.8373   -0.7000    5.6773 C   0  0  0  0  0  0  0  0  0  0  0  0
    4.2540    2.0039    2.8180 C   0  0  0  0  0  0  0  0  0  0  0  0
    4.9333    2.9536    4.0871 S   0  0  0  0  0  0  0  0  0  0  0  0
    6.2441    3.4888    3.0186 C   0  0  0  0  0  0  0  0  0  0  0  0
    6.0831    2.9951    1.7087 C   0  0  0  0  0  0  0  0  0  0  0  0
    6.9134    3.2336    0.6483 N   0  0  0  0  0  0  0  0  0  0  0  0
    8.2975    3.4567    0.8024 C   0  0  0  0  0  0  0  0  0  0  0  0
    9.0466    2.6889    1.6881 C   0  0  0  0  0  0  0  0  0  0  0  0
   10.4002    2.9172    1.8343 C   0  0  0  0  0  0  0  0  0  0  0  0
   11.0269    3.9066    1.0852 C   0  0  0  0  0  0  0  0  0  0  0  0
   12.7457    4.2784    1.1850 S   0  0  0  0  0  0  0  0  0  0  0  0
   13.3030    3.3617    2.6489 C   0  0  0  0  0  0  0  0  0  0  0  0
   10.2804    4.6525    0.1740 C   0  0  0  0  0  0  0  0  0  0  0  0
    8.9284    4.4315    0.0324 C   0  0  0  0  0  0  0  0  0  0  0  0
    6.3990    3.0876   -0.6523 C   0  0  0  0  0  0  0  0  0  0  0  0
    5.1490    3.6132   -0.9720 C   0  0  0  0  0  0  0  0  0  0  0  0
    4.6014    3.4244   -2.2249 C   0  0  0  0  0  0  0  0  0  0  0  0
    5.3078    2.7214   -3.1913 C   0  0  0  0  0  0  0  0  0  0  0  0
    4.6741    2.3670   -4.7987 S   0  0  0  0  0  0  0  0  0  0  0  0
    3.2226    3.4470   -4.9364 C   0  0  0  0  0  0  0  0  0  0  0  0
    6.5814    2.2383   -2.8914 C   0  0  0  0  0  0  0  0  0  0  0  0
    7.1219    2.4159   -1.6374 C   0  0  0  0  0  0  0  0  0  0  0  0
    4.9621    2.1468    1.6309 C   0  0  0  0  0  0  0  0  0  0  0  0
    4.3494    1.0901    0.4057 S   0  0  0  0  0  0  0  0  0  0  0  0
    7.2437    4.3357    3.5061 C   0  0  0  0  0  0  0  0  0  0  0  0
    7.5944    4.5221    4.8232 C   0  0  0  0  0  0  0  0  0  0  0  0
    8.2833    5.7584    5.2426 C   0  0  0  0  0  0  0  0  0  0  0  0
    8.7756    6.5999    4.5252 O   0  0  0  0  0  0  0  0  0  0  0  0
    8.2085    5.7543    6.7270 C   0  0  0  0  0  0  0  0  0  0  0  0
    7.6257    4.5476    7.1590 C   0  0  0  0  0  0  0  0  0  0  0  0
    7.4198    4.3114    8.5067 C   0  0  0  0  0  0  0  0  0  0  0  0
    7.7999    5.2895    9.4149 C   0  0  0  0  0  0  0  0  0  0  0  0
    8.3848    6.4715    8.9894 C   0  0  0  0  0  0  0  0  0  0  0  0
    8.8931    7.7588   10.2772 Br  0  0  0  0  0  0  0  0  0  0  0  0
    8.6025    6.7268    7.6298 C   0  0  0  0  0  0  0  0  0  0  0  0
    9.3282    8.1866    7.1049 Cl  0  0  0  0  0  0  0  0  0  0  0  0
    7.3665    3.7121    5.9877 C   0  0  0  0  0  0  0  0  0  0  0  0
    7.2171    2.3426    6.0204 C   0  0  0  0  0  0  0  0  0  0  0  0
    7.0263    1.5759    7.1815 C   0  0  0  0  0  0  0  0  0  0  0  0
    6.8422    0.8800    8.0779 N   0  0  0  0  0  0  0  0  0  0  0  0
    7.3384    1.5360    4.8742 C   0  0  0  0  0  0  0  0  0  0  0  0
    7.5046    0.8429    3.9716 N   0  0  0  0  0  0  0  0  0  0  0  0
   -7.5083   -2.4046   -5.7071 H   0  0  0  0  0  0  0  0  0  0  0  0
  -12.6915   -0.8789   -6.6330 H   0  0  0  0  0  0  0  0  0  0  0  0
  -14.5285   -0.1954   -5.1557 H   0  0  0  0  0  0  0  0  0  0  0  0
   -3.7477   -1.1707   -5.3319 H   0  0  0  0  0  0  0  0  0  0  0  0
   -1.4018   -0.9255   -6.0288 H   0  0  0  0  0  0  0  0  0  0  0  0
    0.8743   -2.6170   -6.0865 H   0  0  0  0  0  0  0  0  0  0  0  0
    0.3682   -1.9775   -7.6500 H   0  0  0  0  0  0  0  0  0  0  0  0
    0.6441   -3.7162   -7.4541 H   0  0  0  0  0  0  0  0  0  0  0  0
   -1.2673   -5.0720   -7.0256 H   0  0  0  0  0  0  0  0  0  0  0  0
   -3.6039   -5.3264   -6.3100 H   0  0  0  0  0  0  0  0  0  0  0  0
   -5.2624   -3.5751   -7.9574 H   0  0  0  0  0  0  0  0  0  0  0  0
   -6.7923   -4.9828   -9.2593 H   0  0  0  0  0  0  0  0  0  0  0  0
   -8.2097   -7.2020   -9.1068 H   0  0  0  0  0  0  0  0  0  0  0  0
   -9.4451   -5.9698   -8.8858 H   0  0  0  0  0  0  0  0  0  0  0  0
   -9.3127   -7.2957   -7.7260 H   0  0  0  0  0  0  0  0  0  0  0  0
   -8.5518   -6.4231   -5.6497 H   0  0  0  0  0  0  0  0  0  0  0  0
   -7.0072   -5.0411   -4.3403 H   0  0  0  0  0  0  0  0  0  0  0  0
   -6.2980    0.5334    1.1256 H   0  0  0  0  0  0  0  0  0  0  0  0
   -5.9164    2.9397    1.2786 H   0  0  0  0  0  0  0  0  0  0  0  0
   -4.5976    4.9091    0.4143 H   0  0  0  0  0  0  0  0  0  0  0  0
   -2.9053    4.6795   -0.0499 H   0  0  0  0  0  0  0  0  0  0  0  0
   -3.3869    4.5647    1.6449 H   0  0  0  0  0  0  0  0  0  0  0  0
   -2.0593    2.4467   -0.4641 H   0  0  0  0  0  0  0  0  0  0  0  0
   -2.4225    0.0476   -0.6067 H   0  0  0  0  0  0  0  0  0  0  0  0
   -4.9983   -0.5651    2.8375 H   0  0  0  0  0  0  0  0  0  0  0  0
   -6.5847   -1.5844    4.3841 H   0  0  0  0  0  0  0  0  0  0  0  0
   -7.6730   -4.1369    4.8636 H   0  0  0  0  0  0  0  0  0  0  0  0
   -8.8880   -2.9750    4.3487 H   0  0  0  0  0  0  0  0  0  0  0  0
   -8.7558   -4.5279    3.5196 H   0  0  0  0  0  0  0  0  0  0  0  0
   -7.5330   -4.5449    1.4653 H   0  0  0  0  0  0  0  0  0  0  0  0
   -5.9504   -3.5572   -0.0704 H   0  0  0  0  0  0  0  0  0  0  0  0
   -2.3963    0.1122    2.0715 H   0  0  0  0  0  0  0  0  0  0  0  0
   -2.3719    1.4278    4.1401 H   0  0  0  0  0  0  0  0  0  0  0  0
   -1.3557    0.3707    9.0561 H   0  0  0  0  0  0  0  0  0  0  0  0
   -2.0280   -1.1022    8.3276 H   0  0  0  0  0  0  0  0  0  0  0  0
   -0.3482   -0.5878    7.9503 H   0  0  0  0  0  0  0  0  0  0  0  0
   -1.3617   -2.0931    6.3577 H   0  0  0  0  0  0  0  0  0  0  0  0
   -1.4174   -3.3984    4.3044 H   0  0  0  0  0  0  0  0  0  0  0  0
   -3.9008   -3.1954    3.6783 H   0  0  0  0  0  0  0  0  0  0  0  0
   -5.1735   -5.2365    3.7713 H   0  0  0  0  0  0  0  0  0  0  0  0
   -7.0175   -6.5033    3.1497 H   0  0  0  0  0  0  0  0  0  0  0  0
   -5.9073   -7.4221    4.2162 H   0  0  0  0  0  0  0  0  0  0  0  0
   -7.0801   -8.2814    3.1951 H   0  0  0  0  0  0  0  0  0  0  0  0
   -3.2447   -6.6123    0.2131 H   0  0  0  0  0  0  0  0  0  0  0  0
   -1.8908   -4.5916    0.1633 H   0  0  0  0  0  0  0  0  0  0  0  0
    3.6052   -2.7588    0.4318 H   0  0  0  0  0  0  0  0  0  0  0  0
    5.9115   -3.5037    0.8177 H   0  0  0  0  0  0  0  0  0  0  0  0
   10.4840   -1.8995   -0.8121 H   0  0  0  0  0  0  0  0  0  0  0  0
    9.2563   -0.6136   -0.7998 H   0  0  0  0  0  0  0  0  0  0  0  0
    9.3830   -1.7360   -2.1952 H   0  0  0  0  0  0  0  0  0  0  0  0
    7.2896   -0.7743   -2.1753 H   0  0  0  0  0  0  0  0  0  0  0  0
    5.0160   -0.0097   -2.5278 H   0  0  0  0  0  0  0  0  0  0  0  0
    3.6399   -1.8263   -3.6044 H   0  0  0  0  0  0  0  0  0  0  0  0
    2.9182   -1.0766   -5.8033 H   0  0  0  0  0  0  0  0  0  0  0  0
    2.3680   -0.4239   -7.9723 H   0  0  0  0  0  0  0  0  0  0  0  0
    3.2709    0.9204   -7.2072 H   0  0  0  0  0  0  0  0  0  0  0  0
    2.1863    1.2311   -8.5867 H   0  0  0  0  0  0  0  0  0  0  0  0
    0.1843    1.6606   -3.9825 H   0  0  0  0  0  0  0  0  0  0  0  0
    0.9787    0.9634   -1.7560 H   0  0  0  0  0  0  0  0  0  0  0  0
    0.9571    1.9473    1.9097 H   0  0  0  0  0  0  0  0  0  0  0  0
   -0.8750    3.5445    2.2077 H   0  0  0  0  0  0  0  0  0  0  0  0
   -1.7848    5.1859    6.7780 H   0  0  0  0  0  0  0  0  0  0  0  0
   -3.4872    5.1871    6.2708 H   0  0  0  0  0  0  0  0  0  0  0  0
   -2.6533    3.6346    6.5308 H   0  0  0  0  0  0  0  0  0  0  0  0
   -0.2803    3.4233    6.4393 H   0  0  0  0  0  0  0  0  0  0  0  0
    1.5139    1.8143    6.1472 H   0  0  0  0  0  0  0  0  0  0  0  0
    4.8740    0.0201    4.3693 H   0  0  0  0  0  0  0  0  0  0  0  0
    5.5906   -1.3647    6.2074 H   0  0  0  0  0  0  0  0  0  0  0  0
    6.0616   -2.7939    9.5430 H   0  0  0  0  0  0  0  0  0  0  0  0
    5.9943   -1.3132    8.5562 H   0  0  0  0  0  0  0  0  0  0  0  0
    6.3671   -2.8952    7.7962 H   0  0  0  0  0  0  0  0  0  0  0  0
    1.5263   -1.9690    7.3718 H   0  0  0  0  0  0  0  0  0  0  0  0
    0.7879   -0.5369    5.4870 H   0  0  0  0  0  0  0  0  0  0  0  0
    8.5679    1.9121    2.2661 H   0  0  0  0  0  0  0  0  0  0  0  0
   10.9552    2.3052    2.5264 H   0  0  0  0  0  0  0  0  0  0  0  0
   13.2668    2.2922    2.4622 H   0  0  0  0  0  0  0  0  0  0  0  0
   14.3309    3.6701    2.8129 H   0  0  0  0  0  0  0  0  0  0  0  0
   12.6935    3.6358    3.5048 H   0  0  0  0  0  0  0  0  0  0  0  0
   10.7738    5.4129   -0.4108 H   0  0  0  0  0  0  0  0  0  0  0  0
    8.3502    5.0181   -0.6659 H   0  0  0  0  0  0  0  0  0  0  0  0
    4.5974    4.1691   -0.2282 H   0  0  0  0  0  0  0  0  0  0  0  0
    3.6235    3.8269   -2.4315 H   0  0  0  0  0  0  0  0  0  0  0  0
    3.5148    4.4739   -4.7389 H   0  0  0  0  0  0  0  0  0  0  0  0
    2.8754    3.3532   -5.9605 H   0  0  0  0  0  0  0  0  0  0  0  0
    2.4442    3.1116   -4.2572 H   0  0  0  0  0  0  0  0  0  0  0  0
    7.1336    1.7110   -3.6543 H   0  0  0  0  0  0  0  0  0  0  0  0
    8.1034    2.0296   -1.4075 H   0  0  0  0  0  0  0  0  0  0  0  0
    7.7505    4.9747    2.7911 H   0  0  0  0  0  0  0  0  0  0  0  0
    6.9645    3.3997    8.8578 H   0  0  0  0  0  0  0  0  0  0  0  0
    7.6426    5.1335   10.4710 H   0  0  0  0  0  0  0  0  0  0  0  0
  1  2  2  0  0  0  0
  2  3  1  0  0  0  0
  3  4  2  0  0  0  0
  3  5  1  0  0  0  0
  5  6  2  0  0  0  0
  6  7  1  0  0  0  0
  7  8  2  0  0  0  0
  8  9  1  0  0  0  0
  9 10  1  0  0  0  0
  9 11  2  0  0  0  0
 11 12  1  0  0  0  0
  6 13  1  0  0  0  0
 13 14  2  0  0  0  0
 14 15  1  0  0  0  0
 15 16  3  0  0  0  0
 14 17  1  0  0  0  0
 17 18  3  0  0  0  0
  1 19  1  0  0  0  0
 19 20  2  0  0  0  0
 20 21  1  0  0  0  0
 21 22  1  0  0  0  0
 22 23  2  0  0  0  0
 23 24  1  0  0  0  0
 24 25  2  0  0  0  0
 25 26  1  0  0  0  0
 25 27  1  0  0  0  0
 27 28  2  0  0  0  0
 21 29  1  0  0  0  0
 29 30  2  0  0  0  0
 30 31  1  0  0  0  0
 31 32  2  0  0  0  0
 32 33  1  0  0  0  0
 32 34  1  0  0  0  0
 34 35  2  0  0  0  0
 20 36  1  0  0  0  0
 36 37  1  0  0  0  0
 37 38  1  0  0  0  0
 38 39  2  0  0  0  0
 39 40  1  0  0  0  0
 40 41  1  0  0  0  0
 41 42  2  0  0  0  0
 42 43  1  0  0  0  0
 43 44  2  0  0  0  0
 44 45  1  0  0  0  0
 44 46  1  0  0  0  0
 46 47  2  0  0  0  0
 40 48  1  0  0  0  0
 48 49  2  0  0  0  0
 49 50  1  0  0  0  0
 50 51  2  0  0  0  0
 51 52  1  0  0  0  0
 51 53  1  0  0  0  0
 53 54  2  0  0  0  0
 39 55  1  0  0  0  0
 55 56  1  0  0  0  0
 38 57  1  0  0  0  0
 57 58  2  0  0  0  0
 58 59  1  0  0  0  0
 59 60  1  0  0  0  0
 60 61  2  0  0  0  0
 61 62  1  0  0  0  0
 62 63  2  0  0  0  0
 63 64  1  0  0  0  0
 64 65  1  0  0  0  0
 63 66  1  0  0  0  0
 66 67  2  0  0  0  0
 59 68  1  0  0  0  0
 68 69  2  0  0  0  0
 69 70  1  0  0  0  0
 70 71  2  0  0  0  0
 71 72  1  0  0  0  0
 72 73  1  0  0  0  0
 71 74  1  0  0  0  0
 74 75  2  0  0  0  0
 58 76  1  0  0  0  0
 76 77  1  0  0  0  0
 77 78  1  0  0  0  0
 78 79  2  0  0  0  0
 79 80  1  0  0  0  0
 80 81  1  0  0  0  0
 81 82  2  0  0  0  0
 82 83  1  0  0  0  0
 83 84  2  0  0  0  0
 84 85  1  0  0  0  0
 85 86  1  0  0  0  0
 84 87  1  0  0  0  0
 87 88  2  0  0  0  0
 80 89  1  0  0  0  0
 89 90  2  0  0  0  0
 90 91  1  0  0  0  0
 91 92  2  0  0  0  0
 92 93  1  0  0  0  0
 93 94  1  0  0  0  0
 92 95  1  0  0  0  0
 95 96  2  0  0  0  0
 79 97  1  0  0  0  0
 97 98  1  0  0  0  0
 78 99  1  0  0  0  0
 99100  2  0  0  0  0
100101  1  0  0  0  0
101102  1  0  0  0  0
102103  2  0  0  0  0
103104  1  0  0  0  0
104105  2  0  0  0  0
105106  1  0  0  0  0
106107  1  0  0  0  0
105108  1  0  0  0  0
108109  2  0  0  0  0
101110  1  0  0  0  0
110111  2  0  0  0  0
111112  1  0  0  0  0
112113  2  0  0  0  0
113114  1  0  0  0  0
114115  1  0  0  0  0
113116  1  0  0  0  0
116117  2  0  0  0  0
100118  1  0  0  0  0
118119  1  0  0  0  0
119120  1  0  0  0  0
120121  2  0  0  0  0
121122  1  0  0  0  0
122123  1  0  0  0  0
123124  2  0  0  0  0
124125  1  0  0  0  0
125126  2  0  0  0  0
126127  1  0  0  0  0
127128  1  0  0  0  0
126129  1  0  0  0  0
129130  2  0  0  0  0
122131  1  0  0  0  0
131132  2  0  0  0  0
132133  1  0  0  0  0
133134  2  0  0  0  0
134135  1  0  0  0  0
135136  1  0  0  0  0
134137  1  0  0  0  0
137138  2  0  0  0  0
121139  1  0  0  0  0
139140  1  0  0  0  0
120141  1  0  0  0  0
141142  2  0  0  0  0
142143  1  0  0  0  0
143144  2  0  0  0  0
143145  1  0  0  0  0
145146  2  0  0  0  0
146147  1  0  0  0  0
147148  2  0  0  0  0
148149  1  0  0  0  0
149150  1  0  0  0  0
149151  2  0  0  0  0
151152  1  0  0  0  0
146153  1  0  0  0  0
153154  2  0  0  0  0
154155  1  0  0  0  0
155156  3  0  0  0  0
154157  1  0  0  0  0
157158  3  0  0  0  0
 13  2  1  0  0  0  0
 56 19  1  0  0  0  0
 98 57  1  0  0  0  0
140 99  1  0  0  0  0
153142  1  0  0  0  0
 11  5  1  0  0  0  0
 28 22  1  0  0  0  0
 35 29  1  0  0  0  0
 55 36  2  0  0  0  0
 67 60  1  0  0  0  0
 75 68  1  0  0  0  0
 97 76  2  0  0  0  0
109102  1  0  0  0  0
117110  1  0  0  0  0
139118  2  0  0  0  0
151145  1  0  0  0  0
 47 41  1  0  0  0  0
 54 48  1  0  0  0  0
 88 81  1  0  0  0  0
 96 89  1  0  0  0  0
130123  1  0  0  0  0
138131  1  0  0  0  0
  1159  1  0  0  0  0
  7160  1  0  0  0  0
  8161  1  0  0  0  0
 23162  1  0  0  0  0
 24163  1  0  0  0  0
 26164  1  0  0  0  0
 26165  1  0  0  0  0
 26166  1  0  0  0  0
 27167  1  0  0  0  0
 28168  1  0  0  0  0
 30169  1  0  0  0  0
 31170  1  0  0  0  0
 33171  1  0  0  0  0
 33172  1  0  0  0  0
 33173  1  0  0  0  0
 34174  1  0  0  0  0
 35175  1  0  0  0  0
 42176  1  0  0  0  0
 43177  1  0  0  0  0
 45178  1  0  0  0  0
 45179  1  0  0  0  0
 45180  1  0  0  0  0
 46181  1  0  0  0  0
 47182  1  0  0  0  0
 49183  1  0  0  0  0
 50184  1  0  0  0  0
 52185  1  0  0  0  0
 52186  1  0  0  0  0
 52187  1  0  0  0  0
 53188  1  0  0  0  0
 54189  1  0  0  0  0
 61190  1  0  0  0  0
 62191  1  0  0  0  0
 65192  1  0  0  0  0
 65193  1  0  0  0  0
 65194  1  0  0  0  0
 66195  1  0  0  0  0
 67196  1  0  0  0  0
 69197  1  0  0  0  0
 70198  1  0  0  0  0
 73199  1  0  0  0  0
 73200  1  0  0  0  0
 73201  1  0  0  0  0
 74202  1  0  0  0  0
 75203  1  0  0  0  0
 82204  1  0  0  0  0
 83205  1  0  0  0  0
 86206  1  0  0  0  0
 86207  1  0  0  0  0
 86208  1  0  0  0  0
 87209  1  0  0  0  0
 88210  1  0  0  0  0
 90211  1  0  0  0  0
 91212  1  0  0  0  0
 94213  1  0  0  0  0
 94214  1  0  0  0  0
 94215  1  0  0  0  0
 95216  1  0  0  0  0
 96217  1  0  0  0  0
103218  1  0  0  0  0
104219  1  0  0  0  0
107220  1  0  0  0  0
107221  1  0  0  0  0
107222  1  0  0  0  0
108223  1  0  0  0  0
109224  1  0  0  0  0
111225  1  0  0  0  0
112226  1  0  0  0  0
115227  1  0  0  0  0
115228  1  0  0  0  0
115229  1  0  0  0  0
116230  1  0  0  0  0
117231  1  0  0  0  0
124232  1  0  0  0  0
125233  1  0  0  0  0
128234  1  0  0  0  0
128235  1  0  0  0  0
128236  1  0  0  0  0
129237  1  0  0  0  0
130238  1  0  0  0  0
132239  1  0  0  0  0
133240  1  0  0  0  0
136241  1  0  0  0  0
136242  1  0  0  0  0
136243  1  0  0  0  0
137244  1  0  0  0  0
138245  1  0  0  0  0
141246  1  0  0  0  0
147247  1  0  0  0  0
148248  1  0  0  0  0
M  END
