
  xtb     02042203203D
 energy: -333.167095368134 gnorm: 0.000937828162 xtb: 6.4.1 (unknown)
178193  0     0  0            999 V2000
    3.8742    3.2921   -5.9099 C   0  0  0  0  0  0  0  0  0  0  0  0
    4.5235    4.4795   -5.7740 C   0  0  0  0  0  0  0  0  0  0  0  0
    4.1300    5.4974   -4.7799 C   0  0  0  0  0  0  0  0  0  0  0  0
    3.3419    5.3718   -3.8697 O   0  0  0  0  0  0  0  0  0  0  0  0
    4.8821    6.7168   -5.1552 C   0  0  0  0  0  0  0  0  0  0  0  0
    5.7040    6.4424   -6.2650 C   0  0  0  0  0  0  0  0  0  0  0  0
    6.5016    7.4422   -6.8008 C   0  0  0  0  0  0  0  0  0  0  0  0
    6.4620    8.7029   -6.2258 C   0  0  0  0  0  0  0  0  0  0  0  0
    5.6447    8.9715   -5.1373 C   0  0  0  0  0  0  0  0  0  0  0  0
    5.6272   10.7149   -4.4065 Br  0  0  0  0  0  0  0  0  0  0  0  0
    4.8353    7.9761   -4.5805 C   0  0  0  0  0  0  0  0  0  0  0  0
    3.8187    8.3032   -3.2411 Cl  0  0  0  0  0  0  0  0  0  0  0  0
    5.5285    5.0452   -6.6504 C   0  0  0  0  0  0  0  0  0  0  0  0
    6.2335    4.3837   -7.6205 C   0  0  0  0  0  0  0  0  0  0  0  0
    7.2046    4.9831   -8.4487 C   0  0  0  0  0  0  0  0  0  0  0  0
    8.0070    5.4149   -9.1465 N   0  0  0  0  0  0  0  0  0  0  0  0
    6.1142    3.0021   -7.8780 C   0  0  0  0  0  0  0  0  0  0  0  0
    6.0889    1.8759   -8.1011 N   0  0  0  0  0  0  0  0  0  0  0  0
    2.9347    2.7550   -4.9238 C   0  0  0  0  0  0  0  0  0  0  0  0
    3.2957    2.4190   -3.6179 C   0  0  0  0  0  0  0  0  0  0  0  0
    4.9287    2.6390   -2.9871 S   0  0  0  0  0  0  0  0  0  0  0  0
    5.9813    1.7626   -4.2218 C   0  0  0  0  0  0  0  0  0  0  0  0
    7.2689    2.5244   -4.4607 C   0  0  0  0  0  0  0  0  0  0  0  0
    2.3219    1.9297   -2.7364 C   0  0  0  0  0  0  0  0  0  0  0  0
    2.8183    1.7986   -1.0485 S   0  0  0  0  0  0  0  0  0  0  0  0
    2.4668    0.0501   -0.5802 C   0  0  0  0  0  0  0  0  0  0  0  0
    3.5642   -0.4185    0.3547 C   0  0  0  0  0  0  0  0  0  0  0  0
    1.0199    1.6388   -3.1743 C   0  0  0  0  0  0  0  0  0  0  0  0
    0.6595    1.9453   -4.4921 C   0  0  0  0  0  0  0  0  0  0  0  0
    1.6090    2.5579   -5.3287 C   0  0  0  0  0  0  0  0  0  0  0  0
    1.3005    3.1218   -6.6414 C   0  0  0  0  0  0  0  0  0  0  0  0
    2.1766    3.6986   -7.2838 O   0  0  0  0  0  0  0  0  0  0  0  0
   -0.0744    2.9862   -7.0714 C   0  0  0  0  0  0  0  0  0  0  0  0
   -1.0361    2.3075   -6.2658 C   0  0  0  0  0  0  0  0  0  0  0  0
   -0.7235    1.7100   -4.9621 C   0  0  0  0  0  0  0  0  0  0  0  0
   -1.5485    1.0740   -4.3330 O   0  0  0  0  0  0  0  0  0  0  0  0
   -2.2716    2.3049   -6.8471 C   0  0  0  0  0  0  0  0  0  0  0  0
   -2.2824    3.1246   -8.3525 S   0  0  0  0  0  0  0  0  0  0  0  0
   -0.6165    3.4756   -8.2298 C   0  0  0  0  0  0  0  0  0  0  0  0
    0.0725    1.0611   -2.2206 C   0  0  0  0  0  0  0  0  0  0  0  0
   -0.4697    1.7172   -1.1388 C   0  0  0  0  0  0  0  0  0  0  0  0
   -0.3233    3.0778   -0.9159 N   0  0  0  0  0  0  0  0  0  0  0  0
   -0.4306    3.9224   -2.0389 C   0  0  0  0  0  0  0  0  0  0  0  0
    0.5464    4.8684   -2.3232 C   0  0  0  0  0  0  0  0  0  0  0  0
    0.4712    5.6193   -3.4800 C   0  0  0  0  0  0  0  0  0  0  0  0
   -0.5747    5.4251   -4.3704 C   0  0  0  0  0  0  0  0  0  0  0  0
   -0.7112    6.2716   -5.9177 S   0  0  0  0  0  0  0  0  0  0  0  0
    0.9568    6.9316   -6.1877 C   0  0  0  0  0  0  0  0  0  0  0  0
   -1.5891    4.5247   -4.0559 C   0  0  0  0  0  0  0  0  0  0  0  0
   -1.5186    3.7807   -2.8987 C   0  0  0  0  0  0  0  0  0  0  0  0
   -0.2033    3.5746    0.3776 C   0  0  0  0  0  0  0  0  0  0  0  0
    0.3771    2.8014    1.3863 C   0  0  0  0  0  0  0  0  0  0  0  0
    0.4254    3.2647    2.6803 C   0  0  0  0  0  0  0  0  0  0  0  0
   -0.0887    4.5173    3.0029 C   0  0  0  0  0  0  0  0  0  0  0  0
   -0.0209    4.9750    4.7107 S   0  0  0  0  0  0  0  0  0  0  0  0
   -0.6800    6.6644    4.7427 C   0  0  0  0  0  0  0  0  0  0  0  0
   -0.6214    5.3125    1.9983 C   0  0  0  0  0  0  0  0  0  0  0  0
   -0.6789    4.8439    0.7002 C   0  0  0  0  0  0  0  0  0  0  0  0
   -1.2071    0.8221   -0.3224 C   0  0  0  0  0  0  0  0  0  0  0  0
   -2.0566    0.9761    1.1702 S   0  0  0  0  0  0  0  0  0  0  0  0
   -2.3462   -0.7487    1.1982 C   0  0  0  0  0  0  0  0  0  0  0  0
   -1.8601   -1.3961    0.0878 C   0  0  0  0  0  0  0  0  0  0  0  0
   -1.9564   -2.7681   -0.1170 N   0  0  0  0  0  0  0  0  0  0  0  0
   -3.2359   -3.3589   -0.0129 C   0  0  0  0  0  0  0  0  0  0  0  0
   -3.4708   -4.3770    0.9060 C   0  0  0  0  0  0  0  0  0  0  0  0
   -4.7258   -4.9337    1.0132 C   0  0  0  0  0  0  0  0  0  0  0  0
   -5.7595   -4.4958    0.1885 C   0  0  0  0  0  0  0  0  0  0  0  0
   -7.3281   -5.2785    0.4182 S   0  0  0  0  0  0  0  0  0  0  0  0
   -8.2898   -4.7601   -1.0342 C   0  0  0  0  0  0  0  0  0  0  0  0
   -5.5261   -3.4876   -0.7361 C   0  0  0  0  0  0  0  0  0  0  0  0
   -4.2702   -2.9173   -0.8292 C   0  0  0  0  0  0  0  0  0  0  0  0
   -0.8571   -3.5138   -0.5149 C   0  0  0  0  0  0  0  0  0  0  0  0
    0.4427   -3.0638   -0.2641 C   0  0  0  0  0  0  0  0  0  0  0  0
    1.5285   -3.8028   -0.6755 C   0  0  0  0  0  0  0  0  0  0  0  0
    1.3543   -5.0184   -1.3317 C   0  0  0  0  0  0  0  0  0  0  0  0
    2.8279   -5.8690   -1.8120 S   0  0  0  0  0  0  0  0  0  0  0  0
    2.2230   -7.4139   -2.5451 C   0  0  0  0  0  0  0  0  0  0  0  0
    0.0674   -5.4816   -1.5660 C   0  0  0  0  0  0  0  0  0  0  0  0
   -1.0234   -4.7357   -1.1661 C   0  0  0  0  0  0  0  0  0  0  0  0
   -1.2120   -0.4811   -0.7860 C   0  0  0  0  0  0  0  0  0  0  0  0
   -0.3618   -0.6326   -2.2830 S   0  0  0  0  0  0  0  0  0  0  0  0
   -2.8050   -1.2966    2.4751 C   0  0  0  0  0  0  0  0  0  0  0  0
   -1.8191   -1.4402    3.4682 C   0  0  0  0  0  0  0  0  0  0  0  0
   -0.1406   -1.2545    2.9364 S   0  0  0  0  0  0  0  0  0  0  0  0
    0.6823   -2.6941    3.7126 C   0  0  0  0  0  0  0  0  0  0  0  0
    0.1507   -4.0001    3.1604 C   0  0  0  0  0  0  0  0  0  0  0  0
   -2.1874   -1.6903    4.7938 C   0  0  0  0  0  0  0  0  0  0  0  0
   -1.0983   -1.3925    6.1621 S   0  0  0  0  0  0  0  0  0  0  0  0
   -0.4177    0.2716    5.7916 C   0  0  0  0  0  0  0  0  0  0  0  0
   -1.4901    1.2898    5.4721 C   0  0  0  0  0  0  0  0  0  0  0  0
   -3.5036   -2.0986    5.0657 C   0  0  0  0  0  0  0  0  0  0  0  0
   -4.4468   -2.1166    4.0310 C   0  0  0  0  0  0  0  0  0  0  0  0
   -4.1322   -1.6084    2.7623 C   0  0  0  0  0  0  0  0  0  0  0  0
   -5.1849   -1.3524    1.7530 C   0  0  0  0  0  0  0  0  0  0  0  0
   -4.9759   -0.7340    0.7275 O   0  0  0  0  0  0  0  0  0  0  0  0
   -6.5038   -1.8765    2.1108 C   0  0  0  0  0  0  0  0  0  0  0  0
   -6.7669   -2.5650    3.3331 C   0  0  0  0  0  0  0  0  0  0  0  0
   -5.7495   -2.7142    4.3647 C   0  0  0  0  0  0  0  0  0  0  0  0
   -5.9278   -3.2718    5.4349 O   0  0  0  0  0  0  0  0  0  0  0  0
   -8.0631   -2.9915    3.4181 C   0  0  0  0  0  0  0  0  0  0  0  0
   -8.9733   -2.5585    2.0381 S   0  0  0  0  0  0  0  0  0  0  0  0
   -7.6168   -1.7964    1.3224 C   0  0  0  0  0  0  0  0  0  0  0  0
   -3.9305   -2.4185    6.4185 C   0  0  0  0  0  0  0  0  0  0  0  0
   -3.2605   -3.2029    7.2904 C   0  0  0  0  0  0  0  0  0  0  0  0
   -3.4970   -3.1167    8.7553 C   0  0  0  0  0  0  0  0  0  0  0  0
   -4.4364   -2.6114    9.3132 O   0  0  0  0  0  0  0  0  0  0  0  0
   -2.2709   -3.6941    9.3629 C   0  0  0  0  0  0  0  0  0  0  0  0
   -1.8786   -3.6969   10.6910 C   0  0  0  0  0  0  0  0  0  0  0  0
   -2.9203   -3.1484   11.9246 Cl  0  0  0  0  0  0  0  0  0  0  0  0
   -0.5899   -4.1555   11.0027 C   0  0  0  0  0  0  0  0  0  0  0  0
   -0.0758   -4.2057   12.6316 Cl  0  0  0  0  0  0  0  0  0  0  0  0
    0.2891   -4.5298    9.9857 C   0  0  0  0  0  0  0  0  0  0  0  0
    1.8884   -4.9860   10.3833 Cl  0  0  0  0  0  0  0  0  0  0  0  0
   -0.1134   -4.5248    8.6422 C   0  0  0  0  0  0  0  0  0  0  0  0
    1.0527   -4.8311    7.4256 Cl  0  0  0  0  0  0  0  0  0  0  0  0
   -1.4208   -4.1692    8.3417 C   0  0  0  0  0  0  0  0  0  0  0  0
   -2.1426   -4.1078    7.0771 C   0  0  0  0  0  0  0  0  0  0  0  0
   -1.9913   -4.9209    5.9917 C   0  0  0  0  0  0  0  0  0  0  0  0
   -1.0848   -5.9966    5.8673 C   0  0  0  0  0  0  0  0  0  0  0  0
   -0.4366   -6.9265    5.6904 N   0  0  0  0  0  0  0  0  0  0  0  0
   -2.8648   -4.8822    4.8833 C   0  0  0  0  0  0  0  0  0  0  0  0
   -3.5329   -4.9131    3.9510 N   0  0  0  0  0  0  0  0  0  0  0  0
    4.1362    2.6276   -6.7248 H   0  0  0  0  0  0  0  0  0  0  0  0
    7.1406    7.2641   -7.6497 H   0  0  0  0  0  0  0  0  0  0  0  0
    7.0726    9.4959   -6.6292 H   0  0  0  0  0  0  0  0  0  0  0  0
    5.4091    1.6465   -5.1380 H   0  0  0  0  0  0  0  0  0  0  0  0
    6.1863    0.7792   -3.7988 H   0  0  0  0  0  0  0  0  0  0  0  0
    7.0607    3.5345   -4.8065 H   0  0  0  0  0  0  0  0  0  0  0  0
    7.8641    2.0120   -5.2137 H   0  0  0  0  0  0  0  0  0  0  0  0
    7.8468    2.5917   -3.5423 H   0  0  0  0  0  0  0  0  0  0  0  0
    1.4976    0.0094   -0.0863 H   0  0  0  0  0  0  0  0  0  0  0  0
    2.4412   -0.5378   -1.4946 H   0  0  0  0  0  0  0  0  0  0  0  0
    4.5318   -0.3757   -0.1385 H   0  0  0  0  0  0  0  0  0  0  0  0
    3.6007    0.2109    1.2409 H   0  0  0  0  0  0  0  0  0  0  0  0
    3.3700   -1.4434    0.6630 H   0  0  0  0  0  0  0  0  0  0  0  0
   -3.1686    1.8680   -6.4548 H   0  0  0  0  0  0  0  0  0  0  0  0
   -0.1120    4.0250   -8.9997 H   0  0  0  0  0  0  0  0  0  0  0  0
    1.3816    4.9996   -1.6527 H   0  0  0  0  0  0  0  0  0  0  0  0
    1.2507    6.3326   -3.6823 H   0  0  0  0  0  0  0  0  0  0  0  0
    1.1652    7.7334   -5.4853 H   0  0  0  0  0  0  0  0  0  0  0  0
    0.9600    7.3205   -7.2012 H   0  0  0  0  0  0  0  0  0  0  0  0
    1.6825    6.1289   -6.0971 H   0  0  0  0  0  0  0  0  0  0  0  0
   -2.4291    4.4186   -4.7255 H   0  0  0  0  0  0  0  0  0  0  0  0
   -2.2950    3.0683   -2.6638 H   0  0  0  0  0  0  0  0  0  0  0  0
    0.7980    1.8366    1.1565 H   0  0  0  0  0  0  0  0  0  0  0  0
    0.8669    2.6594    3.4569 H   0  0  0  0  0  0  0  0  0  0  0  0
   -0.6197    6.9835    5.7786 H   0  0  0  0  0  0  0  0  0  0  0  0
   -1.7160    6.6650    4.4161 H   0  0  0  0  0  0  0  0  0  0  0  0
   -0.0678    7.3107    4.1207 H   0  0  0  0  0  0  0  0  0  0  0  0
   -1.0114    6.2950    2.2110 H   0  0  0  0  0  0  0  0  0  0  0  0
   -1.1132    5.4624   -0.0712 H   0  0  0  0  0  0  0  0  0  0  0  0
   -2.6698   -4.7268    1.5386 H   0  0  0  0  0  0  0  0  0  0  0  0
   -4.9157   -5.7051    1.7421 H   0  0  0  0  0  0  0  0  0  0  0  0
   -7.7361   -4.9904   -1.9393 H   0  0  0  0  0  0  0  0  0  0  0  0
   -8.5290   -3.7022   -0.9755 H   0  0  0  0  0  0  0  0  0  0  0  0
   -9.2045   -5.3434   -1.0009 H   0  0  0  0  0  0  0  0  0  0  0  0
   -6.3092   -3.1331   -1.3865 H   0  0  0  0  0  0  0  0  0  0  0  0
   -4.0893   -2.1237   -1.5377 H   0  0  0  0  0  0  0  0  0  0  0  0
    0.5959   -2.1380    0.2680 H   0  0  0  0  0  0  0  0  0  0  0  0
    2.5317   -3.4527   -0.4851 H   0  0  0  0  0  0  0  0  0  0  0  0
    3.1110   -7.9735   -2.8221 H   0  0  0  0  0  0  0  0  0  0  0  0
    1.6318   -7.1991   -3.4307 H   0  0  0  0  0  0  0  0  0  0  0  0
    1.6489   -7.9717   -1.8111 H   0  0  0  0  0  0  0  0  0  0  0  0
   -0.1052   -6.4193   -2.0689 H   0  0  0  0  0  0  0  0  0  0  0  0
   -2.0186   -5.1024   -1.3669 H   0  0  0  0  0  0  0  0  0  0  0  0
    1.7327   -2.5550    3.4585 H   0  0  0  0  0  0  0  0  0  0  0  0
    0.5648   -2.6311    4.7934 H   0  0  0  0  0  0  0  0  0  0  0  0
    0.6382   -4.8350    3.6601 H   0  0  0  0  0  0  0  0  0  0  0  0
   -0.9230   -4.0803    3.3254 H   0  0  0  0  0  0  0  0  0  0  0  0
    0.3409   -4.0739    2.0915 H   0  0  0  0  0  0  0  0  0  0  0  0
    0.3102    0.1884    4.9861 H   0  0  0  0  0  0  0  0  0  0  0  0
    0.0991    0.5169    6.7192 H   0  0  0  0  0  0  0  0  0  0  0  0
   -1.0388    2.2783    5.4151 H   0  0  0  0  0  0  0  0  0  0  0  0
   -1.9595    1.0776    4.5129 H   0  0  0  0  0  0  0  0  0  0  0  0
   -2.2558    1.3002    6.2451 H   0  0  0  0  0  0  0  0  0  0  0  0
   -8.5153   -3.5325    4.2256 H   0  0  0  0  0  0  0  0  0  0  0  0
   -7.6914   -1.3232    0.3632 H   0  0  0  0  0  0  0  0  0  0  0  0
   -4.7521   -1.8416    6.8281 H   0  0  0  0  0  0  0  0  0  0  0  0
  1  2  2  0  0  0  0
  2  3  1  0  0  0  0
  3  4  2  0  0  0  0
  3  5  1  0  0  0  0
  5  6  2  0  0  0  0
  6  7  1  0  0  0  0
  7  8  2  0  0  0  0
  8  9  1  0  0  0  0
  9 10  1  0  0  0  0
  9 11  2  0  0  0  0
 11 12  1  0  0  0  0
  6 13  1  0  0  0  0
 13 14  2  0  0  0  0
 14 15  1  0  0  0  0
 15 16  3  0  0  0  0
 14 17  1  0  0  0  0
 17 18  3  0  0  0  0
  1 19  1  0  0  0  0
 19 20  2  0  0  0  0
 20 21  1  0  0  0  0
 21 22  1  0  0  0  0
 22 23  1  0  0  0  0
 20 24  1  0  0  0  0
 24 25  1  0  0  0  0
 25 26  1  0  0  0  0
 26 27  1  0  0  0  0
 24 28  2  0  0  0  0
 28 29  1  0  0  0  0
 29 30  2  0  0  0  0
 30 31  1  0  0  0  0
 31 32  2  0  0  0  0
 31 33  1  0  0  0  0
 33 34  1  0  0  0  0
 34 35  1  0  0  0  0
 35 36  2  0  0  0  0
 34 37  2  0  0  0  0
 37 38  1  0  0  0  0
 38 39  1  0  0  0  0
 28 40  1  0  0  0  0
 40 41  2  0  0  0  0
 41 42  1  0  0  0  0
 42 43  1  0  0  0  0
 43 44  2  0  0  0  0
 44 45  1  0  0  0  0
 45 46  2  0  0  0  0
 46 47  1  0  0  0  0
 47 48  1  0  0  0  0
 46 49  1  0  0  0  0
 49 50  2  0  0  0  0
 42 51  1  0  0  0  0
 51 52  2  0  0  0  0
 52 53  1  0  0  0  0
 53 54  2  0  0  0  0
 54 55  1  0  0  0  0
 55 56  1  0  0  0  0
 54 57  1  0  0  0  0
 57 58  2  0  0  0  0
 41 59  1  0  0  0  0
 59 60  1  0  0  0  0
 60 61  1  0  0  0  0
 61 62  2  0  0  0  0
 62 63  1  0  0  0  0
 63 64  1  0  0  0  0
 64 65  2  0  0  0  0
 65 66  1  0  0  0  0
 66 67  2  0  0  0  0
 67 68  1  0  0  0  0
 68 69  1  0  0  0  0
 67 70  1  0  0  0  0
 70 71  2  0  0  0  0
 63 72  1  0  0  0  0
 72 73  2  0  0  0  0
 73 74  1  0  0  0  0
 74 75  2  0  0  0  0
 75 76  1  0  0  0  0
 76 77  1  0  0  0  0
 75 78  1  0  0  0  0
 78 79  2  0  0  0  0
 62 80  1  0  0  0  0
 80 81  1  0  0  0  0
 61 82  1  0  0  0  0
 82 83  2  0  0  0  0
 83 84  1  0  0  0  0
 84 85  1  0  0  0  0
 85 86  1  0  0  0  0
 83 87  1  0  0  0  0
 87 88  1  0  0  0  0
 88 89  1  0  0  0  0
 89 90  1  0  0  0  0
 87 91  2  0  0  0  0
 91 92  1  0  0  0  0
 92 93  2  0  0  0  0
 93 94  1  0  0  0  0
 94 95  2  0  0  0  0
 94 96  1  0  0  0  0
 96 97  1  0  0  0  0
 97 98  1  0  0  0  0
 98 99  2  0  0  0  0
 97100  2  0  0  0  0
100101  1  0  0  0  0
101102  1  0  0  0  0
 91103  1  0  0  0  0
103104  2  0  0  0  0
104105  1  0  0  0  0
105106  2  0  0  0  0
105107  1  0  0  0  0
107108  2  0  0  0  0
108109  1  0  0  0  0
108110  1  0  0  0  0
110111  1  0  0  0  0
110112  2  0  0  0  0
112113  1  0  0  0  0
112114  1  0  0  0  0
114115  1  0  0  0  0
114116  2  0  0  0  0
116117  1  0  0  0  0
117118  2  0  0  0  0
118119  1  0  0  0  0
119120  3  0  0  0  0
118121  1  0  0  0  0
121122  3  0  0  0  0
 13  2  1  0  0  0  0
 30 19  1  0  0  0  0
 39 33  2  0  0  0  0
 81 40  1  0  0  0  0
 93 82  1  0  0  0  0
102 96  2  0  0  0  0
117104  1  0  0  0  0
 11  5  1  0  0  0  0
 35 29  1  0  0  0  0
 50 43  1  0  0  0  0
 58 51  1  0  0  0  0
 80 59  2  0  0  0  0
 98 92  1  0  0  0  0
116107  1  0  0  0  0
 71 64  1  0  0  0  0
 79 72  1  0  0  0  0
  1123  1  0  0  0  0
  7124  1  0  0  0  0
  8125  1  0  0  0  0
 22126  1  0  0  0  0
 22127  1  0  0  0  0
 23128  1  0  0  0  0
 23129  1  0  0  0  0
 23130  1  0  0  0  0
 26131  1  0  0  0  0
 26132  1  0  0  0  0
 27133  1  0  0  0  0
 27134  1  0  0  0  0
 27135  1  0  0  0  0
 37136  1  0  0  0  0
 39137  1  0  0  0  0
 44138  1  0  0  0  0
 45139  1  0  0  0  0
 48140  1  0  0  0  0
 48141  1  0  0  0  0
 48142  1  0  0  0  0
 49143  1  0  0  0  0
 50144  1  0  0  0  0
 52145  1  0  0  0  0
 53146  1  0  0  0  0
 56147  1  0  0  0  0
 56148  1  0  0  0  0
 56149  1  0  0  0  0
 57150  1  0  0  0  0
 58151  1  0  0  0  0
 65152  1  0  0  0  0
 66153  1  0  0  0  0
 69154  1  0  0  0  0
 69155  1  0  0  0  0
 69156  1  0  0  0  0
 70157  1  0  0  0  0
 71158  1  0  0  0  0
 73159  1  0  0  0  0
 74160  1  0  0  0  0
 77161  1  0  0  0  0
 77162  1  0  0  0  0
 77163  1  0  0  0  0
 78164  1  0  0  0  0
 79165  1  0  0  0  0
 85166  1  0  0  0  0
 85167  1  0  0  0  0
 86168  1  0  0  0  0
 86169  1  0  0  0  0
 86170  1  0  0  0  0
 89171  1  0  0  0  0
 89172  1  0  0  0  0
 90173  1  0  0  0  0
 90174  1  0  0  0  0
 90175  1  0  0  0  0
100176  1  0  0  0  0
102177  1  0  0  0  0
103178  1  0  0  0  0
M  END
