
  xtb     02042203493D
 energy: -326.574325922796 gnorm: 0.000559565439 xtb: 6.4.1 (unknown)
184200  0     0  0            999 V2000
   -2.3957   -1.3888   -7.7856 C   0  0  0  0  0  0  0  0  0  0  0  0
   -3.5869   -1.0762   -8.3643 C   0  0  0  0  0  0  0  0  0  0  0  0
   -4.8174   -0.8639   -7.5747 C   0  0  0  0  0  0  0  0  0  0  0  0
   -4.9135   -0.8631   -6.3684 O   0  0  0  0  0  0  0  0  0  0  0  0
   -5.8970   -0.7017   -8.5769 C   0  0  0  0  0  0  0  0  0  0  0  0
   -5.3613   -0.8529   -9.8714 C   0  0  0  0  0  0  0  0  0  0  0  0
   -6.1886   -0.7811  -10.9814 C   0  0  0  0  0  0  0  0  0  0  0  0
   -7.5425   -0.5563  -10.7865 C   0  0  0  0  0  0  0  0  0  0  0  0
   -8.0646   -0.3927   -9.5125 C   0  0  0  0  0  0  0  0  0  0  0  0
   -9.9161   -0.0731   -9.3147 Br  0  0  0  0  0  0  0  0  0  0  0  0
   -7.2471   -0.4588   -8.3780 C   0  0  0  0  0  0  0  0  0  0  0  0
   -7.8963   -0.2373   -6.8144 Cl  0  0  0  0  0  0  0  0  0  0  0  0
   -3.9183   -1.0527   -9.7716 C   0  0  0  0  0  0  0  0  0  0  0  0
   -3.0419   -1.1318  -10.8218 C   0  0  0  0  0  0  0  0  0  0  0  0
   -1.6404   -1.1848  -10.6768 C   0  0  0  0  0  0  0  0  0  0  0  0
   -0.4931   -1.1799  -10.6209 N   0  0  0  0  0  0  0  0  0  0  0  0
   -3.4172   -1.1153  -12.1805 C   0  0  0  0  0  0  0  0  0  0  0  0
   -3.6581   -1.1069  -13.3028 N   0  0  0  0  0  0  0  0  0  0  0  0
   -2.1469   -1.2656   -6.3465 C   0  0  0  0  0  0  0  0  0  0  0  0
   -2.1310   -0.0426   -5.6700 C   0  0  0  0  0  0  0  0  0  0  0  0
   -2.5400    1.4843   -6.4646 S   0  0  0  0  0  0  0  0  0  0  0  0
   -1.4226    1.5478   -7.9294 C   0  0  0  0  0  0  0  0  0  0  0  0
   -2.1524    2.1348   -9.1203 C   0  0  0  0  0  0  0  0  0  0  0  0
   -1.8714   -0.0268   -4.2979 C   0  0  0  0  0  0  0  0  0  0  0  0
   -1.8853    1.5141   -3.4102 S   0  0  0  0  0  0  0  0  0  0  0  0
   -0.3755    2.3173   -4.0703 C   0  0  0  0  0  0  0  0  0  0  0  0
    0.8775    1.5171   -3.7806 C   0  0  0  0  0  0  0  0  0  0  0  0
   -1.5813   -1.2012   -3.5898 C   0  0  0  0  0  0  0  0  0  0  0  0
   -1.6133   -2.4375   -4.2567 C   0  0  0  0  0  0  0  0  0  0  0  0
   -1.9190   -2.4458   -5.6285 C   0  0  0  0  0  0  0  0  0  0  0  0
   -2.1083   -3.6591   -6.4192 C   0  0  0  0  0  0  0  0  0  0  0  0
   -2.3965   -3.5802   -7.6147 O   0  0  0  0  0  0  0  0  0  0  0  0
   -1.9732   -4.9046   -5.6947 C   0  0  0  0  0  0  0  0  0  0  0  0
   -1.6446   -4.9154   -4.3062 C   0  0  0  0  0  0  0  0  0  0  0  0
   -1.4120   -3.6990   -3.5187 C   0  0  0  0  0  0  0  0  0  0  0  0
   -1.1071   -3.7583   -2.3386 O   0  0  0  0  0  0  0  0  0  0  0  0
   -1.5764   -6.1863   -3.8111 C   0  0  0  0  0  0  0  0  0  0  0  0
   -1.9063   -7.3687   -5.0086 S   0  0  0  0  0  0  0  0  0  0  0  0
   -2.1422   -6.1665   -6.2007 C   0  0  0  0  0  0  0  0  0  0  0  0
   -1.1821   -1.0946   -2.1919 C   0  0  0  0  0  0  0  0  0  0  0  0
   -1.9341   -0.6385   -1.1287 C   0  0  0  0  0  0  0  0  0  0  0  0
   -3.2754   -0.3102   -1.1888 N   0  0  0  0  0  0  0  0  0  0  0  0
   -4.1314   -0.9815   -2.0716 C   0  0  0  0  0  0  0  0  0  0  0  0
   -5.1249   -0.2872   -2.7603 C   0  0  0  0  0  0  0  0  0  0  0  0
   -5.9415   -0.9501   -3.6487 C   0  0  0  0  0  0  0  0  0  0  0  0
   -5.7677   -2.3096   -3.8845 C   0  0  0  0  0  0  0  0  0  0  0  0
   -6.8156   -3.0974   -5.0719 S   0  0  0  0  0  0  0  0  0  0  0  0
   -5.6944   -4.3188   -5.8128 C   0  0  0  0  0  0  0  0  0  0  0  0
   -4.8058   -3.0122   -3.1741 C   0  0  0  0  0  0  0  0  0  0  0  0
   -4.0014   -2.3543   -2.2660 C   0  0  0  0  0  0  0  0  0  0  0  0
   -3.7728    0.6842   -0.3397 C   0  0  0  0  0  0  0  0  0  0  0  0
   -3.0050    1.8090   -0.0311 C   0  0  0  0  0  0  0  0  0  0  0  0
   -3.4813    2.7551    0.8471 C   0  0  0  0  0  0  0  0  0  0  0  0
   -4.7389    2.6107    1.4290 C   0  0  0  0  0  0  0  0  0  0  0  0
   -5.2283    3.8719    2.5637 S   0  0  0  0  0  0  0  0  0  0  0  0
   -6.9235    3.4156    3.0269 C   0  0  0  0  0  0  0  0  0  0  0  0
   -5.5197    1.5099    1.1023 C   0  0  0  0  0  0  0  0  0  0  0  0
   -5.0375    0.5554    0.2291 C   0  0  0  0  0  0  0  0  0  0  0  0
   -1.1464   -0.5742    0.0517 C   0  0  0  0  0  0  0  0  0  0  0  0
   -1.4357   -0.1083    1.6911 S   0  0  0  0  0  0  0  0  0  0  0  0
    0.2413   -0.3819    2.0880 C   0  0  0  0  0  0  0  0  0  0  0  0
    0.9744   -0.8384    1.0218 C   0  0  0  0  0  0  0  0  0  0  0  0
    2.3477   -1.1065    1.0685 N   0  0  0  0  0  0  0  0  0  0  0  0
    2.7536   -2.1984    1.8581 C   0  0  0  0  0  0  0  0  0  0  0  0
    2.0979   -3.4186    1.7283 C   0  0  0  0  0  0  0  0  0  0  0  0
    2.4631   -4.4977    2.5114 C   0  0  0  0  0  0  0  0  0  0  0  0
    3.4839   -4.3631    3.4409 C   0  0  0  0  0  0  0  0  0  0  0  0
    4.0313   -5.6641    4.5082 S   0  0  0  0  0  0  0  0  0  0  0  0
    3.1719   -7.1366    3.8828 C   0  0  0  0  0  0  0  0  0  0  0  0
    4.1322   -3.1381    3.5820 C   0  0  0  0  0  0  0  0  0  0  0  0
    3.7761   -2.0663    2.7943 C   0  0  0  0  0  0  0  0  0  0  0  0
    3.2147   -0.3756    0.2752 C   0  0  0  0  0  0  0  0  0  0  0  0
    4.5207   -0.8054    0.0363 C   0  0  0  0  0  0  0  0  0  0  0  0
    5.3778   -0.0670   -0.7548 C   0  0  0  0  0  0  0  0  0  0  0  0
    4.9509    1.1202   -1.3328 C   0  0  0  0  0  0  0  0  0  0  0  0
    5.9585    2.1382   -2.3709 S   0  0  0  0  0  0  0  0  0  0  0  0
    7.6403    1.5327   -2.0563 C   0  0  0  0  0  0  0  0  0  0  0  0
    3.6443    1.5474   -1.1161 C   0  0  0  0  0  0  0  0  0  0  0  0
    2.7886    0.8145   -0.3252 C   0  0  0  0  0  0  0  0  0  0  0  0
    0.1686   -0.9552   -0.1380 C   0  0  0  0  0  0  0  0  0  0  0  0
    0.4736   -1.4555   -1.7581 S   0  0  0  0  0  0  0  0  0  0  0  0
    0.7262    0.0586    3.3967 C   0  0  0  0  0  0  0  0  0  0  0  0
    0.9688    1.4310    3.5629 C   0  0  0  0  0  0  0  0  0  0  0  0
    0.8373    2.4912    2.1574 S   0  0  0  0  0  0  0  0  0  0  0  0
    2.4933    3.2984    2.1485 C   0  0  0  0  0  0  0  0  0  0  0  0
    2.3831    4.7846    1.8889 C   0  0  0  0  0  0  0  0  0  0  0  0
    1.2734    1.9497    4.8204 C   0  0  0  0  0  0  0  0  0  0  0  0
    1.2621    3.7183    5.0485 S   0  0  0  0  0  0  0  0  0  0  0  0
   -0.0883    3.8904    6.2756 C   0  0  0  0  0  0  0  0  0  0  0  0
    0.0164    5.2405    6.9550 C   0  0  0  0  0  0  0  0  0  0  0  0
    1.5732    1.0812    5.8758 C   0  0  0  0  0  0  0  0  0  0  0  0
    1.4616   -0.3005    5.6681 C   0  0  0  0  0  0  0  0  0  0  0  0
    0.9500   -0.8116    4.4644 C   0  0  0  0  0  0  0  0  0  0  0  0
    0.6056   -2.2461    4.3232 C   0  0  0  0  0  0  0  0  0  0  0  0
   -0.0025   -2.6868    3.3669 O   0  0  0  0  0  0  0  0  0  0  0  0
    1.0302   -3.0852    5.4435 C   0  0  0  0  0  0  0  0  0  0  0  0
    1.7206   -2.5762    6.5830 C   0  0  0  0  0  0  0  0  0  0  0  0
    1.9742   -1.1523    6.7541 C   0  0  0  0  0  0  0  0  0  0  0  0
    2.5573   -0.6699    7.7118 O   0  0  0  0  0  0  0  0  0  0  0  0
    2.0472   -3.5625    7.4726 C   0  0  0  0  0  0  0  0  0  0  0  0
    1.5153   -5.1003    6.9500 S   0  0  0  0  0  0  0  0  0  0  0  0
    0.8473   -4.4371    5.5205 C   0  0  0  0  0  0  0  0  0  0  0  0
    1.9348    1.5817    7.1953 C   0  0  0  0  0  0  0  0  0  0  0  0
    2.8385    2.5434    7.4819 C   0  0  0  0  0  0  0  0  0  0  0  0
    2.7493    3.2843    8.7726 C   0  0  0  0  0  0  0  0  0  0  0  0
    2.0957    2.9569    9.7377 O   0  0  0  0  0  0  0  0  0  0  0  0
    3.5241    4.5197    8.5564 C   0  0  0  0  0  0  0  0  0  0  0  0
    4.1196    4.4841    7.2943 C   0  0  0  0  0  0  0  0  0  0  0  0
    4.8673    5.5732    6.8264 C   0  0  0  0  0  0  0  0  0  0  0  0
    5.0115    6.6686    7.6361 C   0  0  0  0  0  0  0  0  0  0  0  0
    4.4361    6.7307    8.9246 C   0  0  0  0  0  0  0  0  0  0  0  0
    4.6004    7.8575    9.7553 C   0  0  0  0  0  0  0  0  0  0  0  0
    4.0309    7.8964   10.9984 C   0  0  0  0  0  0  0  0  0  0  0  0
    3.2697    6.8140   11.4679 C   0  0  0  0  0  0  0  0  0  0  0  0
    3.0864    5.7032   10.6914 C   0  0  0  0  0  0  0  0  0  0  0  0
    3.6650    5.6335    9.4077 C   0  0  0  0  0  0  0  0  0  0  0  0
    3.8305    3.2067    6.6567 C   0  0  0  0  0  0  0  0  0  0  0  0
    4.4825    2.6782    5.5775 C   0  0  0  0  0  0  0  0  0  0  0  0
    5.4326    3.3665    4.7951 C   0  0  0  0  0  0  0  0  0  0  0  0
    6.1899    3.8718    4.0957 N   0  0  0  0  0  0  0  0  0  0  0  0
    4.3051    1.3554    5.1300 C   0  0  0  0  0  0  0  0  0  0  0  0
    4.2314    0.2816    4.7311 N   0  0  0  0  0  0  0  0  0  0  0  0
   -1.5310   -1.6054   -8.4015 H   0  0  0  0  0  0  0  0  0  0  0  0
   -5.8066   -0.8991  -11.9817 H   0  0  0  0  0  0  0  0  0  0  0  0
   -8.2060   -0.5017  -11.6358 H   0  0  0  0  0  0  0  0  0  0  0  0
   -0.5767    2.1761   -7.6484 H   0  0  0  0  0  0  0  0  0  0  0  0
   -1.0678    0.5417   -8.1338 H   0  0  0  0  0  0  0  0  0  0  0  0
   -1.4949    2.1399   -9.9872 H   0  0  0  0  0  0  0  0  0  0  0  0
   -3.0388    1.5498   -9.3561 H   0  0  0  0  0  0  0  0  0  0  0  0
   -2.4644    3.1551   -8.9103 H   0  0  0  0  0  0  0  0  0  0  0  0
   -0.5163    2.4845   -5.1363 H   0  0  0  0  0  0  0  0  0  0  0  0
   -0.3596    3.2785   -3.5582 H   0  0  0  0  0  0  0  0  0  0  0  0
    1.7504    2.0573   -4.1420 H   0  0  0  0  0  0  0  0  0  0  0  0
    0.8456    0.5479   -4.2753 H   0  0  0  0  0  0  0  0  0  0  0  0
    0.9925    1.3513   -2.7126 H   0  0  0  0  0  0  0  0  0  0  0  0
   -1.3496   -6.4757   -2.8042 H   0  0  0  0  0  0  0  0  0  0  0  0
   -2.3902   -6.4331   -7.2089 H   0  0  0  0  0  0  0  0  0  0  0  0
   -5.2330    0.7759   -2.6074 H   0  0  0  0  0  0  0  0  0  0  0  0
   -6.7025   -0.4123   -4.1889 H   0  0  0  0  0  0  0  0  0  0  0  0
   -5.5353   -5.1577   -5.1410 H   0  0  0  0  0  0  0  0  0  0  0  0
   -4.7551   -3.8303   -6.0551 H   0  0  0  0  0  0  0  0  0  0  0  0
   -6.1792   -4.6654   -6.7203 H   0  0  0  0  0  0  0  0  0  0  0  0
   -4.6841   -4.0763   -3.3113 H   0  0  0  0  0  0  0  0  0  0  0  0
   -3.2711   -2.9044   -1.6931 H   0  0  0  0  0  0  0  0  0  0  0  0
   -2.0408    1.9433   -0.4946 H   0  0  0  0  0  0  0  0  0  0  0  0
   -2.8833    3.6193    1.0911 H   0  0  0  0  0  0  0  0  0  0  0  0
   -7.5546    3.3919    2.1435 H   0  0  0  0  0  0  0  0  0  0  0  0
   -6.9252    2.4586    3.5406 H   0  0  0  0  0  0  0  0  0  0  0  0
   -7.2628    4.1957    3.7014 H   0  0  0  0  0  0  0  0  0  0  0  0
   -6.5000    1.3731    1.5294 H   0  0  0  0  0  0  0  0  0  0  0  0
   -5.6436   -0.3067   -0.0072 H   0  0  0  0  0  0  0  0  0  0  0  0
    1.2985   -3.5243    1.0112 H   0  0  0  0  0  0  0  0  0  0  0  0
    1.9413   -5.4322    2.3836 H   0  0  0  0  0  0  0  0  0  0  0  0
    3.5686   -7.9700    4.4540 H   0  0  0  0  0  0  0  0  0  0  0  0
    2.1025   -7.0526    4.0530 H   0  0  0  0  0  0  0  0  0  0  0  0
    3.3943   -7.2705    2.8285 H   0  0  0  0  0  0  0  0  0  0  0  0
    4.9123   -3.0338    4.3202 H   0  0  0  0  0  0  0  0  0  0  0  0
    4.2730   -1.1177    2.9170 H   0  0  0  0  0  0  0  0  0  0  0  0
    4.8661   -1.7339    0.4641 H   0  0  0  0  0  0  0  0  0  0  0  0
    6.3769   -0.4375   -0.9197 H   0  0  0  0  0  0  0  0  0  0  0  0
    8.3048    2.2432   -2.5381 H   0  0  0  0  0  0  0  0  0  0  0  0
    7.7749    0.5484   -2.4960 H   0  0  0  0  0  0  0  0  0  0  0  0
    7.8257    1.5161   -0.9865 H   0  0  0  0  0  0  0  0  0  0  0  0
    3.3109    2.4685   -1.5702 H   0  0  0  0  0  0  0  0  0  0  0  0
    1.7831    1.1704   -0.1586 H   0  0  0  0  0  0  0  0  0  0  0  0
    3.0593    2.7979    1.3615 H   0  0  0  0  0  0  0  0  0  0  0  0
    2.9585    3.0943    3.1099 H   0  0  0  0  0  0  0  0  0  0  0  0
    1.8981    4.9691    0.9336 H   0  0  0  0  0  0  0  0  0  0  0  0
    1.8072    5.2664    2.6750 H   0  0  0  0  0  0  0  0  0  0  0  0
    3.3798    5.2197    1.8667 H   0  0  0  0  0  0  0  0  0  0  0  0
   -1.0254    3.7902    5.7270 H   0  0  0  0  0  0  0  0  0  0  0  0
    0.0092    3.0775    6.9941 H   0  0  0  0  0  0  0  0  0  0  0  0
    0.9587    5.3291    7.4926 H   0  0  0  0  0  0  0  0  0  0  0  0
   -0.0412    6.0428    6.2228 H   0  0  0  0  0  0  0  0  0  0  0  0
   -0.7996    5.3560    7.6646 H   0  0  0  0  0  0  0  0  0  0  0  0
    2.5660   -3.4494    8.4040 H   0  0  0  0  0  0  0  0  0  0  0  0
    0.3501   -5.0580    4.8019 H   0  0  0  0  0  0  0  0  0  0  0  0
    1.3082    1.2682    8.0256 H   0  0  0  0  0  0  0  0  0  0  0  0
    5.3094    5.5558    5.8438 H   0  0  0  0  0  0  0  0  0  0  0  0
    5.5810    7.5191    7.2898 H   0  0  0  0  0  0  0  0  0  0  0  0
    5.1866    8.6891    9.3917 H   0  0  0  0  0  0  0  0  0  0  0  0
    4.1632    8.7632   11.6288 H   0  0  0  0  0  0  0  0  0  0  0  0
    2.8287    6.8658   12.4521 H   0  0  0  0  0  0  0  0  0  0  0  0
    2.5037    4.8659   11.0415 H   0  0  0  0  0  0  0  0  0  0  0  0
  1  2  2  0  0  0  0
  2  3  1  0  0  0  0
  3  4  2  0  0  0  0
  3  5  1  0  0  0  0
  5  6  2  0  0  0  0
  6  7  1  0  0  0  0
  7  8  2  0  0  0  0
  8  9  1  0  0  0  0
  9 10  1  0  0  0  0
  9 11  2  0  0  0  0
 11 12  1  0  0  0  0
  6 13  1  0  0  0  0
 13 14  2  0  0  0  0
 14 15  1  0  0  0  0
 15 16  3  0  0  0  0
 14 17  1  0  0  0  0
 17 18  3  0  0  0  0
  1 19  1  0  0  0  0
 19 20  2  0  0  0  0
 20 21  1  0  0  0  0
 21 22  1  0  0  0  0
 22 23  1  0  0  0  0
 20 24  1  0  0  0  0
 24 25  1  0  0  0  0
 25 26  1  0  0  0  0
 26 27  1  0  0  0  0
 24 28  2  0  0  0  0
 28 29  1  0  0  0  0
 29 30  2  0  0  0  0
 30 31  1  0  0  0  0
 31 32  2  0  0  0  0
 31 33  1  0  0  0  0
 33 34  1  0  0  0  0
 34 35  1  0  0  0  0
 35 36  2  0  0  0  0
 34 37  2  0  0  0  0
 37 38  1  0  0  0  0
 38 39  1  0  0  0  0
 28 40  1  0  0  0  0
 40 41  2  0  0  0  0
 41 42  1  0  0  0  0
 42 43  1  0  0  0  0
 43 44  2  0  0  0  0
 44 45  1  0  0  0  0
 45 46  2  0  0  0  0
 46 47  1  0  0  0  0
 47 48  1  0  0  0  0
 46 49  1  0  0  0  0
 49 50  2  0  0  0  0
 42 51  1  0  0  0  0
 51 52  2  0  0  0  0
 52 53  1  0  0  0  0
 53 54  2  0  0  0  0
 54 55  1  0  0  0  0
 55 56  1  0  0  0  0
 54 57  1  0  0  0  0
 57 58  2  0  0  0  0
 41 59  1  0  0  0  0
 59 60  1  0  0  0  0
 60 61  1  0  0  0  0
 61 62  2  0  0  0  0
 62 63  1  0  0  0  0
 63 64  1  0  0  0  0
 64 65  2  0  0  0  0
 65 66  1  0  0  0  0
 66 67  2  0  0  0  0
 67 68  1  0  0  0  0
 68 69  1  0  0  0  0
 67 70  1  0  0  0  0
 70 71  2  0  0  0  0
 63 72  1  0  0  0  0
 72 73  2  0  0  0  0
 73 74  1  0  0  0  0
 74 75  2  0  0  0  0
 75 76  1  0  0  0  0
 76 77  1  0  0  0  0
 75 78  1  0  0  0  0
 78 79  2  0  0  0  0
 62 80  1  0  0  0  0
 80 81  1  0  0  0  0
 61 82  1  0  0  0  0
 82 83  2  0  0  0  0
 83 84  1  0  0  0  0
 84 85  1  0  0  0  0
 85 86  1  0  0  0  0
 83 87  1  0  0  0  0
 87 88  1  0  0  0  0
 88 89  1  0  0  0  0
 89 90  1  0  0  0  0
 87 91  2  0  0  0  0
 91 92  1  0  0  0  0
 92 93  2  0  0  0  0
 93 94  1  0  0  0  0
 94 95  2  0  0  0  0
 94 96  1  0  0  0  0
 96 97  1  0  0  0  0
 97 98  1  0  0  0  0
 98 99  2  0  0  0  0
 97100  2  0  0  0  0
100101  1  0  0  0  0
101102  1  0  0  0  0
 91103  1  0  0  0  0
103104  2  0  0  0  0
104105  1  0  0  0  0
105106  2  0  0  0  0
105107  1  0  0  0  0
107108  2  0  0  0  0
108109  1  0  0  0  0
109110  2  0  0  0  0
110111  1  0  0  0  0
111112  2  0  0  0  0
112113  1  0  0  0  0
113114  2  0  0  0  0
114115  1  0  0  0  0
115116  2  0  0  0  0
108117  1  0  0  0  0
117118  2  0  0  0  0
118119  1  0  0  0  0
119120  3  0  0  0  0
118121  1  0  0  0  0
121122  3  0  0  0  0
 13  2  1  0  0  0  0
 30 19  1  0  0  0  0
 39 33  2  0  0  0  0
 81 40  1  0  0  0  0
 93 82  1  0  0  0  0
102 96  2  0  0  0  0
117104  1  0  0  0  0
 11  5  1  0  0  0  0
 35 29  1  0  0  0  0
 50 43  1  0  0  0  0
 58 51  1  0  0  0  0
 80 59  2  0  0  0  0
 98 92  1  0  0  0  0
116107  1  0  0  0  0
 71 64  1  0  0  0  0
 79 72  1  0  0  0  0
116111  1  0  0  0  0
  1123  1  0  0  0  0
  7124  1  0  0  0  0
  8125  1  0  0  0  0
 22126  1  0  0  0  0
 22127  1  0  0  0  0
 23128  1  0  0  0  0
 23129  1  0  0  0  0
 23130  1  0  0  0  0
 26131  1  0  0  0  0
 26132  1  0  0  0  0
 27133  1  0  0  0  0
 27134  1  0  0  0  0
 27135  1  0  0  0  0
 37136  1  0  0  0  0
 39137  1  0  0  0  0
 44138  1  0  0  0  0
 45139  1  0  0  0  0
 48140  1  0  0  0  0
 48141  1  0  0  0  0
 48142  1  0  0  0  0
 49143  1  0  0  0  0
 50144  1  0  0  0  0
 52145  1  0  0  0  0
 53146  1  0  0  0  0
 56147  1  0  0  0  0
 56148  1  0  0  0  0
 56149  1  0  0  0  0
 57150  1  0  0  0  0
 58151  1  0  0  0  0
 65152  1  0  0  0  0
 66153  1  0  0  0  0
 69154  1  0  0  0  0
 69155  1  0  0  0  0
 69156  1  0  0  0  0
 70157  1  0  0  0  0
 71158  1  0  0  0  0
 73159  1  0  0  0  0
 74160  1  0  0  0  0
 77161  1  0  0  0  0
 77162  1  0  0  0  0
 77163  1  0  0  0  0
 78164  1  0  0  0  0
 79165  1  0  0  0  0
 85166  1  0  0  0  0
 85167  1  0  0  0  0
 86168  1  0  0  0  0
 86169  1  0  0  0  0
 86170  1  0  0  0  0
 89171  1  0  0  0  0
 89172  1  0  0  0  0
 90173  1  0  0  0  0
 90174  1  0  0  0  0
 90175  1  0  0  0  0
100176  1  0  0  0  0
102177  1  0  0  0  0
103178  1  0  0  0  0
109179  1  0  0  0  0
110180  1  0  0  0  0
112181  1  0  0  0  0
113182  1  0  0  0  0
114183  1  0  0  0  0
115184  1  0  0  0  0
M  END
