
  xtb     02042205393D
 energy: -376.300288292459 gnorm: 0.000592486850 xtb: 6.4.1 (unknown)
225247  0     0  0            999 V2000
   -4.8030    0.4609  -12.3320 C   0  0  0  0  0  0  0  0  0  0  0  0
   -4.7442    1.6243  -13.0556 C   0  0  0  0  0  0  0  0  0  0  0  0
   -4.2944    2.9466  -12.5701 C   0  0  0  0  0  0  0  0  0  0  0  0
   -3.7612    3.2282  -11.5190 O   0  0  0  0  0  0  0  0  0  0  0  0
   -4.7020    3.9097  -13.6197 C   0  0  0  0  0  0  0  0  0  0  0  0
   -5.3170    3.2245  -14.6824 C   0  0  0  0  0  0  0  0  0  0  0  0
   -5.7938    3.9279  -15.7772 C   0  0  0  0  0  0  0  0  0  0  0  0
   -5.6445    5.3068  -15.7969 C   0  0  0  0  0  0  0  0  0  0  0  0
   -5.0314    5.9779  -14.7501 C   0  0  0  0  0  0  0  0  0  0  0  0
   -4.8526    7.8576  -14.8399 Br  0  0  0  0  0  0  0  0  0  0  0  0
   -4.5481    5.2865  -13.6341 C   0  0  0  0  0  0  0  0  0  0  0  0
   -3.7915    6.1130  -12.3409 Cl  0  0  0  0  0  0  0  0  0  0  0  0
   -5.3182    1.7962  -14.3747 C   0  0  0  0  0  0  0  0  0  0  0  0
   -5.7242    0.8050  -15.2308 C   0  0  0  0  0  0  0  0  0  0  0  0
   -6.2648    1.0385  -16.5125 C   0  0  0  0  0  0  0  0  0  0  0  0
   -6.7170    1.1627  -17.5603 N   0  0  0  0  0  0  0  0  0  0  0  0
   -5.6312   -0.5813  -14.9815 C   0  0  0  0  0  0  0  0  0  0  0  0
   -5.5713   -1.7229  -14.8735 N   0  0  0  0  0  0  0  0  0  0  0  0
   -4.2204    0.1578  -11.0860 C   0  0  0  0  0  0  0  0  0  0  0  0
   -3.1648    0.7337  -10.4160 C   0  0  0  0  0  0  0  0  0  0  0  0
   -2.8902    0.1415   -9.1719 C   0  0  0  0  0  0  0  0  0  0  0  0
   -1.9080    0.5262   -8.2346 C   0  0  0  0  0  0  0  0  0  0  0  0
   -1.0329    1.6866   -8.4435 C   0  0  0  0  0  0  0  0  0  0  0  0
   -1.5573    2.9181   -8.8388 C   0  0  0  0  0  0  0  0  0  0  0  0
   -0.7153    4.0037   -8.9866 C   0  0  0  0  0  0  0  0  0  0  0  0
    0.6444    3.8964   -8.7444 C   0  0  0  0  0  0  0  0  0  0  0  0
    1.1735    2.6742   -8.3533 C   0  0  0  0  0  0  0  0  0  0  0  0
    2.8781    2.3677   -8.0189 S   0  0  0  0  0  0  0  0  0  0  0  0
    3.7501    3.9091   -8.4674 C   0  0  0  0  0  0  0  0  0  0  0  0
    3.7349    4.9396   -7.3543 C   0  0  0  0  0  0  0  0  0  0  0  0
    0.3307    1.5772   -8.2065 C   0  0  0  0  0  0  0  0  0  0  0  0
   -1.8415   -0.2257   -7.0776 C   0  0  0  0  0  0  0  0  0  0  0  0
   -2.7202   -1.3014   -6.7829 C   0  0  0  0  0  0  0  0  0  0  0  0
   -3.6948   -1.6883   -7.7198 C   0  0  0  0  0  0  0  0  0  0  0  0
   -4.6134   -2.8045   -7.4507 C   0  0  0  0  0  0  0  0  0  0  0  0
   -4.7377   -3.8524   -8.3553 C   0  0  0  0  0  0  0  0  0  0  0  0
   -5.6056   -4.8964   -8.0864 C   0  0  0  0  0  0  0  0  0  0  0  0
   -6.3472   -4.9056   -6.9222 C   0  0  0  0  0  0  0  0  0  0  0  0
   -6.2220   -3.8622   -6.0078 C   0  0  0  0  0  0  0  0  0  0  0  0
   -7.1796   -3.9985   -4.5255 S   0  0  0  0  0  0  0  0  0  0  0  0
   -7.2360   -2.3046   -3.8415 C   0  0  0  0  0  0  0  0  0  0  0  0
   -6.1025   -2.0117   -2.8757 C   0  0  0  0  0  0  0  0  0  0  0  0
   -5.3597   -2.8137   -6.2756 C   0  0  0  0  0  0  0  0  0  0  0  0
   -3.7445   -0.9644   -8.8990 C   0  0  0  0  0  0  0  0  0  0  0  0
   -4.8713   -1.2222  -10.1984 S   0  0  0  0  0  0  0  0  0  0  0  0
   -2.4685   -1.8690   -5.5124 C   0  0  0  0  0  0  0  0  0  0  0  0
   -1.4367   -1.2748   -4.8368 C   0  0  0  0  0  0  0  0  0  0  0  0
   -0.7350    0.0480   -5.7608 S   0  0  0  0  0  0  0  0  0  0  0  0
   -0.8925   -1.4759   -3.5389 C   0  0  0  0  0  0  0  0  0  0  0  0
   -1.2926   -2.2498   -2.4497 C   0  0  0  0  0  0  0  0  0  0  0  0
   -2.2625   -3.2334   -2.4269 N   0  0  0  0  0  0  0  0  0  0  0  0
   -2.3958   -4.1843   -3.4426 C   0  0  0  0  0  0  0  0  0  0  0  0
   -1.3347   -4.4909   -4.2975 C   0  0  0  0  0  0  0  0  0  0  0  0
   -1.5099   -5.3879   -5.3270 C   0  0  0  0  0  0  0  0  0  0  0  0
   -2.7383   -6.0160   -5.5223 C   0  0  0  0  0  0  0  0  0  0  0  0
   -2.8602   -7.1150   -6.8956 S   0  0  0  0  0  0  0  0  0  0  0  0
   -4.3704   -8.0615   -6.5510 C   0  0  0  0  0  0  0  0  0  0  0  0
   -3.7870   -5.7401   -4.6553 C   0  0  0  0  0  0  0  0  0  0  0  0
   -3.6171   -4.8312   -3.6308 C   0  0  0  0  0  0  0  0  0  0  0  0
   -2.9785   -3.3861   -1.2224 C   0  0  0  0  0  0  0  0  0  0  0  0
   -3.0900   -4.6262   -0.6022 C   0  0  0  0  0  0  0  0  0  0  0  0
   -3.7507   -4.7477    0.6034 C   0  0  0  0  0  0  0  0  0  0  0  0
   -4.3063   -3.6276    1.2094 C   0  0  0  0  0  0  0  0  0  0  0  0
   -5.1617   -3.6769    2.7487 S   0  0  0  0  0  0  0  0  0  0  0  0
   -4.5416   -5.1860    3.5375 C   0  0  0  0  0  0  0  0  0  0  0  0
   -4.2141   -2.3884    0.5799 C   0  0  0  0  0  0  0  0  0  0  0  0
   -3.5565   -2.2674   -0.6233 C   0  0  0  0  0  0  0  0  0  0  0  0
   -0.5663   -1.8791   -1.2872 C   0  0  0  0  0  0  0  0  0  0  0  0
   -0.6214   -2.3452    0.3757 S   0  0  0  0  0  0  0  0  0  0  0  0
    0.6484   -1.1912    0.7873 C   0  0  0  0  0  0  0  0  0  0  0  0
    1.1392   -0.5331   -0.3385 C   0  0  0  0  0  0  0  0  0  0  0  0
    2.1378    0.4272   -0.4211 N   0  0  0  0  0  0  0  0  0  0  0  0
    1.9515    1.3923   -1.4380 C   0  0  0  0  0  0  0  0  0  0  0  0
    2.8964    1.5815   -2.4459 C   0  0  0  0  0  0  0  0  0  0  0  0
    2.6114    2.4057   -3.5125 C   0  0  0  0  0  0  0  0  0  0  0  0
    1.3826    3.0553   -3.5922 C   0  0  0  0  0  0  0  0  0  0  0  0
    1.0522    4.0103   -5.0389 S   0  0  0  0  0  0  0  0  0  0  0  0
   -0.7535    3.8947   -5.1810 C   0  0  0  0  0  0  0  0  0  0  0  0
    0.4708    2.9304   -2.5522 C   0  0  0  0  0  0  0  0  0  0  0  0
    0.7555    2.1037   -1.4838 C   0  0  0  0  0  0  0  0  0  0  0  0
    3.3991    0.2843    0.1586 C   0  0  0  0  0  0  0  0  0  0  0  0
    4.1970    1.4174    0.3403 C   0  0  0  0  0  0  0  0  0  0  0  0
    5.4366    1.3085    0.9261 C   0  0  0  0  0  0  0  0  0  0  0  0
    5.9056    0.0734    1.3680 C   0  0  0  0  0  0  0  0  0  0  0  0
    7.5015    0.0469    2.1181 S   0  0  0  0  0  0  0  0  0  0  0  0
    7.4583   -1.4645    3.1198 C   0  0  0  0  0  0  0  0  0  0  0  0
    5.1232   -1.0577    1.1779 C   0  0  0  0  0  0  0  0  0  0  0  0
    3.8862   -0.9548    0.5716 C   0  0  0  0  0  0  0  0  0  0  0  0
    0.4087   -0.9197   -1.4917 C   0  0  0  0  0  0  0  0  0  0  0  0
    0.4721   -0.4378   -3.1458 S   0  0  0  0  0  0  0  0  0  0  0  0
    0.9316   -1.0519    2.1753 C   0  0  0  0  0  0  0  0  0  0  0  0
    1.8902   -0.3310    2.8320 C   0  0  0  0  0  0  0  0  0  0  0  0
    1.8432   -0.4618    4.2401 C   0  0  0  0  0  0  0  0  0  0  0  0
    2.7369    0.0693    5.1811 C   0  0  0  0  0  0  0  0  0  0  0  0
    3.8952    0.8910    4.8041 C   0  0  0  0  0  0  0  0  0  0  0  0
    3.7662    2.0202    4.0014 C   0  0  0  0  0  0  0  0  0  0  0  0
    4.8707    2.8072    3.7271 C   0  0  0  0  0  0  0  0  0  0  0  0
    6.1103    2.4919    4.2528 C   0  0  0  0  0  0  0  0  0  0  0  0
    6.2405    1.3733    5.0623 C   0  0  0  0  0  0  0  0  0  0  0  0
    7.7936    0.9325    5.8058 S   0  0  0  0  0  0  0  0  0  0  0  0
    8.1993    2.4923    6.6682 C   0  0  0  0  0  0  0  0  0  0  0  0
    7.1012    2.9149    7.6235 C   0  0  0  0  0  0  0  0  0  0  0  0
    5.1453    0.5686    5.3213 C   0  0  0  0  0  0  0  0  0  0  0  0
    2.4916   -0.2201    6.5169 C   0  0  0  0  0  0  0  0  0  0  0  0
    1.3925   -1.0127    6.9410 C   0  0  0  0  0  0  0  0  0  0  0  0
    0.5145   -1.5806    5.9924 C   0  0  0  0  0  0  0  0  0  0  0  0
   -0.6148   -2.4216    6.4119 C   0  0  0  0  0  0  0  0  0  0  0  0
   -0.4123   -3.5301    7.2268 C   0  0  0  0  0  0  0  0  0  0  0  0
   -1.4937   -4.2998    7.6215 C   0  0  0  0  0  0  0  0  0  0  0  0
   -2.7722   -3.9625    7.2271 C   0  0  0  0  0  0  0  0  0  0  0  0
   -2.9836   -2.8476    6.4165 C   0  0  0  0  0  0  0  0  0  0  0  0
   -4.6606   -2.4816    6.0094 S   0  0  0  0  0  0  0  0  0  0  0  0
   -4.5524   -0.9867    4.9614 C   0  0  0  0  0  0  0  0  0  0  0  0
   -5.9523   -0.5686    4.5551 C   0  0  0  0  0  0  0  0  0  0  0  0
   -1.9016   -2.0889    5.9991 C   0  0  0  0  0  0  0  0  0  0  0  0
    0.7671   -1.2860    4.6687 C   0  0  0  0  0  0  0  0  0  0  0  0
   -0.1294   -1.8972    3.3011 S   0  0  0  0  0  0  0  0  0  0  0  0
    1.3194   -1.0804    8.3408 C   0  0  0  0  0  0  0  0  0  0  0  0
    2.3178   -0.3788    8.9923 C   0  0  0  0  0  0  0  0  0  0  0  0
    3.4135    0.3916    7.8620 S   0  0  0  0  0  0  0  0  0  0  0  0
    2.3797   -0.3173   10.4007 C   0  0  0  0  0  0  0  0  0  0  0  0
    3.2384    0.3521   11.2250 C   0  0  0  0  0  0  0  0  0  0  0  0
    4.3571    1.2169   10.8093 C   0  0  0  0  0  0  0  0  0  0  0  0
    4.7774    1.4026    9.6829 O   0  0  0  0  0  0  0  0  0  0  0  0
    4.8863    1.8250   12.0407 C   0  0  0  0  0  0  0  0  0  0  0  0
    5.9173    2.7581   12.1345 C   0  0  0  0  0  0  0  0  0  0  0  0
    6.1827    3.1696   13.4180 C   0  0  0  0  0  0  0  0  0  0  0  0
    5.4718    2.6909   14.5273 C   0  0  0  0  0  0  0  0  0  0  0  0
    4.4543    1.7704   14.4485 C   0  0  0  0  0  0  0  0  0  0  0  0
    4.1704    1.3330   13.1505 C   0  0  0  0  0  0  0  0  0  0  0  0
    3.1693    0.3800   12.6764 C   0  0  0  0  0  0  0  0  0  0  0  0
    2.3441   -0.3644   13.4789 C   0  0  0  0  0  0  0  0  0  0  0  0
    2.3360   -0.3069   14.8889 C   0  0  0  0  0  0  0  0  0  0  0  0
    2.2710   -0.3193   16.0352 N   0  0  0  0  0  0  0  0  0  0  0  0
    1.3979   -1.3148   13.0405 C   0  0  0  0  0  0  0  0  0  0  0  0
    0.6091   -2.1084   12.7793 N   0  0  0  0  0  0  0  0  0  0  0  0
    6.2620    3.5324   15.4979 C   0  0  0  0  0  0  0  0  0  0  0  0
    7.3497    2.8038   16.3152 C   0  0  0  0  0  0  0  0  0  0  0  0
    8.2501    3.9199   16.7937 C   0  0  0  0  0  0  0  0  0  0  0  0
    8.9243    4.3725   15.7443 C   0  0  0  0  0  0  0  0  0  0  0  0
    8.4910    3.5699   14.5386 C   0  0  0  0  0  0  0  0  0  0  0  0
    8.2289    2.2132   15.2053 C   0  0  0  0  0  0  0  0  0  0  0  0
    7.0555    4.0651   14.2616 C   0  0  0  0  0  0  0  0  0  0  0  0
   -5.4171   -0.3355  -12.7361 H   0  0  0  0  0  0  0  0  0  0  0  0
   -6.2779    3.4349  -16.6032 H   0  0  0  0  0  0  0  0  0  0  0  0
   -6.0105    5.8736  -16.6391 H   0  0  0  0  0  0  0  0  0  0  0  0
   -2.5867    1.5416  -10.8204 H   0  0  0  0  0  0  0  0  0  0  0  0
   -2.6162    3.0291   -9.0113 H   0  0  0  0  0  0  0  0  0  0  0  0
   -1.1235    4.9559   -9.2921 H   0  0  0  0  0  0  0  0  0  0  0  0
    1.2686    4.7672   -8.8610 H   0  0  0  0  0  0  0  0  0  0  0  0
    3.3114    4.2840   -9.3912 H   0  0  0  0  0  0  0  0  0  0  0  0
    4.7693    3.5817   -8.6753 H   0  0  0  0  0  0  0  0  0  0  0  0
    4.2707    5.8326   -7.6708 H   0  0  0  0  0  0  0  0  0  0  0  0
    2.7186    5.2147   -7.0838 H   0  0  0  0  0  0  0  0  0  0  0  0
    4.2177    4.5398   -6.4662 H   0  0  0  0  0  0  0  0  0  0  0  0
    0.7635    0.6277   -7.9302 H   0  0  0  0  0  0  0  0  0  0  0  0
   -4.1453   -3.8585   -9.2569 H   0  0  0  0  0  0  0  0  0  0  0  0
   -5.7032   -5.7061   -8.7938 H   0  0  0  0  0  0  0  0  0  0  0  0
   -7.0396   -5.7067   -6.7076 H   0  0  0  0  0  0  0  0  0  0  0  0
   -7.2552   -1.6126   -4.6825 H   0  0  0  0  0  0  0  0  0  0  0  0
   -8.1954   -2.2576   -3.3259 H   0  0  0  0  0  0  0  0  0  0  0  0
   -6.2061   -1.0009   -2.4848 H   0  0  0  0  0  0  0  0  0  0  0  0
   -5.1329   -2.0973   -3.3614 H   0  0  0  0  0  0  0  0  0  0  0  0
   -6.1281   -2.7066   -2.0390 H   0  0  0  0  0  0  0  0  0  0  0  0
   -5.2656   -1.9800   -5.5982 H   0  0  0  0  0  0  0  0  0  0  0  0
   -3.0333   -2.6986   -5.1367 H   0  0  0  0  0  0  0  0  0  0  0  0
   -0.3734   -4.0232   -4.1514 H   0  0  0  0  0  0  0  0  0  0  0  0
   -0.6918   -5.6171   -5.9921 H   0  0  0  0  0  0  0  0  0  0  0  0
   -5.2430   -7.4242   -6.6543 H   0  0  0  0  0  0  0  0  0  0  0  0
   -4.3105   -8.4926   -5.5562 H   0  0  0  0  0  0  0  0  0  0  0  0
   -4.3981   -8.8503   -7.2964 H   0  0  0  0  0  0  0  0  0  0  0  0
   -4.7498   -6.2088   -4.7739 H   0  0  0  0  0  0  0  0  0  0  0  0
   -4.4482   -4.6126   -2.9780 H   0  0  0  0  0  0  0  0  0  0  0  0
   -2.6463   -5.4951   -1.0649 H   0  0  0  0  0  0  0  0  0  0  0  0
   -3.8205   -5.7183    1.0675 H   0  0  0  0  0  0  0  0  0  0  0  0
   -4.9713   -6.0664    3.0682 H   0  0  0  0  0  0  0  0  0  0  0  0
   -3.4568   -5.1968    3.4880 H   0  0  0  0  0  0  0  0  0  0  0  0
   -4.8649   -5.1223    4.5722 H   0  0  0  0  0  0  0  0  0  0  0  0
   -4.6603   -1.5254    1.0495 H   0  0  0  0  0  0  0  0  0  0  0  0
   -3.4732   -1.3042   -1.1050 H   0  0  0  0  0  0  0  0  0  0  0  0
    3.8323    1.0446   -2.4082 H   0  0  0  0  0  0  0  0  0  0  0  0
    3.3195    2.5203   -4.3180 H   0  0  0  0  0  0  0  0  0  0  0  0
   -0.9916    4.1766   -6.2022 H   0  0  0  0  0  0  0  0  0  0  0  0
   -1.2369    4.5764   -4.4869 H   0  0  0  0  0  0  0  0  0  0  0  0
   -1.0537    2.8665   -5.0035 H   0  0  0  0  0  0  0  0  0  0  0  0
   -0.4676    3.4615   -2.5735 H   0  0  0  0  0  0  0  0  0  0  0  0
    0.0343    1.9787   -0.6886 H   0  0  0  0  0  0  0  0  0  0  0  0
    3.8300    2.3824    0.0248 H   0  0  0  0  0  0  0  0  0  0  0  0
    6.0557    2.1811    1.0598 H   0  0  0  0  0  0  0  0  0  0  0  0
    6.5142   -1.5083    3.6540 H   0  0  0  0  0  0  0  0  0  0  0  0
    8.2759   -1.3714    3.8277 H   0  0  0  0  0  0  0  0  0  0  0  0
    7.6034   -2.3406    2.4940 H   0  0  0  0  0  0  0  0  0  0  0  0
    5.4733   -2.0297    1.4865 H   0  0  0  0  0  0  0  0  0  0  0  0
    3.2918   -1.8427    0.4178 H   0  0  0  0  0  0  0  0  0  0  0  0
    2.6298    0.2695    2.3427 H   0  0  0  0  0  0  0  0  0  0  0  0
    2.7953    2.2981    3.6186 H   0  0  0  0  0  0  0  0  0  0  0  0
    4.7616    3.6830    3.1043 H   0  0  0  0  0  0  0  0  0  0  0  0
    6.9689    3.1076    4.0332 H   0  0  0  0  0  0  0  0  0  0  0  0
    8.4017    3.2575    5.9186 H   0  0  0  0  0  0  0  0  0  0  0  0
    9.1232    2.2648    7.1995 H   0  0  0  0  0  0  0  0  0  0  0  0
    6.8512    2.1091    8.3097 H   0  0  0  0  0  0  0  0  0  0  0  0
    7.4272    3.7812    8.1969 H   0  0  0  0  0  0  0  0  0  0  0  0
    6.1968    3.1811    7.0795 H   0  0  0  0  0  0  0  0  0  0  0  0
    5.2716   -0.3088    5.9370 H   0  0  0  0  0  0  0  0  0  0  0  0
    0.5888   -3.7952    7.5317 H   0  0  0  0  0  0  0  0  0  0  0  0
   -1.3378   -5.1646    8.2487 H   0  0  0  0  0  0  0  0  0  0  0  0
   -3.6213   -4.5477    7.5457 H   0  0  0  0  0  0  0  0  0  0  0  0
   -4.0661   -0.2052    5.5465 H   0  0  0  0  0  0  0  0  0  0  0  0
   -3.9528   -1.2395    4.0867 H   0  0  0  0  0  0  0  0  0  0  0  0
   -6.5577   -0.3585    5.4337 H   0  0  0  0  0  0  0  0  0  0  0  0
   -6.4296   -1.3618    3.9849 H   0  0  0  0  0  0  0  0  0  0  0  0
   -5.9050    0.3280    3.9404 H   0  0  0  0  0  0  0  0  0  0  0  0
   -2.0345   -1.2191    5.3765 H   0  0  0  0  0  0  0  0  0  0  0  0
    0.5471   -1.6100    8.8712 H   0  0  0  0  0  0  0  0  0  0  0  0
    1.5873   -0.8836   10.8756 H   0  0  0  0  0  0  0  0  0  0  0  0
    6.4305    3.1058   11.2515 H   0  0  0  0  0  0  0  0  0  0  0  0
    3.9138    1.4208   15.3119 H   0  0  0  0  0  0  0  0  0  0  0  0
    5.6853    4.2392   16.0913 H   0  0  0  0  0  0  0  0  0  0  0  0
    6.9702    2.1220   17.0711 H   0  0  0  0  0  0  0  0  0  0  0  0
    8.2626    4.2899   17.8020 H   0  0  0  0  0  0  0  0  0  0  0  0
    9.6124    5.1963   15.7008 H   0  0  0  0  0  0  0  0  0  0  0  0
    9.1527    3.5857   13.6767 H   0  0  0  0  0  0  0  0  0  0  0  0
    7.7160    1.4963   14.5667 H   0  0  0  0  0  0  0  0  0  0  0  0
    9.1401    1.7646   15.5973 H   0  0  0  0  0  0  0  0  0  0  0  0
    7.0088    5.1279   14.0309 H   0  0  0  0  0  0  0  0  0  0  0  0
  1  2  2  0  0  0  0
  2  3  1  0  0  0  0
  3  4  2  0  0  0  0
  3  5  1  0  0  0  0
  5  6  2  0  0  0  0
  6  7  1  0  0  0  0
  7  8  2  0  0  0  0
  8  9  1  0  0  0  0
  9 10  1  0  0  0  0
  9 11  2  0  0  0  0
 11 12  1  0  0  0  0
  6 13  1  0  0  0  0
 13 14  2  0  0  0  0
 14 15  1  0  0  0  0
 15 16  3  0  0  0  0
 14 17  1  0  0  0  0
 17 18  3  0  0  0  0
  1 19  1  0  0  0  0
 19 20  2  0  0  0  0
 20 21  1  0  0  0  0
 21 22  2  0  0  0  0
 22 23  1  0  0  0  0
 23 24  2  0  0  0  0
 24 25  1  0  0  0  0
 25 26  2  0  0  0  0
 26 27  1  0  0  0  0
 27 28  1  0  0  0  0
 28 29  1  0  0  0  0
 29 30  1  0  0  0  0
 27 31  2  0  0  0  0
 22 32  1  0  0  0  0
 32 33  2  0  0  0  0
 33 34  1  0  0  0  0
 34 35  1  0  0  0  0
 35 36  2  0  0  0  0
 36 37  1  0  0  0  0
 37 38  2  0  0  0  0
 38 39  1  0  0  0  0
 39 40  1  0  0  0  0
 40 41  1  0  0  0  0
 41 42  1  0  0  0  0
 39 43  2  0  0  0  0
 34 44  2  0  0  0  0
 44 45  1  0  0  0  0
 33 46  1  0  0  0  0
 46 47  2  0  0  0  0
 47 48  1  0  0  0  0
 47 49  1  0  0  0  0
 49 50  2  0  0  0  0
 50 51  1  0  0  0  0
 51 52  1  0  0  0  0
 52 53  2  0  0  0  0
 53 54  1  0  0  0  0
 54 55  2  0  0  0  0
 55 56  1  0  0  0  0
 56 57  1  0  0  0  0
 55 58  1  0  0  0  0
 58 59  2  0  0  0  0
 51 60  1  0  0  0  0
 60 61  2  0  0  0  0
 61 62  1  0  0  0  0
 62 63  2  0  0  0  0
 63 64  1  0  0  0  0
 64 65  1  0  0  0  0
 63 66  1  0  0  0  0
 66 67  2  0  0  0  0
 50 68  1  0  0  0  0
 68 69  1  0  0  0  0
 69 70  1  0  0  0  0
 70 71  2  0  0  0  0
 71 72  1  0  0  0  0
 72 73  1  0  0  0  0
 73 74  2  0  0  0  0
 74 75  1  0  0  0  0
 75 76  2  0  0  0  0
 76 77  1  0  0  0  0
 77 78  1  0  0  0  0
 76 79  1  0  0  0  0
 79 80  2  0  0  0  0
 72 81  1  0  0  0  0
 81 82  2  0  0  0  0
 82 83  1  0  0  0  0
 83 84  2  0  0  0  0
 84 85  1  0  0  0  0
 85 86  1  0  0  0  0
 84 87  1  0  0  0  0
 87 88  2  0  0  0  0
 71 89  1  0  0  0  0
 89 90  1  0  0  0  0
 70 91  1  0  0  0  0
 91 92  2  0  0  0  0
 92 93  1  0  0  0  0
 93 94  2  0  0  0  0
 94 95  1  0  0  0  0
 95 96  2  0  0  0  0
 96 97  1  0  0  0  0
 97 98  2  0  0  0  0
 98 99  1  0  0  0  0
 99100  1  0  0  0  0
100101  1  0  0  0  0
101102  1  0  0  0  0
 99103  2  0  0  0  0
 94104  1  0  0  0  0
104105  2  0  0  0  0
105106  1  0  0  0  0
106107  1  0  0  0  0
107108  2  0  0  0  0
108109  1  0  0  0  0
109110  2  0  0  0  0
110111  1  0  0  0  0
111112  1  0  0  0  0
112113  1  0  0  0  0
113114  1  0  0  0  0
111115  2  0  0  0  0
106116  2  0  0  0  0
116117  1  0  0  0  0
105118  1  0  0  0  0
118119  2  0  0  0  0
119120  1  0  0  0  0
119121  1  0  0  0  0
121122  2  0  0  0  0
122123  1  0  0  0  0
123124  2  0  0  0  0
123125  1  0  0  0  0
125126  2  0  0  0  0
126127  1  0  0  0  0
127128  2  0  0  0  0
128129  1  0  0  0  0
129130  2  0  0  0  0
130131  1  0  0  0  0
131132  2  0  0  0  0
132133  1  0  0  0  0
133134  3  0  0  0  0
132135  1  0  0  0  0
135136  3  0  0  0  0
128137  1  0  0  0  0
137138  1  0  0  0  0
138139  1  0  0  0  0
139140  2  0  0  0  0
140141  1  0  0  0  0
141142  1  0  0  0  0
141143  1  0  0  0  0
 13  2  1  0  0  0  0
 45 19  1  0  0  0  0
 90 49  1  0  0  0  0
117 91  1  0  0  0  0
131122  1  0  0  0  0
143137  1  0  0  0  0
 11  5  1  0  0  0  0
 44 21  1  0  0  0  0
 59 52  1  0  0  0  0
 67 60  1  0  0  0  0
 89 68  2  0  0  0  0
116 93  1  0  0  0  0
130125  1  0  0  0  0
142138  1  0  0  0  0
 31 23  1  0  0  0  0
 48 32  1  0  0  0  0
 80 73  1  0  0  0  0
 88 81  1  0  0  0  0
103 95  1  0  0  0  0
120104  1  0  0  0  0
143127  1  0  0  0  0
 43 35  1  0  0  0  0
115107  1  0  0  0  0
  1144  1  0  0  0  0
  7145  1  0  0  0  0
  8146  1  0  0  0  0
 20147  1  0  0  0  0
 24148  1  0  0  0  0
 25149  1  0  0  0  0
 26150  1  0  0  0  0
 29151  1  0  0  0  0
 29152  1  0  0  0  0
 30153  1  0  0  0  0
 30154  1  0  0  0  0
 30155  1  0  0  0  0
 31156  1  0  0  0  0
 36157  1  0  0  0  0
 37158  1  0  0  0  0
 38159  1  0  0  0  0
 41160  1  0  0  0  0
 41161  1  0  0  0  0
 42162  1  0  0  0  0
 42163  1  0  0  0  0
 42164  1  0  0  0  0
 43165  1  0  0  0  0
 46166  1  0  0  0  0
 53167  1  0  0  0  0
 54168  1  0  0  0  0
 57169  1  0  0  0  0
 57170  1  0  0  0  0
 57171  1  0  0  0  0
 58172  1  0  0  0  0
 59173  1  0  0  0  0
 61174  1  0  0  0  0
 62175  1  0  0  0  0
 65176  1  0  0  0  0
 65177  1  0  0  0  0
 65178  1  0  0  0  0
 66179  1  0  0  0  0
 67180  1  0  0  0  0
 74181  1  0  0  0  0
 75182  1  0  0  0  0
 78183  1  0  0  0  0
 78184  1  0  0  0  0
 78185  1  0  0  0  0
 79186  1  0  0  0  0
 80187  1  0  0  0  0
 82188  1  0  0  0  0
 83189  1  0  0  0  0
 86190  1  0  0  0  0
 86191  1  0  0  0  0
 86192  1  0  0  0  0
 87193  1  0  0  0  0
 88194  1  0  0  0  0
 92195  1  0  0  0  0
 96196  1  0  0  0  0
 97197  1  0  0  0  0
 98198  1  0  0  0  0
101199  1  0  0  0  0
101200  1  0  0  0  0
102201  1  0  0  0  0
102202  1  0  0  0  0
102203  1  0  0  0  0
103204  1  0  0  0  0
108205  1  0  0  0  0
109206  1  0  0  0  0
110207  1  0  0  0  0
113208  1  0  0  0  0
113209  1  0  0  0  0
114210  1  0  0  0  0
114211  1  0  0  0  0
114212  1  0  0  0  0
115213  1  0  0  0  0
118214  1  0  0  0  0
121215  1  0  0  0  0
126216  1  0  0  0  0
129217  1  0  0  0  0
137218  1  0  0  0  0
138219  1  0  0  0  0
139220  1  0  0  0  0
140221  1  0  0  0  0
141222  1  0  0  0  0
142223  1  0  0  0  0
142224  1  0  0  0  0
143225  1  0  0  0  0
M  END
