225

C         -4.80300        0.46090      -12.33200
C         -4.74420        1.62430      -13.05560
C         -4.29440        2.94660      -12.57010
O         -3.76120        3.22820      -11.51900
C         -4.70200        3.90970      -13.61970
C         -5.31700        3.22450      -14.68240
C         -5.79380        3.92790      -15.77720
C         -5.64450        5.30680      -15.79690
C         -5.03140        5.97790      -14.75010
Br        -4.85260        7.85760      -14.83990
C         -4.54810        5.28650      -13.63410
Cl        -3.79150        6.11300      -12.34090
C         -5.31820        1.79620      -14.37470
C         -5.72420        0.80500      -15.23080
C         -6.26480        1.03850      -16.51250
N         -6.71700        1.16270      -17.56030
C         -5.63120       -0.58130      -14.98150
N         -5.57130       -1.72290      -14.87350
C         -4.22040        0.15780      -11.08600
C         -3.16480        0.73370      -10.41600
C         -2.89020        0.14150       -9.17190
C         -1.90800        0.52620       -8.23460
C         -1.03290        1.68660       -8.44350
C         -1.55730        2.91810       -8.83880
C         -0.71530        4.00370       -8.98660
C          0.64440        3.89640       -8.74440
C          1.17350        2.67420       -8.35330
S          2.87810        2.36770       -8.01890
C          3.75010        3.90910       -8.46740
C          3.73490        4.93960       -7.35430
C          0.33070        1.57720       -8.20650
C         -1.84150       -0.22570       -7.07760
C         -2.72020       -1.30140       -6.78290
C         -3.69480       -1.68830       -7.71980
C         -4.61340       -2.80450       -7.45070
C         -4.73770       -3.85240       -8.35530
C         -5.60560       -4.89640       -8.08640
C         -6.34720       -4.90560       -6.92220
C         -6.22200       -3.86220       -6.00780
S         -7.17960       -3.99850       -4.52550
C         -7.23600       -2.30460       -3.84150
C         -6.10250       -2.01170       -2.87570
C         -5.35970       -2.81370       -6.27560
C         -3.74450       -0.96440       -8.89900
S         -4.87130       -1.22220      -10.19840
C         -2.46850       -1.86900       -5.51240
C         -1.43670       -1.27480       -4.83680
S         -0.73500        0.04800       -5.76080
C         -0.89250       -1.47590       -3.53890
C         -1.29260       -2.24980       -2.44970
N         -2.26250       -3.23340       -2.42690
C         -2.39580       -4.18430       -3.44260
C         -1.33470       -4.49090       -4.29750
C         -1.50990       -5.38790       -5.32700
C         -2.73830       -6.01600       -5.52230
S         -2.86020       -7.11500       -6.89560
C         -4.37040       -8.06150       -6.55100
C         -3.78700       -5.74010       -4.65530
C         -3.61710       -4.83120       -3.63080
C         -2.97850       -3.38610       -1.22240
C         -3.09000       -4.62620       -0.60220
C         -3.75070       -4.74770        0.60340
C         -4.30630       -3.62760        1.20940
S         -5.16170       -3.67690        2.74870
C         -4.54160       -5.18600        3.53750
C         -4.21410       -2.38840        0.57990
C         -3.55650       -2.26740       -0.62330
C         -0.56630       -1.87910       -1.28720
S         -0.62140       -2.34520        0.37570
C          0.64840       -1.19120        0.78730
C          1.13920       -0.53310       -0.33850
N          2.13780        0.42720       -0.42110
C          1.95150        1.39230       -1.43800
C          2.89640        1.58150       -2.44590
C          2.61140        2.40570       -3.51250
C          1.38260        3.05530       -3.59220
S          1.05220        4.01030       -5.03890
C         -0.75350        3.89470       -5.18100
C          0.47080        2.93040       -2.55220
C          0.75550        2.10370       -1.48380
C          3.39910        0.28430        0.15860
C          4.19700        1.41740        0.34030
C          5.43660        1.30850        0.92610
C          5.90560        0.07340        1.36800
S          7.50150        0.04690        2.11810
C          7.45830       -1.46450        3.11980
C          5.12320       -1.05770        1.17790
C          3.88620       -0.95480        0.57160
C          0.40870       -0.91970       -1.49170
S          0.47210       -0.43780       -3.14580
C          0.93160       -1.05190        2.17530
C          1.89020       -0.33100        2.83200
C          1.84320       -0.46180        4.24010
C          2.73690        0.06930        5.18110
C          3.89520        0.89100        4.80410
C          3.76620        2.02020        4.00140
C          4.87070        2.80720        3.72710
C          6.11030        2.49190        4.25280
C          6.24050        1.37330        5.06230
S          7.79360        0.93250        5.80580
C          8.19930        2.49230        6.66820
C          7.10120        2.91490        7.62350
C          5.14530        0.56860        5.32130
C          2.49160       -0.22010        6.51690
C          1.39250       -1.01270        6.94100
C          0.51450       -1.58060        5.99240
C         -0.61480       -2.42160        6.41190
C         -0.41230       -3.53010        7.22680
C         -1.49370       -4.29980        7.62150
C         -2.77220       -3.96250        7.22710
C         -2.98360       -2.84760        6.41650
S         -4.66060       -2.48160        6.00940
C         -4.55240       -0.98670        4.96140
C         -5.95230       -0.56860        4.55510
C         -1.90160       -2.08890        5.99910
C          0.76710       -1.28600        4.66870
S         -0.12940       -1.89720        3.30110
C          1.31940       -1.08040        8.34080
C          2.31780       -0.37880        8.99230
S          3.41350        0.39160        7.86200
C          2.37970       -0.31730       10.40070
C          3.23840        0.35210       11.22500
C          4.35710        1.21690       10.80930
O          4.77740        1.40260        9.68290
C          4.88630        1.82500       12.04070
C          5.91730        2.75810       12.13450
C          6.18270        3.16960       13.41800
C          5.47180        2.69090       14.52730
C          4.45430        1.77040       14.44850
C          4.17040        1.33300       13.15050
C          3.16930        0.38000       12.67640
C          2.34410       -0.36440       13.47890
C          2.33600       -0.30690       14.88890
N          2.27100       -0.31930       16.03520
C          1.39790       -1.31480       13.04050
N          0.60910       -2.10840       12.77930
C          6.26200        3.53240       15.49790
C          7.34970        2.80380       16.31520
C          8.25010        3.91990       16.79370
C          8.92430        4.37250       15.74430
C          8.49100        3.56990       14.53860
C          8.22890        2.21320       15.20530
C          7.05550        4.06510       14.26160
H         -5.41710       -0.33550      -12.73610
H         -6.27790        3.43490      -16.60320
H         -6.01050        5.87360      -16.63910
H         -2.58670        1.54160      -10.82040
H         -2.61620        3.02910       -9.01130
H         -1.12350        4.95590       -9.29210
H          1.26860        4.76720       -8.86100
H          3.31140        4.28400       -9.39120
H          4.76930        3.58170       -8.67530
H          4.27070        5.83260       -7.67080
H          2.71860        5.21470       -7.08380
H          4.21770        4.53980       -6.46620
H          0.76350        0.62770       -7.93020
H         -4.14530       -3.85850       -9.25690
H         -5.70320       -5.70610       -8.79380
H         -7.03960       -5.70670       -6.70760
H         -7.25520       -1.61260       -4.68250
H         -8.19540       -2.25760       -3.32590
H         -6.20610       -1.00090       -2.48480
H         -5.13290       -2.09730       -3.36140
H         -6.12810       -2.70660       -2.03900
H         -5.26560       -1.98000       -5.59820
H         -3.03330       -2.69860       -5.13670
H         -0.37340       -4.02320       -4.15140
H         -0.69180       -5.61710       -5.99210
H         -5.24300       -7.42420       -6.65430
H         -4.31050       -8.49260       -5.55620
H         -4.39810       -8.85030       -7.29640
H         -4.74980       -6.20880       -4.77390
H         -4.44820       -4.61260       -2.97800
H         -2.64630       -5.49510       -1.06490
H         -3.82050       -5.71830        1.06750
H         -4.97130       -6.06640        3.06820
H         -3.45680       -5.19680        3.48800
H         -4.86490       -5.12230        4.57220
H         -4.66030       -1.52540        1.04950
H         -3.47320       -1.30420       -1.10500
H          3.83230        1.04460       -2.40820
H          3.31950        2.52030       -4.31800
H         -0.99160        4.17660       -6.20220
H         -1.23690        4.57640       -4.48690
H         -1.05370        2.86650       -5.00350
H         -0.46760        3.46150       -2.57350
H          0.03430        1.97870       -0.68860
H          3.83000        2.38240        0.02480
H          6.05570        2.18110        1.05980
H          6.51420       -1.50830        3.65400
H          8.27590       -1.37140        3.82770
H          7.60340       -2.34060        2.49400
H          5.47330       -2.02970        1.48650
H          3.29180       -1.84270        0.41780
H          2.62980        0.26950        2.34270
H          2.79530        2.29810        3.61860
H          4.76160        3.68300        3.10430
H          6.96890        3.10760        4.03320
H          8.40170        3.25750        5.91860
H          9.12320        2.26480        7.19950
H          6.85120        2.10910        8.30970
H          7.42720        3.78120        8.19690
H          6.19680        3.18110        7.07950
H          5.27160       -0.30880        5.93700
H          0.58880       -3.79520        7.53170
H         -1.33780       -5.16460        8.24870
H         -3.62130       -4.54770        7.54570
H         -4.06610       -0.20520        5.54650
H         -3.95280       -1.23950        4.08670
H         -6.55770       -0.35850        5.43370
H         -6.42960       -1.36180        3.98490
H         -5.90500        0.32800        3.94040
H         -2.03450       -1.21910        5.37650
H          0.54710       -1.61000        8.87120
H          1.58730       -0.88360       10.87560
H          6.43050        3.10580       11.25150
H          3.91380        1.42080       15.31190
H          5.68530        4.23920       16.09130
H          6.97020        2.12200       17.07110
H          8.26260        4.28990       17.80200
H          9.61240        5.19630       15.70080
H          9.15270        3.58570       13.67670
H          7.71600        1.49630       14.56670
H          9.14010        1.76460       15.59730
H          7.00880        5.12790       14.03090
