
  xtb     02042200483D
 energy: -361.596876059587 gnorm: 0.000406268615 xtb: 6.4.1 (unknown)
206223  0     0  0            999 V2000
   -9.2285   -2.4924   -0.7257 C   0  0  0  0  0  0  0  0  0  0  0  0
   -9.9475   -1.8015   -1.6405 C   0  0  0  0  0  0  0  0  0  0  0  0
   -9.5296   -0.5397   -2.3004 C   0  0  0  0  0  0  0  0  0  0  0  0
   -8.6053    0.1902   -1.9977 O   0  0  0  0  0  0  0  0  0  0  0  0
  -10.5484   -0.2831   -3.3360 C   0  0  0  0  0  0  0  0  0  0  0  0
  -11.5598   -1.2591   -3.2627 C   0  0  0  0  0  0  0  0  0  0  0  0
  -12.6348   -1.2057   -4.1382 C   0  0  0  0  0  0  0  0  0  0  0  0
  -12.6835   -0.1813   -5.0703 C   0  0  0  0  0  0  0  0  0  0  0  0
  -11.6837    0.7789   -5.1365 C   0  0  0  0  0  0  0  0  0  0  0  0
  -11.8090    2.1493   -6.4281 Br  0  0  0  0  0  0  0  0  0  0  0  0
  -10.5928    0.7449   -4.2638 C   0  0  0  0  0  0  0  0  0  0  0  0
   -9.3524    1.9187   -4.3403 Cl  0  0  0  0  0  0  0  0  0  0  0  0
  -11.2295   -2.2017   -2.1998 C   0  0  0  0  0  0  0  0  0  0  0  0
  -12.0019   -3.2602   -1.8046 C   0  0  0  0  0  0  0  0  0  0  0  0
  -11.6853   -4.1726   -0.7753 C   0  0  0  0  0  0  0  0  0  0  0  0
  -11.5143   -4.9679    0.0356 N   0  0  0  0  0  0  0  0  0  0  0  0
  -13.2461   -3.5921   -2.3835 C   0  0  0  0  0  0  0  0  0  0  0  0
  -14.2583   -3.9200   -2.8137 N   0  0  0  0  0  0  0  0  0  0  0  0
   -7.8960   -2.1642   -0.2627 C   0  0  0  0  0  0  0  0  0  0  0  0
   -6.9465   -3.1911   -0.2183 C   0  0  0  0  0  0  0  0  0  0  0  0
   -7.4358   -4.8156   -0.7687 S   0  0  0  0  0  0  0  0  0  0  0  0
   -7.4765   -5.7485    0.8071 C   0  0  0  0  0  0  0  0  0  0  0  0
   -8.5194   -5.2143    1.7666 C   0  0  0  0  0  0  0  0  0  0  0  0
   -5.6351   -2.9150    0.1479 C   0  0  0  0  0  0  0  0  0  0  0  0
   -4.4809   -4.2451    0.3776 S   0  0  0  0  0  0  0  0  0  0  0  0
   -4.0337   -3.9694    2.1475 C   0  0  0  0  0  0  0  0  0  0  0  0
   -2.5371   -4.0354    2.3690 C   0  0  0  0  0  0  0  0  0  0  0  0
   -5.2110   -1.5842    0.2883 C   0  0  0  0  0  0  0  0  0  0  0  0
   -6.1677   -0.5512    0.2792 C   0  0  0  0  0  0  0  0  0  0  0  0
   -7.5230   -0.8696    0.1272 C   0  0  0  0  0  0  0  0  0  0  0  0
   -8.6103    0.1014    0.4281 C   0  0  0  0  0  0  0  0  0  0  0  0
   -9.7416   -0.2618    0.6893 O   0  0  0  0  0  0  0  0  0  0  0  0
   -8.1725    1.4911    0.5090 C   0  0  0  0  0  0  0  0  0  0  0  0
   -6.7980    1.8518    0.4075 C   0  0  0  0  0  0  0  0  0  0  0  0
   -5.7361    0.8716    0.2029 C   0  0  0  0  0  0  0  0  0  0  0  0
   -4.6029    1.1978   -0.0998 O   0  0  0  0  0  0  0  0  0  0  0  0
   -6.6149    3.2032    0.4991 C   0  0  0  0  0  0  0  0  0  0  0  0
   -8.0905    4.0410    0.7146 S   0  0  0  0  0  0  0  0  0  0  0  0
   -8.9818    2.5779    0.6748 C   0  0  0  0  0  0  0  0  0  0  0  0
   -3.7925   -1.2975    0.4225 C   0  0  0  0  0  0  0  0  0  0  0  0
   -2.7755   -1.6449   -0.4495 C   0  0  0  0  0  0  0  0  0  0  0  0
   -2.9398   -2.3225   -1.6413 N   0  0  0  0  0  0  0  0  0  0  0  0
   -1.9022   -3.1018   -2.1728 C   0  0  0  0  0  0  0  0  0  0  0  0
   -1.0724   -3.8632   -1.3559 C   0  0  0  0  0  0  0  0  0  0  0  0
   -0.0548   -4.6263   -1.8967 C   0  0  0  0  0  0  0  0  0  0  0  0
    0.1417   -4.6533   -3.2699 C   0  0  0  0  0  0  0  0  0  0  0  0
    1.3764   -5.6214   -4.0759 S   0  0  0  0  0  0  0  0  0  0  0  0
    2.4814   -6.1253   -2.7297 C   0  0  0  0  0  0  0  0  0  0  0  0
   -0.6978   -3.9025   -4.0930 C   0  0  0  0  0  0  0  0  0  0  0  0
   -1.7022   -3.1329   -3.5540 C   0  0  0  0  0  0  0  0  0  0  0  0
   -4.1594   -2.2696   -2.3338 C   0  0  0  0  0  0  0  0  0  0  0  0
   -4.7202   -3.4408   -2.8372 C   0  0  0  0  0  0  0  0  0  0  0  0
   -5.9496   -3.4176   -3.4633 C   0  0  0  0  0  0  0  0  0  0  0  0
   -6.6345   -2.2175   -3.5915 C   0  0  0  0  0  0  0  0  0  0  0  0
   -8.2291   -2.0965   -4.3493 S   0  0  0  0  0  0  0  0  0  0  0  0
   -8.8695   -3.7936   -4.2428 C   0  0  0  0  0  0  0  0  0  0  0  0
   -6.0564   -1.0344   -3.1392 C   0  0  0  0  0  0  0  0  0  0  0  0
   -4.8276   -1.0594   -2.5163 C   0  0  0  0  0  0  0  0  0  0  0  0
   -1.5322   -1.1346    0.0128 C   0  0  0  0  0  0  0  0  0  0  0  0
    0.1016   -1.2121   -0.5477 S   0  0  0  0  0  0  0  0  0  0  0  0
    0.6410   -0.1927    0.7879 C   0  0  0  0  0  0  0  0  0  0  0  0
   -0.3981    0.1487    1.6380 C   0  0  0  0  0  0  0  0  0  0  0  0
   -0.3258    0.9229    2.7831 N   0  0  0  0  0  0  0  0  0  0  0  0
   -1.4009    1.7994    3.0057 C   0  0  0  0  0  0  0  0  0  0  0  0
   -2.0034    1.9085    4.2541 C   0  0  0  0  0  0  0  0  0  0  0  0
   -3.1165    2.7096    4.4281 C   0  0  0  0  0  0  0  0  0  0  0  0
   -3.6441    3.4121    3.3533 C   0  0  0  0  0  0  0  0  0  0  0  0
   -5.0880    4.4274    3.4391 S   0  0  0  0  0  0  0  0  0  0  0  0
   -5.7055    4.1818    5.1269 C   0  0  0  0  0  0  0  0  0  0  0  0
   -3.0187    3.3353    2.1108 C   0  0  0  0  0  0  0  0  0  0  0  0
   -1.9103    2.5408    1.9382 C   0  0  0  0  0  0  0  0  0  0  0  0
    0.7240    0.8033    3.6945 C   0  0  0  0  0  0  0  0  0  0  0  0
    1.4030   -0.4071    3.8456 C   0  0  0  0  0  0  0  0  0  0  0  0
    2.4875   -0.4939    4.6877 C   0  0  0  0  0  0  0  0  0  0  0  0
    2.9108    0.6175    5.4150 C   0  0  0  0  0  0  0  0  0  0  0  0
    4.3464    0.3990    6.4176 S   0  0  0  0  0  0  0  0  0  0  0  0
    4.6295    2.0407    7.1372 C   0  0  0  0  0  0  0  0  0  0  0  0
    2.2084    1.8106    5.3061 C   0  0  0  0  0  0  0  0  0  0  0  0
    1.1306    1.9016    4.4483 C   0  0  0  0  0  0  0  0  0  0  0  0
   -1.6224   -0.4031    1.1828 C   0  0  0  0  0  0  0  0  0  0  0  0
   -3.2352   -0.3504    1.7890 S   0  0  0  0  0  0  0  0  0  0  0  0
    2.0196    0.1667    0.8076 C   0  0  0  0  0  0  0  0  0  0  0  0
    3.0221   -0.5442    0.2100 C   0  0  0  0  0  0  0  0  0  0  0  0
    4.2910    0.0695    0.2949 C   0  0  0  0  0  0  0  0  0  0  0  0
    5.5064   -0.3916   -0.2381 C   0  0  0  0  0  0  0  0  0  0  0  0
    5.5650   -1.6203   -1.0433 C   0  0  0  0  0  0  0  0  0  0  0  0
    6.5110   -2.5917   -0.7725 C   0  0  0  0  0  0  0  0  0  0  0  0
    6.5625   -3.7552   -1.5441 C   0  0  0  0  0  0  0  0  0  0  0  0
    7.5227   -4.6455   -1.1968 O   0  0  0  0  0  0  0  0  0  0  0  0
    7.6849   -5.8195   -1.9684 C   0  0  0  0  0  0  0  0  0  0  0  0
    8.8693   -6.5840   -1.3985 C   0  0  0  0  0  0  0  0  0  0  0  0
    5.6543   -3.9314   -2.5753 C   0  0  0  0  0  0  0  0  0  0  0  0
    4.6990   -2.9488   -2.8520 C   0  0  0  0  0  0  0  0  0  0  0  0
    3.8487   -3.2554   -3.8672 O   0  0  0  0  0  0  0  0  0  0  0  0
    2.8703   -2.3221   -4.2806 C   0  0  0  0  0  0  0  0  0  0  0  0
    3.4487   -1.2021   -5.1391 C   0  0  0  0  0  0  0  0  0  0  0  0
    4.6585   -1.7916   -2.0906 C   0  0  0  0  0  0  0  0  0  0  0  0
    6.6241    0.3892    0.0066 C   0  0  0  0  0  0  0  0  0  0  0  0
    6.5696    1.6142    0.7298 C   0  0  0  0  0  0  0  0  0  0  0  0
    5.3419    2.0869    1.2409 C   0  0  0  0  0  0  0  0  0  0  0  0
    5.2606    3.3761    1.9403 C   0  0  0  0  0  0  0  0  0  0  0  0
    4.6518    3.4610    3.1856 C   0  0  0  0  0  0  0  0  0  0  0  0
    4.5906    4.6838    3.8458 C   0  0  0  0  0  0  0  0  0  0  0  0
    5.1364    5.8233    3.2645 C   0  0  0  0  0  0  0  0  0  0  0  0
    5.7380    5.7377    2.0118 C   0  0  0  0  0  0  0  0  0  0  0  0
    6.2903    6.7843    1.3527 O   0  0  0  0  0  0  0  0  0  0  0  0
    6.3931    8.0377    1.9979 C   0  0  0  0  0  0  0  0  0  0  0  0
    7.1735    8.9642    1.0791 C   0  0  0  0  0  0  0  0  0  0  0  0
    5.7935    4.5139    1.3517 C   0  0  0  0  0  0  0  0  0  0  0  0
    3.9853    4.6688    5.0691 O   0  0  0  0  0  0  0  0  0  0  0  0
    3.7765    5.8923    5.7479 C   0  0  0  0  0  0  0  0  0  0  0  0
    2.9742    5.6023    7.0073 C   0  0  0  0  0  0  0  0  0  0  0  0
    4.2359    1.2908    1.0186 C   0  0  0  0  0  0  0  0  0  0  0  0
    2.6042    1.6597    1.5178 S   0  0  0  0  0  0  0  0  0  0  0  0
    7.8293    2.2291    0.8392 C   0  0  0  0  0  0  0  0  0  0  0  0
    8.8362    1.5483    0.1940 C   0  0  0  0  0  0  0  0  0  0  0  0
    8.2345    0.0632   -0.5540 S   0  0  0  0  0  0  0  0  0  0  0  0
   10.2070    1.8224    0.0113 C   0  0  0  0  0  0  0  0  0  0  0  0
   10.9878    2.8847    0.3797 C   0  0  0  0  0  0  0  0  0  0  0  0
   10.6041    4.1104    1.1314 C   0  0  0  0  0  0  0  0  0  0  0  0
    9.5504    4.3948    1.6604 O   0  0  0  0  0  0  0  0  0  0  0  0
   11.8157    4.9295    1.1188 C   0  0  0  0  0  0  0  0  0  0  0  0
   12.2458    6.4756    1.7086 S   0  0  0  0  0  0  0  0  0  0  0  0
   13.8506    6.2466    1.0759 C   0  0  0  0  0  0  0  0  0  0  0  0
   15.1334    7.5948    1.2876 Br  0  0  0  0  0  0  0  0  0  0  0  0
   14.0444    5.0468    0.4493 C   0  0  0  0  0  0  0  0  0  0  0  0
   12.8609    4.2864    0.4760 C   0  0  0  0  0  0  0  0  0  0  0  0
   12.3960    2.9893    0.0176 C   0  0  0  0  0  0  0  0  0  0  0  0
   13.1972    2.0797   -0.6206 C   0  0  0  0  0  0  0  0  0  0  0  0
   12.8370    0.7930   -1.0710 C   0  0  0  0  0  0  0  0  0  0  0  0
   12.6437   -0.2676   -1.4668 N   0  0  0  0  0  0  0  0  0  0  0  0
   14.5540    2.3588   -0.8936 C   0  0  0  0  0  0  0  0  0  0  0  0
   15.6582    2.5621   -1.1303 N   0  0  0  0  0  0  0  0  0  0  0  0
   -9.6045   -3.4484   -0.3891 H   0  0  0  0  0  0  0  0  0  0  0  0
  -13.4257   -1.9364   -4.1121 H   0  0  0  0  0  0  0  0  0  0  0  0
  -13.5105   -0.1231   -5.7611 H   0  0  0  0  0  0  0  0  0  0  0  0
   -6.4739   -5.7238    1.2291 H   0  0  0  0  0  0  0  0  0  0  0  0
   -7.7098   -6.7650    0.4936 H   0  0  0  0  0  0  0  0  0  0  0  0
   -9.5151   -5.2801    1.3329 H   0  0  0  0  0  0  0  0  0  0  0  0
   -8.3165   -4.1757    2.0254 H   0  0  0  0  0  0  0  0  0  0  0  0
   -8.5039   -5.8053    2.6803 H   0  0  0  0  0  0  0  0  0  0  0  0
   -4.4369   -3.0010    2.4362 H   0  0  0  0  0  0  0  0  0  0  0  0
   -4.5398   -4.7536    2.7120 H   0  0  0  0  0  0  0  0  0  0  0  0
   -2.0335   -3.2226    1.8518 H   0  0  0  0  0  0  0  0  0  0  0  0
   -2.3236   -3.9486    3.4326 H   0  0  0  0  0  0  0  0  0  0  0  0
   -2.1406   -4.9830    2.0108 H   0  0  0  0  0  0  0  0  0  0  0  0
   -5.6878    3.7389    0.4688 H   0  0  0  0  0  0  0  0  0  0  0  0
  -10.0502    2.5836    0.7638 H   0  0  0  0  0  0  0  0  0  0  0  0
   -1.2380   -3.8813   -0.2903 H   0  0  0  0  0  0  0  0  0  0  0  0
    0.5665   -5.2080   -1.2350 H   0  0  0  0  0  0  0  0  0  0  0  0
    1.9814   -6.8321   -2.0735 H   0  0  0  0  0  0  0  0  0  0  0  0
    3.3242   -6.6072   -3.2146 H   0  0  0  0  0  0  0  0  0  0  0  0
    2.8213   -5.2473   -2.1896 H   0  0  0  0  0  0  0  0  0  0  0  0
   -0.5469   -3.9302   -5.1613 H   0  0  0  0  0  0  0  0  0  0  0  0
   -2.3412   -2.5469   -4.1974 H   0  0  0  0  0  0  0  0  0  0  0  0
   -4.1974   -4.3771   -2.7152 H   0  0  0  0  0  0  0  0  0  0  0  0
   -6.3674   -4.3409   -3.8284 H   0  0  0  0  0  0  0  0  0  0  0  0
   -9.9309   -3.7280   -4.4641 H   0  0  0  0  0  0  0  0  0  0  0  0
   -8.3837   -4.4207   -4.9840 H   0  0  0  0  0  0  0  0  0  0  0  0
   -8.7119   -4.1794   -3.2390 H   0  0  0  0  0  0  0  0  0  0  0  0
   -6.5820   -0.1013   -3.2662 H   0  0  0  0  0  0  0  0  0  0  0  0
   -4.3832   -0.1436   -2.1570 H   0  0  0  0  0  0  0  0  0  0  0  0
   -1.6084    1.3478    5.0885 H   0  0  0  0  0  0  0  0  0  0  0  0
   -3.5697    2.7625    5.4050 H   0  0  0  0  0  0  0  0  0  0  0  0
   -6.6248    4.7561    5.1874 H   0  0  0  0  0  0  0  0  0  0  0  0
   -4.9872    4.5616    5.8477 H   0  0  0  0  0  0  0  0  0  0  0  0
   -5.9153    3.1291    5.2935 H   0  0  0  0  0  0  0  0  0  0  0  0
   -3.4106    3.9025    1.2816 H   0  0  0  0  0  0  0  0  0  0  0  0
   -1.4374    2.4778    0.9699 H   0  0  0  0  0  0  0  0  0  0  0  0
    1.0850   -1.2753    3.2878 H   0  0  0  0  0  0  0  0  0  0  0  0
    3.0248   -1.4243    4.7902 H   0  0  0  0  0  0  0  0  0  0  0  0
    4.7088    2.7836    6.3492 H   0  0  0  0  0  0  0  0  0  0  0  0
    5.5696    1.9641    7.6750 H   0  0  0  0  0  0  0  0  0  0  0  0
    3.8265    2.2798    7.8293 H   0  0  0  0  0  0  0  0  0  0  0  0
    2.5102    2.6871    5.8537 H   0  0  0  0  0  0  0  0  0  0  0  0
    0.6133    2.8428    4.3389 H   0  0  0  0  0  0  0  0  0  0  0  0
    2.8530   -1.5007   -0.2512 H   0  0  0  0  0  0  0  0  0  0  0  0
    7.2094   -2.4841    0.0409 H   0  0  0  0  0  0  0  0  0  0  0  0
    7.8718   -5.5564   -3.0183 H   0  0  0  0  0  0  0  0  0  0  0  0
    6.7743   -6.4334   -1.9167 H   0  0  0  0  0  0  0  0  0  0  0  0
    9.0359   -7.4911   -1.9722 H   0  0  0  0  0  0  0  0  0  0  0  0
    9.7612   -5.9652   -1.4395 H   0  0  0  0  0  0  0  0  0  0  0  0
    8.6780   -6.8461   -0.3615 H   0  0  0  0  0  0  0  0  0  0  0  0
    5.6511   -4.8111   -3.1970 H   0  0  0  0  0  0  0  0  0  0  0  0
    2.1690   -2.9159   -4.8729 H   0  0  0  0  0  0  0  0  0  0  0  0
    2.3290   -1.9172   -3.4153 H   0  0  0  0  0  0  0  0  0  0  0  0
    4.1823   -0.6215   -4.5851 H   0  0  0  0  0  0  0  0  0  0  0  0
    2.6486   -0.5430   -5.4646 H   0  0  0  0  0  0  0  0  0  0  0  0
    3.9366   -1.6254   -6.0133 H   0  0  0  0  0  0  0  0  0  0  0  0
    3.9545   -1.0033   -2.3004 H   0  0  0  0  0  0  0  0  0  0  0  0
    4.2382    2.5863    3.6607 H   0  0  0  0  0  0  0  0  0  0  0  0
    5.0948    6.7683    3.7789 H   0  0  0  0  0  0  0  0  0  0  0  0
    6.9194    7.9260    2.9559 H   0  0  0  0  0  0  0  0  0  0  0  0
    5.3914    8.4491    2.1898 H   0  0  0  0  0  0  0  0  0  0  0  0
    7.2784    9.9425    1.5395 H   0  0  0  0  0  0  0  0  0  0  0  0
    6.6548    9.0684    0.1302 H   0  0  0  0  0  0  0  0  0  0  0  0
    8.1595    8.5487    0.8909 H   0  0  0  0  0  0  0  0  0  0  0  0
    6.2442    4.4781    0.3736 H   0  0  0  0  0  0  0  0  0  0  0  0
    3.2227    6.5881    5.1030 H   0  0  0  0  0  0  0  0  0  0  0  0
    4.7409    6.3471    6.0140 H   0  0  0  0  0  0  0  0  0  0  0  0
    2.7743    6.5301    7.5356 H   0  0  0  0  0  0  0  0  0  0  0  0
    3.5301    4.9358    7.6614 H   0  0  0  0  0  0  0  0  0  0  0  0
    2.0290    5.1330    6.7465 H   0  0  0  0  0  0  0  0  0  0  0  0
    7.9964    3.1419    1.3794 H   0  0  0  0  0  0  0  0  0  0  0  0
   10.7133    1.0490   -0.5551 H   0  0  0  0  0  0  0  0  0  0  0  0
   14.9775    4.7525    0.0061 H   0  0  0  0  0  0  0  0  0  0  0  0
  1  2  2  0  0  0  0
  2  3  1  0  0  0  0
  3  4  2  0  0  0  0
  3  5  1  0  0  0  0
  5  6  2  0  0  0  0
  6  7  1  0  0  0  0
  7  8  2  0  0  0  0
  8  9  1  0  0  0  0
  9 10  1  0  0  0  0
  9 11  2  0  0  0  0
 11 12  1  0  0  0  0
  6 13  1  0  0  0  0
 13 14  2  0  0  0  0
 14 15  1  0  0  0  0
 15 16  3  0  0  0  0
 14 17  1  0  0  0  0
 17 18  3  0  0  0  0
  1 19  1  0  0  0  0
 19 20  2  0  0  0  0
 20 21  1  0  0  0  0
 21 22  1  0  0  0  0
 22 23  1  0  0  0  0
 20 24  1  0  0  0  0
 24 25  1  0  0  0  0
 25 26  1  0  0  0  0
 26 27  1  0  0  0  0
 24 28  2  0  0  0  0
 28 29  1  0  0  0  0
 29 30  2  0  0  0  0
 30 31  1  0  0  0  0
 31 32  2  0  0  0  0
 31 33  1  0  0  0  0
 33 34  1  0  0  0  0
 34 35  1  0  0  0  0
 35 36  2  0  0  0  0
 34 37  2  0  0  0  0
 37 38  1  0  0  0  0
 38 39  1  0  0  0  0
 28 40  1  0  0  0  0
 40 41  2  0  0  0  0
 41 42  1  0  0  0  0
 42 43  1  0  0  0  0
 43 44  2  0  0  0  0
 44 45  1  0  0  0  0
 45 46  2  0  0  0  0
 46 47  1  0  0  0  0
 47 48  1  0  0  0  0
 46 49  1  0  0  0  0
 49 50  2  0  0  0  0
 42 51  1  0  0  0  0
 51 52  2  0  0  0  0
 52 53  1  0  0  0  0
 53 54  2  0  0  0  0
 54 55  1  0  0  0  0
 55 56  1  0  0  0  0
 54 57  1  0  0  0  0
 57 58  2  0  0  0  0
 41 59  1  0  0  0  0
 59 60  1  0  0  0  0
 60 61  1  0  0  0  0
 61 62  2  0  0  0  0
 62 63  1  0  0  0  0
 63 64  1  0  0  0  0
 64 65  2  0  0  0  0
 65 66  1  0  0  0  0
 66 67  2  0  0  0  0
 67 68  1  0  0  0  0
 68 69  1  0  0  0  0
 67 70  1  0  0  0  0
 70 71  2  0  0  0  0
 63 72  1  0  0  0  0
 72 73  2  0  0  0  0
 73 74  1  0  0  0  0
 74 75  2  0  0  0  0
 75 76  1  0  0  0  0
 76 77  1  0  0  0  0
 75 78  1  0  0  0  0
 78 79  2  0  0  0  0
 62 80  1  0  0  0  0
 80 81  1  0  0  0  0
 61 82  1  0  0  0  0
 82 83  2  0  0  0  0
 83 84  1  0  0  0  0
 84 85  2  0  0  0  0
 85 86  1  0  0  0  0
 86 87  2  0  0  0  0
 87 88  1  0  0  0  0
 88 89  1  0  0  0  0
 89 90  1  0  0  0  0
 90 91  1  0  0  0  0
 88 92  2  0  0  0  0
 92 93  1  0  0  0  0
 93 94  1  0  0  0  0
 94 95  1  0  0  0  0
 95 96  1  0  0  0  0
 93 97  2  0  0  0  0
 85 98  1  0  0  0  0
 98 99  2  0  0  0  0
 99100  1  0  0  0  0
100101  1  0  0  0  0
101102  2  0  0  0  0
102103  1  0  0  0  0
103104  2  0  0  0  0
104105  1  0  0  0  0
105106  1  0  0  0  0
106107  1  0  0  0  0
107108  1  0  0  0  0
105109  2  0  0  0  0
103110  1  0  0  0  0
110111  1  0  0  0  0
111112  1  0  0  0  0
100113  2  0  0  0  0
113114  1  0  0  0  0
 99115  1  0  0  0  0
115116  2  0  0  0  0
116117  1  0  0  0  0
116118  1  0  0  0  0
118119  2  0  0  0  0
119120  1  0  0  0  0
120121  2  0  0  0  0
120122  1  0  0  0  0
122123  1  0  0  0  0
123124  1  0  0  0  0
124125  1  0  0  0  0
124126  2  0  0  0  0
126127  1  0  0  0  0
127128  1  0  0  0  0
128129  2  0  0  0  0
129130  1  0  0  0  0
130131  3  0  0  0  0
129132  1  0  0  0  0
132133  3  0  0  0  0
 13  2  1  0  0  0  0
 30 19  1  0  0  0  0
 39 33  2  0  0  0  0
 81 40  1  0  0  0  0
114 82  1  0  0  0  0
128119  1  0  0  0  0
 11  5  1  0  0  0  0
 35 29  1  0  0  0  0
 50 43  1  0  0  0  0
 58 51  1  0  0  0  0
 80 59  2  0  0  0  0
113 84  1  0  0  0  0
127122  2  0  0  0  0
 71 64  1  0  0  0  0
 79 72  1  0  0  0  0
 97 86  1  0  0  0  0
117 98  1  0  0  0  0
109101  1  0  0  0  0
  1134  1  0  0  0  0
  7135  1  0  0  0  0
  8136  1  0  0  0  0
 22137  1  0  0  0  0
 22138  1  0  0  0  0
 23139  1  0  0  0  0
 23140  1  0  0  0  0
 23141  1  0  0  0  0
 26142  1  0  0  0  0
 26143  1  0  0  0  0
 27144  1  0  0  0  0
 27145  1  0  0  0  0
 27146  1  0  0  0  0
 37147  1  0  0  0  0
 39148  1  0  0  0  0
 44149  1  0  0  0  0
 45150  1  0  0  0  0
 48151  1  0  0  0  0
 48152  1  0  0  0  0
 48153  1  0  0  0  0
 49154  1  0  0  0  0
 50155  1  0  0  0  0
 52156  1  0  0  0  0
 53157  1  0  0  0  0
 56158  1  0  0  0  0
 56159  1  0  0  0  0
 56160  1  0  0  0  0
 57161  1  0  0  0  0
 58162  1  0  0  0  0
 65163  1  0  0  0  0
 66164  1  0  0  0  0
 69165  1  0  0  0  0
 69166  1  0  0  0  0
 69167  1  0  0  0  0
 70168  1  0  0  0  0
 71169  1  0  0  0  0
 73170  1  0  0  0  0
 74171  1  0  0  0  0
 77172  1  0  0  0  0
 77173  1  0  0  0  0
 77174  1  0  0  0  0
 78175  1  0  0  0  0
 79176  1  0  0  0  0
 83177  1  0  0  0  0
 87178  1  0  0  0  0
 90179  1  0  0  0  0
 90180  1  0  0  0  0
 91181  1  0  0  0  0
 91182  1  0  0  0  0
 91183  1  0  0  0  0
 92184  1  0  0  0  0
 95185  1  0  0  0  0
 95186  1  0  0  0  0
 96187  1  0  0  0  0
 96188  1  0  0  0  0
 96189  1  0  0  0  0
 97190  1  0  0  0  0
102191  1  0  0  0  0
104192  1  0  0  0  0
107193  1  0  0  0  0
107194  1  0  0  0  0
108195  1  0  0  0  0
108196  1  0  0  0  0
108197  1  0  0  0  0
109198  1  0  0  0  0
111199  1  0  0  0  0
111200  1  0  0  0  0
112201  1  0  0  0  0
112202  1  0  0  0  0
112203  1  0  0  0  0
115204  1  0  0  0  0
118205  1  0  0  0  0
126206  1  0  0  0  0
M  END
