170

C         -4.40750       -6.26770      -10.88440
C         -3.62460       -6.67960      -11.92390
C         -4.27640       -7.00000      -13.22290
O         -5.45380       -7.17940      -13.41640
C         -3.17540       -6.99350      -14.21540
C         -1.94700       -6.80710      -13.55210
C         -0.76630       -6.74100      -14.27280
C         -0.82600       -6.86550      -15.65290
C         -2.03470       -7.06110      -16.30400
Br        -2.04620       -7.23840      -18.18400
C         -3.23990       -7.12860      -15.59310
Cl        -4.73170       -7.37080      -16.39360
C         -2.19640       -6.76110      -12.11310
C         -1.25580       -7.00590      -11.14390
C         -1.60110       -7.30110       -9.80950
N         -1.84010       -7.59230       -8.72540
C          0.13220       -7.03550      -11.36600
N          1.27650       -7.00420      -11.46720
C         -4.05460       -5.54710       -9.72150
C         -2.91420       -4.82670       -9.45220
C         -2.93480       -4.16850       -8.20980
C         -1.90720       -3.38840       -7.64170
C         -0.59960       -3.28830       -8.29590
C          0.07250       -4.45230       -8.66260
C          1.30030       -4.40440       -9.29020
C          1.89910       -3.18420       -9.58660
S          3.42020       -2.98000      -10.43960
C          4.01500       -4.68210      -10.73250
C          4.64750       -5.29420       -9.49670
C          1.22400       -2.02560       -9.18990
F          1.77850       -0.82540       -9.45210
C          0.00450       -2.05940       -8.55190
C         -2.18280       -2.80310       -6.42070
C         -3.39890       -3.01110       -5.71640
C         -4.40990       -3.81960       -6.26730
C         -5.66010       -4.07850       -5.54290
C         -6.89810       -3.89460       -6.15670
C         -8.06570       -4.11350       -5.45890
C         -8.05300       -4.54170       -4.13160
S         -9.62120       -4.81960       -3.36850
C         -9.38630       -4.32720       -1.62040
C         -8.93130       -2.88770       -1.48870
C         -6.80910       -4.76300       -3.54680
C         -5.63140       -4.52190       -4.22460
F         -6.70660       -5.22890       -2.28250
C         -4.16070       -4.36230       -7.51870
S         -5.23130       -5.39160       -8.42470
C         -3.40400       -2.33070       -4.47520
C         -2.24930       -1.65000       -4.21690
S         -1.08460       -1.79520       -5.51750
C         -1.91230       -0.91870       -3.04100
C         -0.80990       -0.14340       -2.83230
C         -0.73270        0.39790       -1.52510
C          0.26610        1.22060       -0.98660
C          1.40860        1.72850       -1.81240
C          0.98900        2.95930       -2.61880
C          0.12050        1.56470        0.34320
C         -0.95280        1.12110        1.15950
C         -1.96660        0.32170        0.61290
C         -3.15190       -0.11770        1.41740
C         -4.20290        0.99230        1.48340
C         -1.82860       -0.01100       -0.72080
S         -2.93900       -1.01110       -1.62440
C         -0.81230        1.56580        2.49810
C          0.29970        2.32670        2.70910
S          1.23780        2.55540        1.24680
C          0.76800        2.87290        3.93930
C          1.81470        3.73090        4.11830
C          2.08100        4.03020        5.47490
C          3.06740        4.88900        5.99210
C          4.01830        5.58230        5.11500
C          4.23560        6.95400        5.23500
C          5.11360        7.60110        4.39320
C          5.82380        6.91110        3.41160
S          6.94570        7.85000        2.42130
C          6.81480        7.10660        0.75260
C          5.39540        7.14340        0.22300
C          5.62860        5.53490        3.33290
F          6.31800        4.78390        2.44580
C          4.73370        4.87730        4.15200
C          3.10460        5.03500        7.37020
C          2.21330        4.35270        8.24400
C          1.20780        3.50910        7.72260
C          0.26760        2.82970        8.61590
C         -0.39330        3.53480        9.62020
C         -1.25100        2.89870       10.49320
C         -1.46990        1.52740       10.40560
S         -2.51360        0.60020       11.47480
C         -2.67310        1.66280       12.95200
C         -1.35740        1.82880       13.68730
C         -0.82840        0.83990        9.37290
C          0.02160        1.46360        8.48830
F         -1.03290       -0.48500        9.24220
C          1.17860        3.36420        6.34730
S          0.03040        2.39860        5.45450
C          2.51410        4.57810        9.59850
C          3.58400        5.41940        9.79830
S          4.25980        5.97650        8.26340
C          4.21100        5.89560       10.96790
C          4.01220        5.60820       12.29220
C          3.08720        4.62900       12.90470
O          2.16120        4.03120       12.39860
C          3.50300        4.52640       14.32210
C          4.53310        5.44680       14.58410
C          5.09360        5.51930       15.84980
C          4.61220        4.67460       16.83860
C          3.59070        3.77350       16.57900
Br         2.97430        2.65240       17.96980
C          3.01500        3.68220       15.30700
Cl         1.76480        2.56010       14.98430
C          4.81440        6.18910       13.35800
C          5.63950        7.27930       13.27740
C          6.37510        7.79590       14.36630
N          7.00100        8.26470       15.20630
C          5.84820        8.08360       12.13500
N          6.06030        8.81020       11.27160
H         -5.46890       -6.45390      -11.01840
H          0.18470       -6.58670      -13.79010
H          0.08000       -6.81330      -16.23680
H         -2.10580       -4.71300      -10.15210
H         -0.36090       -5.41090       -8.42200
H          1.77970       -5.33120       -9.55650
H          4.75660       -4.55840      -11.52180
H          3.19030       -5.27900      -11.11950
H          5.49650       -4.69720       -9.17160
H          4.99450       -6.30000       -9.72440
H          3.93620       -5.35170       -8.67580
H         -0.47680       -1.13180       -8.28500
H         -6.94460       -3.54610       -7.17670
H         -9.02160       -3.95230       -5.93200
H         -8.69640       -5.01990       -1.14400
H        -10.37930       -4.46490       -1.19220
H         -9.62040       -2.22050       -2.00220
H         -7.93810       -2.75230       -1.91260
H         -8.89450       -2.61140       -0.43690
H         -4.69660       -4.72370       -3.72460
H         -4.23600       -2.33180       -3.79410
H         -0.07360        0.02150       -3.59870
H          1.75420        0.94700       -2.49080
H          2.23550        1.99690       -1.15110
H          0.67470        3.75790       -1.95070
H          0.16040        2.71800       -3.28070
H          1.82150        3.31700       -3.21910
H         -3.59180       -1.00200        0.95100
H         -2.83810       -0.38520        2.42760
H         -4.54620        1.24560        0.48290
H         -3.78620        1.88670        1.94090
H         -5.05750        0.66630        2.07080
H         -1.50060        1.32710        3.28930
H          2.36620        4.14480        3.29350
H          3.68890        7.52130        5.97210
H          5.26590        8.66550        4.47870
H          7.21560        6.09600        0.77930
H          7.47380        7.73380        0.15210
H          4.73990        6.51350        0.82130
H          5.00780        8.15990        0.23980
H          5.37810        6.77900       -0.80210
H          4.63440        3.80710        4.05540
H         -0.25290        4.60160        9.70380
H         -1.75310        3.48320       11.24640
H         -3.39780        1.12990       13.56770
H         -3.10760        2.61630       12.65390
H         -0.61600        2.32090       13.06080
H         -1.51030        2.42920       14.58260
H         -0.96840        0.85690       13.98360
H          0.51450        0.87280        7.73260
H          1.98040        4.12010       10.40970
H          5.01640        6.58900       10.75470
H          5.89090        6.20500       16.08110
H          5.03620        4.71380       17.83010
