
  xtb     02032220283D
 energy: -295.401789823543 gnorm: 0.000264984754 xtb: 6.4.1 (unknown)
165180  0     0  0            999 V2000
  -11.8057   -2.7575    0.5593 C   0  0  0  0  0  0  0  0  0  0  0  0
  -12.2829   -3.7033    1.4116 C   0  0  0  0  0  0  0  0  0  0  0  0
  -13.7483   -3.9323    1.5240 C   0  0  0  0  0  0  0  0  0  0  0  0
  -14.6006   -3.5635    0.7535 O   0  0  0  0  0  0  0  0  0  0  0  0
  -13.9194   -4.6479    2.8109 C   0  0  0  0  0  0  0  0  0  0  0  0
  -12.6556   -4.9437    3.3599 C   0  0  0  0  0  0  0  0  0  0  0  0
  -12.5563   -5.5844    4.5838 C   0  0  0  0  0  0  0  0  0  0  0  0
  -13.7251   -5.9303    5.2451 C   0  0  0  0  0  0  0  0  0  0  0  0
  -14.9688   -5.6543    4.6964 C   0  0  0  0  0  0  0  0  0  0  0  0
  -16.5222   -6.1686    5.6399 Br  0  0  0  0  0  0  0  0  0  0  0  0
  -15.0902   -5.0034    3.4628 C   0  0  0  0  0  0  0  0  0  0  0  0
  -16.6233   -4.6617    2.7849 Cl  0  0  0  0  0  0  0  0  0  0  0  0
  -11.6271   -4.5107    2.4189 C   0  0  0  0  0  0  0  0  0  0  0  0
  -10.3516   -5.0058    2.3533 C   0  0  0  0  0  0  0  0  0  0  0  0
   -9.5208   -4.8397    1.2229 C   0  0  0  0  0  0  0  0  0  0  0  0
   -8.8510   -4.7903    0.2923 N   0  0  0  0  0  0  0  0  0  0  0  0
   -9.7571   -5.7903    3.3609 C   0  0  0  0  0  0  0  0  0  0  0  0
   -9.2153   -6.3921    4.1744 N   0  0  0  0  0  0  0  0  0  0  0  0
  -10.5380   -2.1216    0.5776 C   0  0  0  0  0  0  0  0  0  0  0  0
   -9.9536   -1.4476   -0.4649 C   0  0  0  0  0  0  0  0  0  0  0  0
   -8.6662   -0.9463   -0.1717 C   0  0  0  0  0  0  0  0  0  0  0  0
   -7.7594   -0.3104   -1.0428 C   0  0  0  0  0  0  0  0  0  0  0  0
   -8.1500    0.0692   -2.4031 C   0  0  0  0  0  0  0  0  0  0  0  0
   -9.3317    0.7754   -2.6320 C   0  0  0  0  0  0  0  0  0  0  0  0
   -9.6760    1.1727   -3.9048 C   0  0  0  0  0  0  0  0  0  0  0  0
   -8.8736    0.8693   -5.0055 C   0  0  0  0  0  0  0  0  0  0  0  0
   -9.4554    1.4055   -6.5830 S   0  0  0  0  0  0  0  0  0  0  0  0
   -7.9437    1.8128   -7.5320 C   0  0  0  0  0  0  0  0  0  0  0  0
   -7.0994    2.8621   -6.8376 C   0  0  0  0  0  0  0  0  0  0  0  0
   -7.7176    0.1313   -4.7652 C   0  0  0  0  0  0  0  0  0  0  0  0
   -6.9130   -0.2498   -5.7809 F   0  0  0  0  0  0  0  0  0  0  0  0
   -7.3449   -0.2478   -3.4919 C   0  0  0  0  0  0  0  0  0  0  0  0
   -6.4930   -0.0573   -0.5399 C   0  0  0  0  0  0  0  0  0  0  0  0
   -6.0956   -0.3913    0.7812 C   0  0  0  0  0  0  0  0  0  0  0  0
   -7.0090   -0.9997    1.6589 C   0  0  0  0  0  0  0  0  0  0  0  0
   -6.6394   -1.4524    3.0039 C   0  0  0  0  0  0  0  0  0  0  0  0
   -5.5177   -2.2562    3.2043 C   0  0  0  0  0  0  0  0  0  0  0  0
   -5.2456   -2.7787    4.4496 C   0  0  0  0  0  0  0  0  0  0  0  0
   -6.0645   -2.5116    5.5463 C   0  0  0  0  0  0  0  0  0  0  0  0
   -5.6148   -3.2429    7.0889 S   0  0  0  0  0  0  0  0  0  0  0  0
   -7.2148   -3.6923    7.8583 C   0  0  0  0  0  0  0  0  0  0  0  0
   -8.0554   -4.5797    6.9630 C   0  0  0  0  0  0  0  0  0  0  0  0
   -7.1492   -1.6639    5.3412 C   0  0  0  0  0  0  0  0  0  0  0  0
   -7.4508   -1.1563    4.0940 C   0  0  0  0  0  0  0  0  0  0  0  0
   -7.9551   -1.3059    6.3646 F   0  0  0  0  0  0  0  0  0  0  0  0
   -8.2766   -1.2420    1.1593 C   0  0  0  0  0  0  0  0  0  0  0  0
   -9.5449   -2.0594    2.0257 S   0  0  0  0  0  0  0  0  0  0  0  0
   -4.7556   -0.0229    1.0415 C   0  0  0  0  0  0  0  0  0  0  0  0
   -4.1309    0.5607   -0.0231 C   0  0  0  0  0  0  0  0  0  0  0  0
   -5.1895    0.7097   -1.4109 S   0  0  0  0  0  0  0  0  0  0  0  0
   -2.7704    0.9736   -0.1072 C   0  0  0  0  0  0  0  0  0  0  0  0
   -2.1329    1.5528   -1.1647 C   0  0  0  0  0  0  0  0  0  0  0  0
   -0.7488    1.7691   -0.9478 C   0  0  0  0  0  0  0  0  0  0  0  0
    0.1936    2.3148   -1.8303 C   0  0  0  0  0  0  0  0  0  0  0  0
   -0.1925    2.8459   -3.1773 C   0  0  0  0  0  0  0  0  0  0  0  0
   -0.7307    4.2735   -3.0608 C   0  0  0  0  0  0  0  0  0  0  0  0
    1.4973    2.3690   -1.3756 C   0  0  0  0  0  0  0  0  0  0  0  0
    1.9053    1.9064   -0.0972 C   0  0  0  0  0  0  0  0  0  0  0  0
    0.9602    1.3758    0.7917 C   0  0  0  0  0  0  0  0  0  0  0  0
    1.3300    0.9220    2.1714 C   0  0  0  0  0  0  0  0  0  0  0  0
    1.3780    2.1082    3.1365 C   0  0  0  0  0  0  0  0  0  0  0  0
   -0.3432    1.3249    0.3379 C   0  0  0  0  0  0  0  0  0  0  0  0
   -1.6907    0.6806    1.2419 S   0  0  0  0  0  0  0  0  0  0  0  0
    3.3041    2.0394    0.0881 C   0  0  0  0  0  0  0  0  0  0  0  0
    3.9521    2.5771   -0.9866 C   0  0  0  0  0  0  0  0  0  0  0  0
    2.8547    2.9746   -2.2898 S   0  0  0  0  0  0  0  0  0  0  0  0
    5.3566    2.7896   -1.1374 C   0  0  0  0  0  0  0  0  0  0  0  0
    6.3517    2.3878   -0.2935 C   0  0  0  0  0  0  0  0  0  0  0  0
    7.6530    2.7051   -0.7548 C   0  0  0  0  0  0  0  0  0  0  0  0
    8.8827    2.4006   -0.1508 C   0  0  0  0  0  0  0  0  0  0  0  0
    8.9557    1.6203    1.0910 C   0  0  0  0  0  0  0  0  0  0  0  0
    8.2996    0.3978    1.2038 C   0  0  0  0  0  0  0  0  0  0  0  0
    8.3730   -0.3503    2.3631 C   0  0  0  0  0  0  0  0  0  0  0  0
    9.1066    0.0998    3.4547 C   0  0  0  0  0  0  0  0  0  0  0  0
    9.2562   -0.7315    5.0007 S   0  0  0  0  0  0  0  0  0  0  0  0
    8.7057   -2.4371    4.6482 C   0  0  0  0  0  0  0  0  0  0  0  0
    9.6901   -3.1896    3.7733 C   0  0  0  0  0  0  0  0  0  0  0  0
    9.7549    1.3305    3.3289 C   0  0  0  0  0  0  0  0  0  0  0  0
   10.4590    1.8051    4.3742 F   0  0  0  0  0  0  0  0  0  0  0  0
    9.6953    2.0821    2.1776 C   0  0  0  0  0  0  0  0  0  0  0  0
   10.0283    2.8481   -0.7955 C   0  0  0  0  0  0  0  0  0  0  0  0
    9.9886    3.5567   -2.0251 C   0  0  0  0  0  0  0  0  0  0  0  0
    8.7555    3.8418   -2.6458 C   0  0  0  0  0  0  0  0  0  0  0  0
    8.6832    4.5374   -3.9358 C   0  0  0  0  0  0  0  0  0  0  0  0
    7.8627    5.6515   -4.1051 C   0  0  0  0  0  0  0  0  0  0  0  0
    7.7865    6.2877   -5.3249 C   0  0  0  0  0  0  0  0  0  0  0  0
    8.5219    5.8453   -6.4235 C   0  0  0  0  0  0  0  0  0  0  0  0
    8.3723    6.7753   -7.9195 S   0  0  0  0  0  0  0  0  0  0  0  0
    8.3930    5.5112   -9.2441 C   0  0  0  0  0  0  0  0  0  0  0  0
    7.2848    4.4921   -9.0731 C   0  0  0  0  0  0  0  0  0  0  0  0
    9.3525    4.7448   -6.2337 C   0  0  0  0  0  0  0  0  0  0  0  0
    9.4295    4.0899   -5.0212 C   0  0  0  0  0  0  0  0  0  0  0  0
   10.1235    4.2732   -7.2392 F   0  0  0  0  0  0  0  0  0  0  0  0
    7.6180    3.4170   -1.9832 C   0  0  0  0  0  0  0  0  0  0  0  0
    5.9802    3.6153   -2.5509 S   0  0  0  0  0  0  0  0  0  0  0  0
   11.2835    3.8979   -2.4595 C   0  0  0  0  0  0  0  0  0  0  0  0
   12.2902    3.4452   -1.6345 C   0  0  0  0  0  0  0  0  0  0  0  0
   11.6604    2.5765   -0.2509 S   0  0  0  0  0  0  0  0  0  0  0  0
   13.6595    3.6841   -1.9127 C   0  0  0  0  0  0  0  0  0  0  0  0
   14.7759    3.3055   -1.2418 C   0  0  0  0  0  0  0  0  0  0  0  0
   16.3774    3.7453   -1.8213 S   0  0  0  0  0  0  0  0  0  0  0  0
   17.1699    2.9075   -0.4558 C   0  0  0  0  0  0  0  0  0  0  0  0
   18.3525    2.8541   -0.2890 O   0  0  0  0  0  0  0  0  0  0  0  0
   16.2056    2.3628    0.3446 N   0  0  0  0  0  0  0  0  0  0  0  0
   16.5733    1.5908    1.5214 C   0  0  0  0  0  0  0  0  0  0  0  0
   16.8335    0.1342    1.1618 C   0  0  0  0  0  0  0  0  0  0  0  0
   14.8812    2.5218   -0.0154 C   0  0  0  0  0  0  0  0  0  0  0  0
   13.9684    2.0578    0.6343 O   0  0  0  0  0  0  0  0  0  0  0  0
  -12.5077   -2.3976   -0.1863 H   0  0  0  0  0  0  0  0  0  0  0  0
  -11.6004   -5.8063    5.0291 H   0  0  0  0  0  0  0  0  0  0  0  0
  -13.6747   -6.4266    6.2020 H   0  0  0  0  0  0  0  0  0  0  0  0
  -10.4089   -1.3816   -1.4371 H   0  0  0  0  0  0  0  0  0  0  0  0
   -9.9612    1.0467   -1.7982 H   0  0  0  0  0  0  0  0  0  0  0  0
  -10.5802    1.7360   -4.0749 H   0  0  0  0  0  0  0  0  0  0  0  0
   -7.3862    0.8989   -7.7238 H   0  0  0  0  0  0  0  0  0  0  0  0
   -8.3418    2.1902   -8.4741 H   0  0  0  0  0  0  0  0  0  0  0  0
   -6.2654    3.1407   -7.4784 H   0  0  0  0  0  0  0  0  0  0  0  0
   -7.6908    3.7507   -6.6267 H   0  0  0  0  0  0  0  0  0  0  0  0
   -6.6983    2.4827   -5.8997 H   0  0  0  0  0  0  0  0  0  0  0  0
   -6.4423   -0.8258   -3.3701 H   0  0  0  0  0  0  0  0  0  0  0  0
   -4.8863   -2.5110    2.3671 H   0  0  0  0  0  0  0  0  0  0  0  0
   -4.3934   -3.4237    4.5960 H   0  0  0  0  0  0  0  0  0  0  0  0
   -7.7391   -2.7819    8.1413 H   0  0  0  0  0  0  0  0  0  0  0  0
   -6.9104   -4.2215    8.7614 H   0  0  0  0  0  0  0  0  0  0  0  0
   -8.9466   -4.8971    7.5005 H   0  0  0  0  0  0  0  0  0  0  0  0
   -7.4996   -5.4634    6.6589 H   0  0  0  0  0  0  0  0  0  0  0  0
   -8.3691   -4.0497    6.0656 H   0  0  0  0  0  0  0  0  0  0  0  0
   -8.3065   -0.5064    3.9942 H   0  0  0  0  0  0  0  0  0  0  0  0
   -4.2679   -0.1749    1.9877 H   0  0  0  0  0  0  0  0  0  0  0  0
   -2.6473    1.8013   -2.0761 H   0  0  0  0  0  0  0  0  0  0  0  0
    0.6859    2.8453   -3.8263 H   0  0  0  0  0  0  0  0  0  0  0  0
   -0.9510    2.2040   -3.6282 H   0  0  0  0  0  0  0  0  0  0  0  0
   -1.0066    4.6531   -4.0413 H   0  0  0  0  0  0  0  0  0  0  0  0
   -1.6069    4.3003   -2.4167 H   0  0  0  0  0  0  0  0  0  0  0  0
    0.0280    4.9274   -2.6372 H   0  0  0  0  0  0  0  0  0  0  0  0
    2.3011    0.4247    2.1527 H   0  0  0  0  0  0  0  0  0  0  0  0
    0.5856    0.2037    2.5223 H   0  0  0  0  0  0  0  0  0  0  0  0
    0.4054    2.5924    3.1849 H   0  0  0  0  0  0  0  0  0  0  0  0
    2.1108    2.8407    2.8057 H   0  0  0  0  0  0  0  0  0  0  0  0
    1.6466    1.7714    4.1346 H   0  0  0  0  0  0  0  0  0  0  0  0
    3.8146    1.7442    0.9860 H   0  0  0  0  0  0  0  0  0  0  0  0
    6.1686    1.8795    0.6350 H   0  0  0  0  0  0  0  0  0  0  0  0
    7.7414    0.0137    0.3629 H   0  0  0  0  0  0  0  0  0  0  0  0
    7.8466   -1.2900    2.4089 H   0  0  0  0  0  0  0  0  0  0  0  0
    8.6406   -2.8908    5.6372 H   0  0  0  0  0  0  0  0  0  0  0  0
    7.7055   -2.4025    4.2184 H   0  0  0  0  0  0  0  0  0  0  0  0
    9.3441   -4.2100    3.6195 H   0  0  0  0  0  0  0  0  0  0  0  0
   10.6664   -3.2214    4.2509 H   0  0  0  0  0  0  0  0  0  0  0  0
    9.7994   -2.7087    2.8035 H   0  0  0  0  0  0  0  0  0  0  0  0
   10.2125    3.0273    2.1410 H   0  0  0  0  0  0  0  0  0  0  0  0
    7.2905    6.0264   -3.2709 H   0  0  0  0  0  0  0  0  0  0  0  0
    7.1502    7.1494   -5.4521 H   0  0  0  0  0  0  0  0  0  0  0  0
    9.3755    5.0458   -9.2771 H   0  0  0  0  0  0  0  0  0  0  0  0
    8.2491    6.1005  -10.1498 H   0  0  0  0  0  0  0  0  0  0  0  0
    6.3169    4.9859   -9.0168 H   0  0  0  0  0  0  0  0  0  0  0  0
    7.4282    3.9097   -8.1649 H   0  0  0  0  0  0  0  0  0  0  0  0
    7.2815    3.8101   -9.9209 H   0  0  0  0  0  0  0  0  0  0  0  0
   10.0668    3.2229   -4.9387 H   0  0  0  0  0  0  0  0  0  0  0  0
   11.4801    4.4723   -3.3473 H   0  0  0  0  0  0  0  0  0  0  0  0
   13.8261    4.2629   -2.8145 H   0  0  0  0  0  0  0  0  0  0  0  0
   15.7386    1.6702    2.2216 H   0  0  0  0  0  0  0  0  0  0  0  0
   17.4690    2.0466    1.9485 H   0  0  0  0  0  0  0  0  0  0  0  0
   15.9421   -0.3107    0.7252 H   0  0  0  0  0  0  0  0  0  0  0  0
   17.0975   -0.4202    2.0576 H   0  0  0  0  0  0  0  0  0  0  0  0
   17.6537    0.0618    0.4513 H   0  0  0  0  0  0  0  0  0  0  0  0
  1  2  2  0  0  0  0
  2  3  1  0  0  0  0
  3  4  2  0  0  0  0
  3  5  1  0  0  0  0
  5  6  2  0  0  0  0
  6  7  1  0  0  0  0
  7  8  2  0  0  0  0
  8  9  1  0  0  0  0
  9 10  1  0  0  0  0
  9 11  2  0  0  0  0
 11 12  1  0  0  0  0
  6 13  1  0  0  0  0
 13 14  2  0  0  0  0
 14 15  1  0  0  0  0
 15 16  3  0  0  0  0
 14 17  1  0  0  0  0
 17 18  3  0  0  0  0
  1 19  1  0  0  0  0
 19 20  2  0  0  0  0
 20 21  1  0  0  0  0
 21 22  2  0  0  0  0
 22 23  1  0  0  0  0
 23 24  2  0  0  0  0
 24 25  1  0  0  0  0
 25 26  2  0  0  0  0
 26 27  1  0  0  0  0
 27 28  1  0  0  0  0
 28 29  1  0  0  0  0
 26 30  1  0  0  0  0
 30 31  1  0  0  0  0
 30 32  2  0  0  0  0
 22 33  1  0  0  0  0
 33 34  2  0  0  0  0
 34 35  1  0  0  0  0
 35 36  1  0  0  0  0
 36 37  2  0  0  0  0
 37 38  1  0  0  0  0
 38 39  2  0  0  0  0
 39 40  1  0  0  0  0
 40 41  1  0  0  0  0
 41 42  1  0  0  0  0
 39 43  1  0  0  0  0
 43 44  2  0  0  0  0
 43 45  1  0  0  0  0
 35 46  2  0  0  0  0
 46 47  1  0  0  0  0
 34 48  1  0  0  0  0
 48 49  2  0  0  0  0
 49 50  1  0  0  0  0
 49 51  1  0  0  0  0
 51 52  2  0  0  0  0
 52 53  1  0  0  0  0
 53 54  2  0  0  0  0
 54 55  1  0  0  0  0
 55 56  1  0  0  0  0
 54 57  1  0  0  0  0
 57 58  2  0  0  0  0
 58 59  1  0  0  0  0
 59 60  1  0  0  0  0
 60 61  1  0  0  0  0
 59 62  2  0  0  0  0
 62 63  1  0  0  0  0
 58 64  1  0  0  0  0
 64 65  2  0  0  0  0
 65 66  1  0  0  0  0
 65 67  1  0  0  0  0
 67 68  2  0  0  0  0
 68 69  1  0  0  0  0
 69 70  2  0  0  0  0
 70 71  1  0  0  0  0
 71 72  2  0  0  0  0
 72 73  1  0  0  0  0
 73 74  2  0  0  0  0
 74 75  1  0  0  0  0
 75 76  1  0  0  0  0
 76 77  1  0  0  0  0
 74 78  1  0  0  0  0
 78 79  1  0  0  0  0
 78 80  2  0  0  0  0
 70 81  1  0  0  0  0
 81 82  2  0  0  0  0
 82 83  1  0  0  0  0
 83 84  1  0  0  0  0
 84 85  2  0  0  0  0
 85 86  1  0  0  0  0
 86 87  2  0  0  0  0
 87 88  1  0  0  0  0
 88 89  1  0  0  0  0
 89 90  1  0  0  0  0
 87 91  1  0  0  0  0
 91 92  2  0  0  0  0
 91 93  1  0  0  0  0
 83 94  2  0  0  0  0
 94 95  1  0  0  0  0
 82 96  1  0  0  0  0
 96 97  2  0  0  0  0
 97 98  1  0  0  0  0
 97 99  1  0  0  0  0
 99100  2  0  0  0  0
100101  1  0  0  0  0
101102  1  0  0  0  0
102103  2  0  0  0  0
102104  1  0  0  0  0
104105  1  0  0  0  0
105106  1  0  0  0  0
104107  1  0  0  0  0
107108  2  0  0  0  0
 13  2  1  0  0  0  0
 47 19  1  0  0  0  0
 63 51  1  0  0  0  0
 95 67  1  0  0  0  0
107100  1  0  0  0  0
 11  5  1  0  0  0  0
 46 21  1  0  0  0  0
 62 53  1  0  0  0  0
 94 69  1  0  0  0  0
 32 23  1  0  0  0  0
 50 33  1  0  0  0  0
 66 57  1  0  0  0  0
 80 71  1  0  0  0  0
 98 81  1  0  0  0  0
 44 36  1  0  0  0  0
 92 84  1  0  0  0  0
  1109  1  0  0  0  0
  7110  1  0  0  0  0
  8111  1  0  0  0  0
 20112  1  0  0  0  0
 24113  1  0  0  0  0
 25114  1  0  0  0  0
 28115  1  0  0  0  0
 28116  1  0  0  0  0
 29117  1  0  0  0  0
 29118  1  0  0  0  0
 29119  1  0  0  0  0
 32120  1  0  0  0  0
 37121  1  0  0  0  0
 38122  1  0  0  0  0
 41123  1  0  0  0  0
 41124  1  0  0  0  0
 42125  1  0  0  0  0
 42126  1  0  0  0  0
 42127  1  0  0  0  0
 44128  1  0  0  0  0
 48129  1  0  0  0  0
 52130  1  0  0  0  0
 55131  1  0  0  0  0
 55132  1  0  0  0  0
 56133  1  0  0  0  0
 56134  1  0  0  0  0
 56135  1  0  0  0  0
 60136  1  0  0  0  0
 60137  1  0  0  0  0
 61138  1  0  0  0  0
 61139  1  0  0  0  0
 61140  1  0  0  0  0
 64141  1  0  0  0  0
 68142  1  0  0  0  0
 72143  1  0  0  0  0
 73144  1  0  0  0  0
 76145  1  0  0  0  0
 76146  1  0  0  0  0
 77147  1  0  0  0  0
 77148  1  0  0  0  0
 77149  1  0  0  0  0
 80150  1  0  0  0  0
 85151  1  0  0  0  0
 86152  1  0  0  0  0
 89153  1  0  0  0  0
 89154  1  0  0  0  0
 90155  1  0  0  0  0
 90156  1  0  0  0  0
 90157  1  0  0  0  0
 92158  1  0  0  0  0
 96159  1  0  0  0  0
 99160  1  0  0  0  0
105161  1  0  0  0  0
105162  1  0  0  0  0
106163  1  0  0  0  0
106164  1  0  0  0  0
106165  1  0  0  0  0
M  END
