
  xtb     02032220163D
 energy: -312.976148615341 gnorm: 0.000259202172 xtb: 6.4.1 (unknown)
170186  0     0  0            999 V2000
   -4.4075   -6.2677  -10.8844 C   0  0  0  0  0  0  0  0  0  0  0  0
   -3.6246   -6.6796  -11.9239 C   0  0  0  0  0  0  0  0  0  0  0  0
   -4.2764   -7.0000  -13.2229 C   0  0  0  0  0  0  0  0  0  0  0  0
   -5.4538   -7.1794  -13.4164 O   0  0  0  0  0  0  0  0  0  0  0  0
   -3.1754   -6.9935  -14.2154 C   0  0  0  0  0  0  0  0  0  0  0  0
   -1.9470   -6.8071  -13.5521 C   0  0  0  0  0  0  0  0  0  0  0  0
   -0.7663   -6.7410  -14.2728 C   0  0  0  0  0  0  0  0  0  0  0  0
   -0.8260   -6.8655  -15.6529 C   0  0  0  0  0  0  0  0  0  0  0  0
   -2.0347   -7.0611  -16.3040 C   0  0  0  0  0  0  0  0  0  0  0  0
   -2.0462   -7.2384  -18.1840 Br  0  0  0  0  0  0  0  0  0  0  0  0
   -3.2399   -7.1286  -15.5931 C   0  0  0  0  0  0  0  0  0  0  0  0
   -4.7317   -7.3708  -16.3936 Cl  0  0  0  0  0  0  0  0  0  0  0  0
   -2.1964   -6.7611  -12.1131 C   0  0  0  0  0  0  0  0  0  0  0  0
   -1.2558   -7.0059  -11.1439 C   0  0  0  0  0  0  0  0  0  0  0  0
   -1.6011   -7.3011   -9.8095 C   0  0  0  0  0  0  0  0  0  0  0  0
   -1.8401   -7.5923   -8.7254 N   0  0  0  0  0  0  0  0  0  0  0  0
    0.1322   -7.0355  -11.3660 C   0  0  0  0  0  0  0  0  0  0  0  0
    1.2765   -7.0042  -11.4672 N   0  0  0  0  0  0  0  0  0  0  0  0
   -4.0546   -5.5471   -9.7215 C   0  0  0  0  0  0  0  0  0  0  0  0
   -2.9142   -4.8267   -9.4522 C   0  0  0  0  0  0  0  0  0  0  0  0
   -2.9348   -4.1685   -8.2098 C   0  0  0  0  0  0  0  0  0  0  0  0
   -1.9072   -3.3884   -7.6417 C   0  0  0  0  0  0  0  0  0  0  0  0
   -0.5996   -3.2883   -8.2959 C   0  0  0  0  0  0  0  0  0  0  0  0
    0.0725   -4.4523   -8.6626 C   0  0  0  0  0  0  0  0  0  0  0  0
    1.3003   -4.4044   -9.2902 C   0  0  0  0  0  0  0  0  0  0  0  0
    1.8991   -3.1842   -9.5866 C   0  0  0  0  0  0  0  0  0  0  0  0
    3.4202   -2.9800  -10.4396 S   0  0  0  0  0  0  0  0  0  0  0  0
    4.0150   -4.6821  -10.7325 C   0  0  0  0  0  0  0  0  0  0  0  0
    4.6475   -5.2942   -9.4967 C   0  0  0  0  0  0  0  0  0  0  0  0
    1.2240   -2.0256   -9.1899 C   0  0  0  0  0  0  0  0  0  0  0  0
    1.7785   -0.8254   -9.4521 F   0  0  0  0  0  0  0  0  0  0  0  0
    0.0045   -2.0594   -8.5519 C   0  0  0  0  0  0  0  0  0  0  0  0
   -2.1828   -2.8031   -6.4207 C   0  0  0  0  0  0  0  0  0  0  0  0
   -3.3989   -3.0111   -5.7164 C   0  0  0  0  0  0  0  0  0  0  0  0
   -4.4099   -3.8196   -6.2673 C   0  0  0  0  0  0  0  0  0  0  0  0
   -5.6601   -4.0785   -5.5429 C   0  0  0  0  0  0  0  0  0  0  0  0
   -6.8981   -3.8946   -6.1567 C   0  0  0  0  0  0  0  0  0  0  0  0
   -8.0657   -4.1135   -5.4589 C   0  0  0  0  0  0  0  0  0  0  0  0
   -8.0530   -4.5417   -4.1316 C   0  0  0  0  0  0  0  0  0  0  0  0
   -9.6212   -4.8196   -3.3685 S   0  0  0  0  0  0  0  0  0  0  0  0
   -9.3863   -4.3272   -1.6204 C   0  0  0  0  0  0  0  0  0  0  0  0
   -8.9313   -2.8877   -1.4887 C   0  0  0  0  0  0  0  0  0  0  0  0
   -6.8091   -4.7630   -3.5468 C   0  0  0  0  0  0  0  0  0  0  0  0
   -5.6314   -4.5219   -4.2246 C   0  0  0  0  0  0  0  0  0  0  0  0
   -6.7066   -5.2289   -2.2825 F   0  0  0  0  0  0  0  0  0  0  0  0
   -4.1607   -4.3623   -7.5187 C   0  0  0  0  0  0  0  0  0  0  0  0
   -5.2313   -5.3916   -8.4247 S   0  0  0  0  0  0  0  0  0  0  0  0
   -3.4040   -2.3307   -4.4752 C   0  0  0  0  0  0  0  0  0  0  0  0
   -2.2493   -1.6500   -4.2169 C   0  0  0  0  0  0  0  0  0  0  0  0
   -1.0846   -1.7952   -5.5175 S   0  0  0  0  0  0  0  0  0  0  0  0
   -1.9123   -0.9187   -3.0410 C   0  0  0  0  0  0  0  0  0  0  0  0
   -0.8099   -0.1434   -2.8323 C   0  0  0  0  0  0  0  0  0  0  0  0
   -0.7327    0.3979   -1.5251 C   0  0  0  0  0  0  0  0  0  0  0  0
    0.2661    1.2206   -0.9866 C   0  0  0  0  0  0  0  0  0  0  0  0
    1.4086    1.7285   -1.8124 C   0  0  0  0  0  0  0  0  0  0  0  0
    0.9890    2.9593   -2.6188 C   0  0  0  0  0  0  0  0  0  0  0  0
    0.1205    1.5647    0.3432 C   0  0  0  0  0  0  0  0  0  0  0  0
   -0.9528    1.1211    1.1595 C   0  0  0  0  0  0  0  0  0  0  0  0
   -1.9666    0.3217    0.6129 C   0  0  0  0  0  0  0  0  0  0  0  0
   -3.1519   -0.1177    1.4174 C   0  0  0  0  0  0  0  0  0  0  0  0
   -4.2029    0.9923    1.4834 C   0  0  0  0  0  0  0  0  0  0  0  0
   -1.8286   -0.0110   -0.7208 C   0  0  0  0  0  0  0  0  0  0  0  0
   -2.9390   -1.0111   -1.6244 S   0  0  0  0  0  0  0  0  0  0  0  0
   -0.8123    1.5658    2.4981 C   0  0  0  0  0  0  0  0  0  0  0  0
    0.2997    2.3267    2.7091 C   0  0  0  0  0  0  0  0  0  0  0  0
    1.2378    2.5554    1.2468 S   0  0  0  0  0  0  0  0  0  0  0  0
    0.7680    2.8729    3.9393 C   0  0  0  0  0  0  0  0  0  0  0  0
    1.8147    3.7309    4.1183 C   0  0  0  0  0  0  0  0  0  0  0  0
    2.0810    4.0302    5.4749 C   0  0  0  0  0  0  0  0  0  0  0  0
    3.0674    4.8890    5.9921 C   0  0  0  0  0  0  0  0  0  0  0  0
    4.0183    5.5823    5.1150 C   0  0  0  0  0  0  0  0  0  0  0  0
    4.2356    6.9540    5.2350 C   0  0  0  0  0  0  0  0  0  0  0  0
    5.1136    7.6011    4.3932 C   0  0  0  0  0  0  0  0  0  0  0  0
    5.8238    6.9111    3.4116 C   0  0  0  0  0  0  0  0  0  0  0  0
    6.9457    7.8500    2.4213 S   0  0  0  0  0  0  0  0  0  0  0  0
    6.8148    7.1066    0.7526 C   0  0  0  0  0  0  0  0  0  0  0  0
    5.3954    7.1434    0.2230 C   0  0  0  0  0  0  0  0  0  0  0  0
    5.6286    5.5349    3.3329 C   0  0  0  0  0  0  0  0  0  0  0  0
    6.3180    4.7839    2.4458 F   0  0  0  0  0  0  0  0  0  0  0  0
    4.7337    4.8773    4.1520 C   0  0  0  0  0  0  0  0  0  0  0  0
    3.1046    5.0350    7.3702 C   0  0  0  0  0  0  0  0  0  0  0  0
    2.2133    4.3527    8.2440 C   0  0  0  0  0  0  0  0  0  0  0  0
    1.2078    3.5091    7.7226 C   0  0  0  0  0  0  0  0  0  0  0  0
    0.2676    2.8297    8.6159 C   0  0  0  0  0  0  0  0  0  0  0  0
   -0.3933    3.5348    9.6202 C   0  0  0  0  0  0  0  0  0  0  0  0
   -1.2510    2.8987   10.4932 C   0  0  0  0  0  0  0  0  0  0  0  0
   -1.4699    1.5274   10.4056 C   0  0  0  0  0  0  0  0  0  0  0  0
   -2.5136    0.6002   11.4748 S   0  0  0  0  0  0  0  0  0  0  0  0
   -2.6731    1.6628   12.9520 C   0  0  0  0  0  0  0  0  0  0  0  0
   -1.3574    1.8288   13.6873 C   0  0  0  0  0  0  0  0  0  0  0  0
   -0.8284    0.8399    9.3729 C   0  0  0  0  0  0  0  0  0  0  0  0
    0.0216    1.4636    8.4883 C   0  0  0  0  0  0  0  0  0  0  0  0
   -1.0329   -0.4850    9.2422 F   0  0  0  0  0  0  0  0  0  0  0  0
    1.1786    3.3642    6.3473 C   0  0  0  0  0  0  0  0  0  0  0  0
    0.0304    2.3986    5.4545 S   0  0  0  0  0  0  0  0  0  0  0  0
    2.5141    4.5781    9.5985 C   0  0  0  0  0  0  0  0  0  0  0  0
    3.5840    5.4194    9.7983 C   0  0  0  0  0  0  0  0  0  0  0  0
    4.2598    5.9765    8.2634 S   0  0  0  0  0  0  0  0  0  0  0  0
    4.2110    5.8956   10.9679 C   0  0  0  0  0  0  0  0  0  0  0  0
    4.0122    5.6082   12.2922 C   0  0  0  0  0  0  0  0  0  0  0  0
    3.0872    4.6290   12.9047 C   0  0  0  0  0  0  0  0  0  0  0  0
    2.1612    4.0312   12.3986 O   0  0  0  0  0  0  0  0  0  0  0  0
    3.5030    4.5264   14.3221 C   0  0  0  0  0  0  0  0  0  0  0  0
    4.5331    5.4468   14.5841 C   0  0  0  0  0  0  0  0  0  0  0  0
    5.0936    5.5193   15.8498 C   0  0  0  0  0  0  0  0  0  0  0  0
    4.6122    4.6746   16.8386 C   0  0  0  0  0  0  0  0  0  0  0  0
    3.5907    3.7735   16.5790 C   0  0  0  0  0  0  0  0  0  0  0  0
    2.9743    2.6524   17.9698 Br  0  0  0  0  0  0  0  0  0  0  0  0
    3.0150    3.6822   15.3070 C   0  0  0  0  0  0  0  0  0  0  0  0
    1.7648    2.5601   14.9843 Cl  0  0  0  0  0  0  0  0  0  0  0  0
    4.8144    6.1891   13.3580 C   0  0  0  0  0  0  0  0  0  0  0  0
    5.6395    7.2793   13.2774 C   0  0  0  0  0  0  0  0  0  0  0  0
    6.3751    7.7959   14.3663 C   0  0  0  0  0  0  0  0  0  0  0  0
    7.0010    8.2647   15.2063 N   0  0  0  0  0  0  0  0  0  0  0  0
    5.8482    8.0836   12.1350 C   0  0  0  0  0  0  0  0  0  0  0  0
    6.0603    8.8102   11.2716 N   0  0  0  0  0  0  0  0  0  0  0  0
   -5.4689   -6.4539  -11.0184 H   0  0  0  0  0  0  0  0  0  0  0  0
    0.1847   -6.5867  -13.7901 H   0  0  0  0  0  0  0  0  0  0  0  0
    0.0800   -6.8133  -16.2368 H   0  0  0  0  0  0  0  0  0  0  0  0
   -2.1058   -4.7130  -10.1521 H   0  0  0  0  0  0  0  0  0  0  0  0
   -0.3609   -5.4109   -8.4220 H   0  0  0  0  0  0  0  0  0  0  0  0
    1.7797   -5.3312   -9.5565 H   0  0  0  0  0  0  0  0  0  0  0  0
    4.7566   -4.5584  -11.5218 H   0  0  0  0  0  0  0  0  0  0  0  0
    3.1903   -5.2790  -11.1195 H   0  0  0  0  0  0  0  0  0  0  0  0
    5.4965   -4.6972   -9.1716 H   0  0  0  0  0  0  0  0  0  0  0  0
    4.9945   -6.3000   -9.7244 H   0  0  0  0  0  0  0  0  0  0  0  0
    3.9362   -5.3517   -8.6758 H   0  0  0  0  0  0  0  0  0  0  0  0
   -0.4768   -1.1318   -8.2850 H   0  0  0  0  0  0  0  0  0  0  0  0
   -6.9446   -3.5461   -7.1767 H   0  0  0  0  0  0  0  0  0  0  0  0
   -9.0216   -3.9523   -5.9320 H   0  0  0  0  0  0  0  0  0  0  0  0
   -8.6964   -5.0199   -1.1440 H   0  0  0  0  0  0  0  0  0  0  0  0
  -10.3793   -4.4649   -1.1922 H   0  0  0  0  0  0  0  0  0  0  0  0
   -9.6204   -2.2205   -2.0022 H   0  0  0  0  0  0  0  0  0  0  0  0
   -7.9381   -2.7523   -1.9126 H   0  0  0  0  0  0  0  0  0  0  0  0
   -8.8945   -2.6114   -0.4369 H   0  0  0  0  0  0  0  0  0  0  0  0
   -4.6966   -4.7237   -3.7246 H   0  0  0  0  0  0  0  0  0  0  0  0
   -4.2360   -2.3318   -3.7941 H   0  0  0  0  0  0  0  0  0  0  0  0
   -0.0736    0.0215   -3.5987 H   0  0  0  0  0  0  0  0  0  0  0  0
    1.7542    0.9470   -2.4908 H   0  0  0  0  0  0  0  0  0  0  0  0
    2.2355    1.9969   -1.1511 H   0  0  0  0  0  0  0  0  0  0  0  0
    0.6747    3.7579   -1.9507 H   0  0  0  0  0  0  0  0  0  0  0  0
    0.1604    2.7180   -3.2807 H   0  0  0  0  0  0  0  0  0  0  0  0
    1.8215    3.3170   -3.2191 H   0  0  0  0  0  0  0  0  0  0  0  0
   -3.5918   -1.0020    0.9510 H   0  0  0  0  0  0  0  0  0  0  0  0
   -2.8381   -0.3852    2.4276 H   0  0  0  0  0  0  0  0  0  0  0  0
   -4.5462    1.2456    0.4829 H   0  0  0  0  0  0  0  0  0  0  0  0
   -3.7862    1.8867    1.9409 H   0  0  0  0  0  0  0  0  0  0  0  0
   -5.0575    0.6663    2.0708 H   0  0  0  0  0  0  0  0  0  0  0  0
   -1.5006    1.3271    3.2893 H   0  0  0  0  0  0  0  0  0  0  0  0
    2.3662    4.1448    3.2935 H   0  0  0  0  0  0  0  0  0  0  0  0
    3.6889    7.5213    5.9721 H   0  0  0  0  0  0  0  0  0  0  0  0
    5.2659    8.6655    4.4787 H   0  0  0  0  0  0  0  0  0  0  0  0
    7.2156    6.0960    0.7793 H   0  0  0  0  0  0  0  0  0  0  0  0
    7.4738    7.7338    0.1521 H   0  0  0  0  0  0  0  0  0  0  0  0
    4.7399    6.5135    0.8213 H   0  0  0  0  0  0  0  0  0  0  0  0
    5.0078    8.1599    0.2398 H   0  0  0  0  0  0  0  0  0  0  0  0
    5.3781    6.7790   -0.8021 H   0  0  0  0  0  0  0  0  0  0  0  0
    4.6344    3.8071    4.0554 H   0  0  0  0  0  0  0  0  0  0  0  0
   -0.2529    4.6016    9.7038 H   0  0  0  0  0  0  0  0  0  0  0  0
   -1.7531    3.4832   11.2464 H   0  0  0  0  0  0  0  0  0  0  0  0
   -3.3978    1.1299   13.5677 H   0  0  0  0  0  0  0  0  0  0  0  0
   -3.1076    2.6163   12.6539 H   0  0  0  0  0  0  0  0  0  0  0  0
   -0.6160    2.3209   13.0608 H   0  0  0  0  0  0  0  0  0  0  0  0
   -1.5103    2.4292   14.5826 H   0  0  0  0  0  0  0  0  0  0  0  0
   -0.9684    0.8569   13.9836 H   0  0  0  0  0  0  0  0  0  0  0  0
    0.5145    0.8728    7.7326 H   0  0  0  0  0  0  0  0  0  0  0  0
    1.9804    4.1201   10.4097 H   0  0  0  0  0  0  0  0  0  0  0  0
    5.0164    6.5890   10.7547 H   0  0  0  0  0  0  0  0  0  0  0  0
    5.8909    6.2050   16.0811 H   0  0  0  0  0  0  0  0  0  0  0  0
    5.0362    4.7138   17.8301 H   0  0  0  0  0  0  0  0  0  0  0  0
  1  2  2  0  0  0  0
  2  3  1  0  0  0  0
  3  4  2  0  0  0  0
  3  5  1  0  0  0  0
  5  6  2  0  0  0  0
  6  7  1  0  0  0  0
  7  8  2  0  0  0  0
  8  9  1  0  0  0  0
  9 10  1  0  0  0  0
  9 11  2  0  0  0  0
 11 12  1  0  0  0  0
  6 13  1  0  0  0  0
 13 14  2  0  0  0  0
 14 15  1  0  0  0  0
 15 16  3  0  0  0  0
 14 17  1  0  0  0  0
 17 18  3  0  0  0  0
  1 19  1  0  0  0  0
 19 20  2  0  0  0  0
 20 21  1  0  0  0  0
 21 22  2  0  0  0  0
 22 23  1  0  0  0  0
 23 24  2  0  0  0  0
 24 25  1  0  0  0  0
 25 26  2  0  0  0  0
 26 27  1  0  0  0  0
 27 28  1  0  0  0  0
 28 29  1  0  0  0  0
 26 30  1  0  0  0  0
 30 31  1  0  0  0  0
 30 32  2  0  0  0  0
 22 33  1  0  0  0  0
 33 34  2  0  0  0  0
 34 35  1  0  0  0  0
 35 36  1  0  0  0  0
 36 37  2  0  0  0  0
 37 38  1  0  0  0  0
 38 39  2  0  0  0  0
 39 40  1  0  0  0  0
 40 41  1  0  0  0  0
 41 42  1  0  0  0  0
 39 43  1  0  0  0  0
 43 44  2  0  0  0  0
 43 45  1  0  0  0  0
 35 46  2  0  0  0  0
 46 47  1  0  0  0  0
 34 48  1  0  0  0  0
 48 49  2  0  0  0  0
 49 50  1  0  0  0  0
 49 51  1  0  0  0  0
 51 52  2  0  0  0  0
 52 53  1  0  0  0  0
 53 54  2  0  0  0  0
 54 55  1  0  0  0  0
 55 56  1  0  0  0  0
 54 57  1  0  0  0  0
 57 58  2  0  0  0  0
 58 59  1  0  0  0  0
 59 60  1  0  0  0  0
 60 61  1  0  0  0  0
 59 62  2  0  0  0  0
 62 63  1  0  0  0  0
 58 64  1  0  0  0  0
 64 65  2  0  0  0  0
 65 66  1  0  0  0  0
 65 67  1  0  0  0  0
 67 68  2  0  0  0  0
 68 69  1  0  0  0  0
 69 70  2  0  0  0  0
 70 71  1  0  0  0  0
 71 72  2  0  0  0  0
 72 73  1  0  0  0  0
 73 74  2  0  0  0  0
 74 75  1  0  0  0  0
 75 76  1  0  0  0  0
 76 77  1  0  0  0  0
 74 78  1  0  0  0  0
 78 79  1  0  0  0  0
 78 80  2  0  0  0  0
 70 81  1  0  0  0  0
 81 82  2  0  0  0  0
 82 83  1  0  0  0  0
 83 84  1  0  0  0  0
 84 85  2  0  0  0  0
 85 86  1  0  0  0  0
 86 87  2  0  0  0  0
 87 88  1  0  0  0  0
 88 89  1  0  0  0  0
 89 90  1  0  0  0  0
 87 91  1  0  0  0  0
 91 92  2  0  0  0  0
 91 93  1  0  0  0  0
 83 94  2  0  0  0  0
 94 95  1  0  0  0  0
 82 96  1  0  0  0  0
 96 97  2  0  0  0  0
 97 98  1  0  0  0  0
 97 99  1  0  0  0  0
 99100  2  0  0  0  0
100101  1  0  0  0  0
101102  2  0  0  0  0
101103  1  0  0  0  0
103104  2  0  0  0  0
104105  1  0  0  0  0
105106  2  0  0  0  0
106107  1  0  0  0  0
107108  1  0  0  0  0
107109  2  0  0  0  0
109110  1  0  0  0  0
104111  1  0  0  0  0
111112  2  0  0  0  0
112113  1  0  0  0  0
113114  3  0  0  0  0
112115  1  0  0  0  0
115116  3  0  0  0  0
 13  2  1  0  0  0  0
 47 19  1  0  0  0  0
 63 51  1  0  0  0  0
 95 67  1  0  0  0  0
111100  1  0  0  0  0
 11  5  1  0  0  0  0
 46 21  1  0  0  0  0
 62 53  1  0  0  0  0
 94 69  1  0  0  0  0
109103  1  0  0  0  0
 32 23  1  0  0  0  0
 50 33  1  0  0  0  0
 66 57  1  0  0  0  0
 80 71  1  0  0  0  0
 98 81  1  0  0  0  0
 44 36  1  0  0  0  0
 92 84  1  0  0  0  0
  1117  1  0  0  0  0
  7118  1  0  0  0  0
  8119  1  0  0  0  0
 20120  1  0  0  0  0
 24121  1  0  0  0  0
 25122  1  0  0  0  0
 28123  1  0  0  0  0
 28124  1  0  0  0  0
 29125  1  0  0  0  0
 29126  1  0  0  0  0
 29127  1  0  0  0  0
 32128  1  0  0  0  0
 37129  1  0  0  0  0
 38130  1  0  0  0  0
 41131  1  0  0  0  0
 41132  1  0  0  0  0
 42133  1  0  0  0  0
 42134  1  0  0  0  0
 42135  1  0  0  0  0
 44136  1  0  0  0  0
 48137  1  0  0  0  0
 52138  1  0  0  0  0
 55139  1  0  0  0  0
 55140  1  0  0  0  0
 56141  1  0  0  0  0
 56142  1  0  0  0  0
 56143  1  0  0  0  0
 60144  1  0  0  0  0
 60145  1  0  0  0  0
 61146  1  0  0  0  0
 61147  1  0  0  0  0
 61148  1  0  0  0  0
 64149  1  0  0  0  0
 68150  1  0  0  0  0
 72151  1  0  0  0  0
 73152  1  0  0  0  0
 76153  1  0  0  0  0
 76154  1  0  0  0  0
 77155  1  0  0  0  0
 77156  1  0  0  0  0
 77157  1  0  0  0  0
 80158  1  0  0  0  0
 85159  1  0  0  0  0
 86160  1  0  0  0  0
 89161  1  0  0  0  0
 89162  1  0  0  0  0
 90163  1  0  0  0  0
 90164  1  0  0  0  0
 90165  1  0  0  0  0
 92166  1  0  0  0  0
 96167  1  0  0  0  0
 99168  1  0  0  0  0
105169  1  0  0  0  0
106170  1  0  0  0  0
M  END
