
  xtb     02122207003D
 energy: -420.056949615441 gnorm: 0.000425307847 xtb: 6.4.1 (unknown)
248269  0     0  0            999 V2000
   -7.8587   -2.4742    4.1399 C   0  0  0  0  0  0  0  0  0  0  0  0
   -8.6198   -3.5613    4.5269 C   0  0  0  0  0  0  0  0  0  0  0  0
   -8.8405   -4.7743    3.7427 C   0  0  0  0  0  0  0  0  0  0  0  0
   -8.3548   -5.0650    2.6635 O   0  0  0  0  0  0  0  0  0  0  0  0
   -9.8261   -5.5706    4.5030 C   0  0  0  0  0  0  0  0  0  0  0  0
  -10.3861   -6.8035    4.2114 C   0  0  0  0  0  0  0  0  0  0  0  0
   -9.9593   -7.6557    2.7912 Cl  0  0  0  0  0  0  0  0  0  0  0  0
  -11.3096   -7.3519    5.0986 C   0  0  0  0  0  0  0  0  0  0  0  0
  -11.6461   -6.6522    6.2443 C   0  0  0  0  0  0  0  0  0  0  0  0
  -12.9125   -7.4133    7.4325 Br  0  0  0  0  0  0  0  0  0  0  0  0
  -11.0957   -5.4131    6.5599 C   0  0  0  0  0  0  0  0  0  0  0  0
  -10.1786   -4.8763    5.6758 C   0  0  0  0  0  0  0  0  0  0  0  0
   -9.4164   -3.6243    5.7213 C   0  0  0  0  0  0  0  0  0  0  0  0
   -9.4458   -2.7164    6.7552 C   0  0  0  0  0  0  0  0  0  0  0  0
   -8.6147   -1.5854    6.8630 C   0  0  0  0  0  0  0  0  0  0  0  0
   -7.9444   -0.6668    7.0366 N   0  0  0  0  0  0  0  0  0  0  0  0
  -10.2976   -2.8158    7.8729 C   0  0  0  0  0  0  0  0  0  0  0  0
  -10.9765   -2.8337    8.7990 N   0  0  0  0  0  0  0  0  0  0  0  0
   -6.9748   -2.3332    3.0802 C   0  0  0  0  0  0  0  0  0  0  0  0
   -6.2268   -1.1453    2.8397 C   0  0  0  0  0  0  0  0  0  0  0  0
   -6.4913    0.0798    3.3764 N   0  0  0  0  0  0  0  0  0  0  0  0
   -7.7879    0.5021    3.7295 C   0  0  0  0  0  0  0  0  0  0  0  0
   -8.8952    0.1557    2.9604 C   0  0  0  0  0  0  0  0  0  0  0  0
  -10.1590    0.5753    3.3237 C   0  0  0  0  0  0  0  0  0  0  0  0
  -10.3334    1.3622    4.4569 C   0  0  0  0  0  0  0  0  0  0  0  0
  -11.8933    1.9510    5.0245 S   0  0  0  0  0  0  0  0  0  0  0  0
  -13.0945    1.1770    3.9040 C   0  0  0  0  0  0  0  0  0  0  0  0
   -9.2204    1.7362    5.2084 C   0  0  0  0  0  0  0  0  0  0  0  0
   -7.9605    1.3116    4.8521 C   0  0  0  0  0  0  0  0  0  0  0  0
   -5.4632    1.0474    3.4303 C   0  0  0  0  0  0  0  0  0  0  0  0
   -4.2355    0.7368    4.0114 C   0  0  0  0  0  0  0  0  0  0  0  0
   -3.2148    1.6602    4.0097 C   0  0  0  0  0  0  0  0  0  0  0  0
   -3.4042    2.9173    3.4373 C   0  0  0  0  0  0  0  0  0  0  0  0
   -2.0087    3.9906    3.4231 S   0  0  0  0  0  0  0  0  0  0  0  0
   -2.6702    5.5799    2.8486 C   0  0  0  0  0  0  0  0  0  0  0  0
   -4.6443    3.2484    2.9056 C   0  0  0  0  0  0  0  0  0  0  0  0
   -5.6639    2.3176    2.9018 C   0  0  0  0  0  0  0  0  0  0  0  0
   -5.1601   -1.4107    1.9649 C   0  0  0  0  0  0  0  0  0  0  0  0
   -3.8766   -0.4464    1.3259 S   0  0  0  0  0  0  0  0  0  0  0  0
   -3.2440   -1.8401    0.4547 C   0  0  0  0  0  0  0  0  0  0  0  0
   -4.0614   -2.9566    0.5613 C   0  0  0  0  0  0  0  0  0  0  0  0
   -3.9077   -4.1285   -0.1469 N   0  0  0  0  0  0  0  0  0  0  0  0
   -3.1885   -4.1551   -1.3498 C   0  0  0  0  0  0  0  0  0  0  0  0
   -2.4188   -5.2740   -1.6679 C   0  0  0  0  0  0  0  0  0  0  0  0
   -1.6394   -5.2810   -2.8038 C   0  0  0  0  0  0  0  0  0  0  0  0
   -1.5940   -4.1621   -3.6326 C   0  0  0  0  0  0  0  0  0  0  0  0
   -0.4362   -4.1691   -4.9715 S   0  0  0  0  0  0  0  0  0  0  0  0
   -0.0884   -2.3959   -5.1776 C   0  0  0  0  0  0  0  0  0  0  0  0
   -2.4273   -3.0841   -3.3705 C   0  0  0  0  0  0  0  0  0  0  0  0
   -3.2274   -3.0889   -2.2455 C   0  0  0  0  0  0  0  0  0  0  0  0
   -4.6096   -5.2950    0.2287 C   0  0  0  0  0  0  0  0  0  0  0  0
   -5.3361   -6.0008   -0.7251 C   0  0  0  0  0  0  0  0  0  0  0  0
   -6.0407   -7.1355   -0.3751 C   0  0  0  0  0  0  0  0  0  0  0  0
   -6.0334   -7.5819    0.9406 C   0  0  0  0  0  0  0  0  0  0  0  0
   -6.8923   -9.0172    1.4953 S   0  0  0  0  0  0  0  0  0  0  0  0
   -8.0740   -9.3489    0.1566 C   0  0  0  0  0  0  0  0  0  0  0  0
   -5.2929   -6.8886    1.8929 C   0  0  0  0  0  0  0  0  0  0  0  0
   -4.5896   -5.7571    1.5420 C   0  0  0  0  0  0  0  0  0  0  0  0
   -5.1297   -2.7089    1.4647 C   0  0  0  0  0  0  0  0  0  0  0  0
   -6.4491   -3.6646    2.0432 S   0  0  0  0  0  0  0  0  0  0  0  0
   -2.0110   -1.5928   -0.2411 C   0  0  0  0  0  0  0  0  0  0  0  0
   -0.7608   -2.1739   -0.1191 C   0  0  0  0  0  0  0  0  0  0  0  0
   -0.4314   -3.2718    0.6561 N   0  0  0  0  0  0  0  0  0  0  0  0
   -1.0895   -3.5171    1.8684 C   0  0  0  0  0  0  0  0  0  0  0  0
   -1.5227   -2.4671    2.6744 C   0  0  0  0  0  0  0  0  0  0  0  0
   -2.2411   -2.7136    3.8276 C   0  0  0  0  0  0  0  0  0  0  0  0
   -2.5201   -4.0176    4.2113 C   0  0  0  0  0  0  0  0  0  0  0  0
   -3.5075   -4.4414    5.6149 S   0  0  0  0  0  0  0  0  0  0  0  0
   -4.4203   -2.9099    5.9586 C   0  0  0  0  0  0  0  0  0  0  0  0
   -2.0081   -5.0719    3.4560 C   0  0  0  0  0  0  0  0  0  0  0  0
   -1.3133   -4.8267    2.2917 C   0  0  0  0  0  0  0  0  0  0  0  0
    0.6632   -4.0634    0.2763 C   0  0  0  0  0  0  0  0  0  0  0  0
    1.5499   -4.5689    1.2272 C   0  0  0  0  0  0  0  0  0  0  0  0
    2.6172   -5.3488    0.8362 C   0  0  0  0  0  0  0  0  0  0  0  0
    2.8250   -5.6378   -0.5089 C   0  0  0  0  0  0  0  0  0  0  0  0
    4.2075   -6.6518   -0.9476 S   0  0  0  0  0  0  0  0  0  0  0  0
    3.5318   -7.6015   -2.3470 C   0  0  0  0  0  0  0  0  0  0  0  0
    1.9627   -5.1167   -1.4619 C   0  0  0  0  0  0  0  0  0  0  0  0
    0.8928   -4.3394   -1.0699 C   0  0  0  0  0  0  0  0  0  0  0  0
    0.2086   -1.4308   -0.8432 C   0  0  0  0  0  0  0  0  0  0  0  0
    1.9193   -1.5662   -1.0244 S   0  0  0  0  0  0  0  0  0  0  0  0
    1.9731   -0.0370   -1.9086 C   0  0  0  0  0  0  0  0  0  0  0  0
    0.7093    0.4895   -2.1321 C   0  0  0  0  0  0  0  0  0  0  0  0
    0.3554    1.5964   -2.8883 N   0  0  0  0  0  0  0  0  0  0  0  0
   -0.7571    2.3092   -2.3838 C   0  0  0  0  0  0  0  0  0  0  0  0
   -0.7067    2.7861   -1.0747 C   0  0  0  0  0  0  0  0  0  0  0  0
   -1.7996    3.4089   -0.5166 C   0  0  0  0  0  0  0  0  0  0  0  0
   -2.9658    3.5761   -1.2583 C   0  0  0  0  0  0  0  0  0  0  0  0
   -4.3131    4.3815   -0.4493 S   0  0  0  0  0  0  0  0  0  0  0  0
   -5.7257    4.0928   -1.5486 C   0  0  0  0  0  0  0  0  0  0  0  0
   -3.0162    3.1206   -2.5686 C   0  0  0  0  0  0  0  0  0  0  0  0
   -1.9226    2.4829   -3.1230 C   0  0  0  0  0  0  0  0  0  0  0  0
    0.8500    1.8471   -4.1673 C   0  0  0  0  0  0  0  0  0  0  0  0
    0.5027    3.0303   -4.8267 C   0  0  0  0  0  0  0  0  0  0  0  0
    0.9732    3.2951   -6.0902 C   0  0  0  0  0  0  0  0  0  0  0  0
    1.8238    2.4005   -6.7343 C   0  0  0  0  0  0  0  0  0  0  0  0
    2.4009    2.8714   -8.3356 S   0  0  0  0  0  0  0  0  0  0  0  0
    3.7288    1.6810   -8.6776 C   0  0  0  0  0  0  0  0  0  0  0  0
    2.1608    1.2175   -6.0969 C   0  0  0  0  0  0  0  0  0  0  0  0
    1.6726    0.9423   -4.8331 C   0  0  0  0  0  0  0  0  0  0  0  0
   -0.2749   -0.3028   -1.4793 C   0  0  0  0  0  0  0  0  0  0  0  0
   -1.9715   -0.1256   -1.2206 S   0  0  0  0  0  0  0  0  0  0  0  0
    3.2880    0.4770   -2.1296 C   0  0  0  0  0  0  0  0  0  0  0  0
    3.7620    1.7749   -2.0816 C   0  0  0  0  0  0  0  0  0  0  0  0
    2.9732    2.9300   -1.9040 N   0  0  0  0  0  0  0  0  0  0  0  0
    2.7983    3.3318   -0.5614 C   0  0  0  0  0  0  0  0  0  0  0  0
    3.0465    4.6387   -0.1499 C   0  0  0  0  0  0  0  0  0  0  0  0
    2.7974    5.0228    1.1536 C   0  0  0  0  0  0  0  0  0  0  0  0
    2.3171    4.1212    2.0939 C   0  0  0  0  0  0  0  0  0  0  0  0
    2.0019    4.5390    3.4972 C   0  0  0  0  0  0  0  0  0  0  0  0
    2.1406    2.8016    1.6971 C   0  0  0  0  0  0  0  0  0  0  0  0
    2.3822    2.4064    0.3958 C   0  0  0  0  0  0  0  0  0  0  0  0
    2.9120    3.8613   -2.9475 C   0  0  0  0  0  0  0  0  0  0  0  0
    1.9920    4.9087   -2.8902 C   0  0  0  0  0  0  0  0  0  0  0  0
    1.9128    5.8323   -3.9128 C   0  0  0  0  0  0  0  0  0  0  0  0
    2.7212    5.7350   -5.0373 C   0  0  0  0  0  0  0  0  0  0  0  0
    2.6495    6.7399   -6.1460 C   0  0  0  0  0  0  0  0  0  0  0  0
    3.6000    4.6631   -5.1122 C   0  0  0  0  0  0  0  0  0  0  0  0
    3.6953    3.7374   -4.0933 C   0  0  0  0  0  0  0  0  0  0  0  0
    5.1740    1.8107   -2.1084 C   0  0  0  0  0  0  0  0  0  0  0  0
    6.3133    3.0962   -1.9341 S   0  0  0  0  0  0  0  0  0  0  0  0
    7.6423    1.9296   -1.9994 C   0  0  0  0  0  0  0  0  0  0  0  0
    7.1703    0.5855   -2.0525 C   0  0  0  0  0  0  0  0  0  0  0  0
    7.9409   -0.5354   -1.9684 N   0  0  0  0  0  0  0  0  0  0  0  0
    9.1259   -0.6090   -1.2089 C   0  0  0  0  0  0  0  0  0  0  0  0
   10.1817   -1.3954   -1.6613 C   0  0  0  0  0  0  0  0  0  0  0  0
   11.3457   -1.4772   -0.9233 C   0  0  0  0  0  0  0  0  0  0  0  0
   11.4917   -0.7773    0.2684 C   0  0  0  0  0  0  0  0  0  0  0  0
   12.7794   -0.8371    1.0293 C   0  0  0  0  0  0  0  0  0  0  0  0
   10.4209   -0.0149    0.7227 C   0  0  0  0  0  0  0  0  0  0  0  0
    9.2453    0.0647    0.0041 C   0  0  0  0  0  0  0  0  0  0  0  0
    7.4478   -1.7371   -2.5242 C   0  0  0  0  0  0  0  0  0  0  0  0
    6.9902   -1.7588   -3.8385 C   0  0  0  0  0  0  0  0  0  0  0  0
    6.5146   -2.9353   -4.3807 C   0  0  0  0  0  0  0  0  0  0  0  0
    6.4816   -4.1073   -3.6326 C   0  0  0  0  0  0  0  0  0  0  0  0
    5.9785   -5.3788   -4.2411 C   0  0  0  0  0  0  0  0  0  0  0  0
    6.9397   -4.0735   -2.3215 C   0  0  0  0  0  0  0  0  0  0  0  0
    7.4233   -2.9040   -1.7688 C   0  0  0  0  0  0  0  0  0  0  0  0
    5.7724    0.5574   -2.1650 C   0  0  0  0  0  0  0  0  0  0  0  0
    4.5853   -0.7056   -2.2273 S   0  0  0  0  0  0  0  0  0  0  0  0
    8.9862    2.2583   -2.0980 C   0  0  0  0  0  0  0  0  0  0  0  0
    9.6267    3.4794   -1.9974 C   0  0  0  0  0  0  0  0  0  0  0  0
    8.9997    4.7491   -1.6391 C   0  0  0  0  0  0  0  0  0  0  0  0
    7.8139    4.9781   -1.4804 O   0  0  0  0  0  0  0  0  0  0  0  0
   10.1070    5.7164   -1.4828 C   0  0  0  0  0  0  0  0  0  0  0  0
   10.0734    7.0582   -1.1408 C   0  0  0  0  0  0  0  0  0  0  0  0
    8.5899    7.8580   -0.8295 Cl  0  0  0  0  0  0  0  0  0  0  0  0
   11.2729    7.7612   -1.0528 C   0  0  0  0  0  0  0  0  0  0  0  0
   12.4636    7.1042   -1.3091 C   0  0  0  0  0  0  0  0  0  0  0  0
   14.0834    8.0810   -1.1803 Br  0  0  0  0  0  0  0  0  0  0  0  0
   12.5223    5.7582   -1.6579 C   0  0  0  0  0  0  0  0  0  0  0  0
   11.3283    5.0667   -1.7422 C   0  0  0  0  0  0  0  0  0  0  0  0
   11.0473    3.6718   -2.0966 C   0  0  0  0  0  0  0  0  0  0  0  0
   11.9953    2.7480   -2.4725 C   0  0  0  0  0  0  0  0  0  0  0  0
   13.3838    2.9829   -2.4548 C   0  0  0  0  0  0  0  0  0  0  0  0
   14.5268    3.0971   -2.4439 N   0  0  0  0  0  0  0  0  0  0  0  0
   11.7256    1.4535   -2.9545 C   0  0  0  0  0  0  0  0  0  0  0  0
   11.5953    0.3985   -3.3936 N   0  0  0  0  0  0  0  0  0  0  0  0
   -7.9360   -1.6009    4.7737 H   0  0  0  0  0  0  0  0  0  0  0  0
  -11.7549   -8.3116    4.8903 H   0  0  0  0  0  0  0  0  0  0  0  0
  -11.3889   -4.9071    7.4648 H   0  0  0  0  0  0  0  0  0  0  0  0
   -8.7670   -0.4512    2.0762 H   0  0  0  0  0  0  0  0  0  0  0  0
  -10.9970    0.2897    2.7089 H   0  0  0  0  0  0  0  0  0  0  0  0
  -12.9534    1.5426    2.8911 H   0  0  0  0  0  0  0  0  0  0  0  0
  -13.0037    0.0959    3.9526 H   0  0  0  0  0  0  0  0  0  0  0  0
  -14.0700    1.4808    4.2709 H   0  0  0  0  0  0  0  0  0  0  0  0
   -9.3597    2.3491    6.0846 H   0  0  0  0  0  0  0  0  0  0  0  0
   -7.1059    1.5885    5.4485 H   0  0  0  0  0  0  0  0  0  0  0  0
   -4.0973   -0.2333    4.4622 H   0  0  0  0  0  0  0  0  0  0  0  0
   -2.2580    1.4208    4.4478 H   0  0  0  0  0  0  0  0  0  0  0  0
   -3.4460    5.9186    3.5286 H   0  0  0  0  0  0  0  0  0  0  0  0
   -3.0462    5.4886    1.8332 H   0  0  0  0  0  0  0  0  0  0  0  0
   -1.8311    6.2685    2.8709 H   0  0  0  0  0  0  0  0  0  0  0  0
   -4.8219    4.2166    2.4687 H   0  0  0  0  0  0  0  0  0  0  0  0
   -6.6206    2.5709    2.4700 H   0  0  0  0  0  0  0  0  0  0  0  0
   -2.4202   -6.1255   -1.0046 H   0  0  0  0  0  0  0  0  0  0  0  0
   -1.0246   -6.1360   -3.0389 H   0  0  0  0  0  0  0  0  0  0  0  0
    0.0334   -1.9376   -4.2004 H   0  0  0  0  0  0  0  0  0  0  0  0
   -0.8827   -1.9105   -5.7373 H   0  0  0  0  0  0  0  0  0  0  0  0
    0.8394   -2.3346   -5.7373 H   0  0  0  0  0  0  0  0  0  0  0  0
   -2.4624   -2.2355   -4.0352 H   0  0  0  0  0  0  0  0  0  0  0  0
   -3.8924   -2.2580   -2.0662 H   0  0  0  0  0  0  0  0  0  0  0  0
   -5.3517   -5.6548   -1.7487 H   0  0  0  0  0  0  0  0  0  0  0  0
   -6.5960   -7.6588   -1.1368 H   0  0  0  0  0  0  0  0  0  0  0  0
   -8.6220   -8.4401   -0.0736 H   0  0  0  0  0  0  0  0  0  0  0  0
   -7.5587   -9.7334   -0.7190 H   0  0  0  0  0  0  0  0  0  0  0  0
   -8.7522  -10.1036    0.5428 H   0  0  0  0  0  0  0  0  0  0  0  0
   -5.2807   -7.2404    2.9127 H   0  0  0  0  0  0  0  0  0  0  0  0
   -4.0189   -5.2254    2.2845 H   0  0  0  0  0  0  0  0  0  0  0  0
   -1.2907   -1.4482    2.4029 H   0  0  0  0  0  0  0  0  0  0  0  0
   -2.5613   -1.8785    4.4285 H   0  0  0  0  0  0  0  0  0  0  0  0
   -4.8825   -2.5512    5.0432 H   0  0  0  0  0  0  0  0  0  0  0  0
   -5.1900   -3.1761    6.6764 H   0  0  0  0  0  0  0  0  0  0  0  0
   -3.7632   -2.1628    6.3947 H   0  0  0  0  0  0  0  0  0  0  0  0
   -2.1878   -6.0858    3.7796 H   0  0  0  0  0  0  0  0  0  0  0  0
   -0.9567   -5.6502    1.6919 H   0  0  0  0  0  0  0  0  0  0  0  0
    1.3969   -4.3485    2.2730 H   0  0  0  0  0  0  0  0  0  0  0  0
    3.3025   -5.7397    1.5722 H   0  0  0  0  0  0  0  0  0  0  0  0
    3.4888   -6.9898   -3.2427 H   0  0  0  0  0  0  0  0  0  0  0  0
    4.2106   -8.4340   -2.5025 H   0  0  0  0  0  0  0  0  0  0  0  0
    2.5458   -7.9694   -2.0811 H   0  0  0  0  0  0  0  0  0  0  0  0
    2.1141   -5.3072   -2.5123 H   0  0  0  0  0  0  0  0  0  0  0  0
    0.2207   -3.9458   -1.8140 H   0  0  0  0  0  0  0  0  0  0  0  0
    0.1913    2.6531   -0.4919 H   0  0  0  0  0  0  0  0  0  0  0  0
   -1.7548    3.7593    0.5021 H   0  0  0  0  0  0  0  0  0  0  0  0
   -5.6026    4.6481   -2.4741 H   0  0  0  0  0  0  0  0  0  0  0  0
   -6.5957    4.4616   -1.0142 H   0  0  0  0  0  0  0  0  0  0  0  0
   -5.8270    3.0276   -1.7344 H   0  0  0  0  0  0  0  0  0  0  0  0
   -3.9049    3.2407   -3.1672 H   0  0  0  0  0  0  0  0  0  0  0  0
   -1.9799    2.1053   -4.1331 H   0  0  0  0  0  0  0  0  0  0  0  0
   -0.1266    3.7555   -4.3379 H   0  0  0  0  0  0  0  0  0  0  0  0
    0.6956    4.2099   -6.5893 H   0  0  0  0  0  0  0  0  0  0  0  0
    4.2127    2.0314   -9.5839 H   0  0  0  0  0  0  0  0  0  0  0  0
    4.4375    1.6801   -7.8548 H   0  0  0  0  0  0  0  0  0  0  0  0
    3.3146    0.6905   -8.8434 H   0  0  0  0  0  0  0  0  0  0  0  0
    2.7998    0.4897   -6.5713 H   0  0  0  0  0  0  0  0  0  0  0  0
    1.9380    0.0032   -4.3742 H   0  0  0  0  0  0  0  0  0  0  0  0
    3.4429    5.3543   -0.8536 H   0  0  0  0  0  0  0  0  0  0  0  0
    2.9894    6.0459    1.4436 H   0  0  0  0  0  0  0  0  0  0  0  0
    2.5773    3.9498    4.2100 H   0  0  0  0  0  0  0  0  0  0  0  0
    0.9449    4.3760    3.7085 H   0  0  0  0  0  0  0  0  0  0  0  0
    2.2308    5.5903    3.6508 H   0  0  0  0  0  0  0  0  0  0  0  0
    1.7973    2.0715    2.4161 H   0  0  0  0  0  0  0  0  0  0  0  0
    2.2436    1.3712    0.1241 H   0  0  0  0  0  0  0  0  0  0  0  0
    1.3304    4.9912   -2.0402 H   0  0  0  0  0  0  0  0  0  0  0  0
    1.1974    6.6393   -3.8369 H   0  0  0  0  0  0  0  0  0  0  0  0
    2.6556    6.2418   -7.1140 H   0  0  0  0  0  0  0  0  0  0  0  0
    3.5126    7.4051   -6.1082 H   0  0  0  0  0  0  0  0  0  0  0  0
    1.7498    7.3453   -6.0656 H   0  0  0  0  0  0  0  0  0  0  0  0
    4.2250    4.5518   -5.9865 H   0  0  0  0  0  0  0  0  0  0  0  0
    4.3803    2.9108   -4.2002 H   0  0  0  0  0  0  0  0  0  0  0  0
   10.0896   -1.9271   -2.5951 H   0  0  0  0  0  0  0  0  0  0  0  0
   12.1625   -2.0795   -1.2907 H   0  0  0  0  0  0  0  0  0  0  0  0
   13.5464   -0.2651    0.5065 H   0  0  0  0  0  0  0  0  0  0  0  0
   13.1307   -1.8639    1.1103 H   0  0  0  0  0  0  0  0  0  0  0  0
   12.6643   -0.4235    2.0279 H   0  0  0  0  0  0  0  0  0  0  0  0
   10.5040    0.5190    1.6584 H   0  0  0  0  0  0  0  0  0  0  0  0
    8.4194    0.6537    0.3756 H   0  0  0  0  0  0  0  0  0  0  0  0
    7.0222   -0.8541   -4.4282 H   0  0  0  0  0  0  0  0  0  0  0  0
    6.1692   -2.9477   -5.4044 H   0  0  0  0  0  0  0  0  0  0  0  0
    5.9122   -6.1614   -3.4907 H   0  0  0  0  0  0  0  0  0  0  0  0
    6.6532   -5.7115   -5.0297 H   0  0  0  0  0  0  0  0  0  0  0  0
    4.9975   -5.2257   -4.6885 H   0  0  0  0  0  0  0  0  0  0  0  0
    6.9081   -4.9706   -1.7214 H   0  0  0  0  0  0  0  0  0  0  0  0
    7.7763   -2.8854   -0.7485 H   0  0  0  0  0  0  0  0  0  0  0  0
    9.6347    1.4096   -2.2721 H   0  0  0  0  0  0  0  0  0  0  0  0
   11.2678    8.8063   -0.7876 H   0  0  0  0  0  0  0  0  0  0  0  0
   13.4742    5.2911   -1.8498 H   0  0  0  0  0  0  0  0  0  0  0  0
  1  2  2  0  0  0  0
  2  3  1  0  0  0  0
  3  4  2  0  0  0  0
  3  5  1  0  0  0  0
  5  6  2  0  0  0  0
  6  7  1  0  0  0  0
  6  8  1  0  0  0  0
  8  9  2  0  0  0  0
  9 10  1  0  0  0  0
  9 11  1  0  0  0  0
 11 12  2  0  0  0  0
 12 13  1  0  0  0  0
 13 14  2  0  0  0  0
 14 15  1  0  0  0  0
 15 16  3  0  0  0  0
 14 17  1  0  0  0  0
 17 18  3  0  0  0  0
  1 19  1  0  0  0  0
 19 20  2  0  0  0  0
 20 21  1  0  0  0  0
 21 22  1  0  0  0  0
 22 23  2  0  0  0  0
 23 24  1  0  0  0  0
 24 25  2  0  0  0  0
 25 26  1  0  0  0  0
 26 27  1  0  0  0  0
 25 28  1  0  0  0  0
 28 29  2  0  0  0  0
 21 30  1  0  0  0  0
 30 31  2  0  0  0  0
 31 32  1  0  0  0  0
 32 33  2  0  0  0  0
 33 34  1  0  0  0  0
 34 35  1  0  0  0  0
 33 36  1  0  0  0  0
 36 37  2  0  0  0  0
 20 38  1  0  0  0  0
 38 39  1  0  0  0  0
 39 40  1  0  0  0  0
 40 41  2  0  0  0  0
 41 42  1  0  0  0  0
 42 43  1  0  0  0  0
 43 44  2  0  0  0  0
 44 45  1  0  0  0  0
 45 46  2  0  0  0  0
 46 47  1  0  0  0  0
 47 48  1  0  0  0  0
 46 49  1  0  0  0  0
 49 50  2  0  0  0  0
 42 51  1  0  0  0  0
 51 52  2  0  0  0  0
 52 53  1  0  0  0  0
 53 54  2  0  0  0  0
 54 55  1  0  0  0  0
 55 56  1  0  0  0  0
 54 57  1  0  0  0  0
 57 58  2  0  0  0  0
 41 59  1  0  0  0  0
 59 60  1  0  0  0  0
 40 61  1  0  0  0  0
 61 62  2  0  0  0  0
 62 63  1  0  0  0  0
 63 64  1  0  0  0  0
 64 65  2  0  0  0  0
 65 66  1  0  0  0  0
 66 67  2  0  0  0  0
 67 68  1  0  0  0  0
 68 69  1  0  0  0  0
 67 70  1  0  0  0  0
 70 71  2  0  0  0  0
 63 72  1  0  0  0  0
 72 73  2  0  0  0  0
 73 74  1  0  0  0  0
 74 75  2  0  0  0  0
 75 76  1  0  0  0  0
 76 77  1  0  0  0  0
 75 78  1  0  0  0  0
 78 79  2  0  0  0  0
 62 80  1  0  0  0  0
 80 81  1  0  0  0  0
 81 82  1  0  0  0  0
 82 83  2  0  0  0  0
 83 84  1  0  0  0  0
 84 85  1  0  0  0  0
 85 86  2  0  0  0  0
 86 87  1  0  0  0  0
 87 88  2  0  0  0  0
 88 89  1  0  0  0  0
 89 90  1  0  0  0  0
 88 91  1  0  0  0  0
 91 92  2  0  0  0  0
 84 93  1  0  0  0  0
 93 94  2  0  0  0  0
 94 95  1  0  0  0  0
 95 96  2  0  0  0  0
 96 97  1  0  0  0  0
 97 98  1  0  0  0  0
 96 99  1  0  0  0  0
 99100  2  0  0  0  0
 83101  1  0  0  0  0
101102  1  0  0  0  0
 82103  1  0  0  0  0
103104  2  0  0  0  0
104105  1  0  0  0  0
105106  1  0  0  0  0
106107  2  0  0  0  0
107108  1  0  0  0  0
108109  2  0  0  0  0
109110  1  0  0  0  0
109111  1  0  0  0  0
111112  2  0  0  0  0
105113  1  0  0  0  0
113114  2  0  0  0  0
114115  1  0  0  0  0
115116  2  0  0  0  0
116117  1  0  0  0  0
116118  1  0  0  0  0
118119  2  0  0  0  0
104120  1  0  0  0  0
120121  1  0  0  0  0
121122  1  0  0  0  0
122123  2  0  0  0  0
123124  1  0  0  0  0
124125  1  0  0  0  0
125126  2  0  0  0  0
126127  1  0  0  0  0
127128  2  0  0  0  0
128129  1  0  0  0  0
128130  1  0  0  0  0
130131  2  0  0  0  0
124132  1  0  0  0  0
132133  2  0  0  0  0
133134  1  0  0  0  0
134135  2  0  0  0  0
135136  1  0  0  0  0
135137  1  0  0  0  0
137138  2  0  0  0  0
123139  1  0  0  0  0
139140  1  0  0  0  0
122141  1  0  0  0  0
141142  2  0  0  0  0
142143  1  0  0  0  0
143144  2  0  0  0  0
143145  1  0  0  0  0
145146  2  0  0  0  0
146147  1  0  0  0  0
146148  1  0  0  0  0
148149  2  0  0  0  0
149150  1  0  0  0  0
149151  1  0  0  0  0
151152  2  0  0  0  0
152153  1  0  0  0  0
153154  2  0  0  0  0
154155  1  0  0  0  0
155156  3  0  0  0  0
154157  1  0  0  0  0
157158  3  0  0  0  0
 13  2  1  0  0  0  0
 60 19  1  0  0  0  0
102 61  1  0  0  0  0
140103  1  0  0  0  0
153142  1  0  0  0  0
 12  5  1  0  0  0  0
 29 22  1  0  0  0  0
 37 30  1  0  0  0  0
 59 38  2  0  0  0  0
 71 64  1  0  0  0  0
 79 72  1  0  0  0  0
101 80  2  0  0  0  0
112106  1  0  0  0  0
119113  1  0  0  0  0
139120  2  0  0  0  0
152145  1  0  0  0  0
 50 43  1  0  0  0  0
 58 51  1  0  0  0  0
 92 85  1  0  0  0  0
100 93  1  0  0  0  0
131125  1  0  0  0  0
138132  1  0  0  0  0
  1159  1  0  0  0  0
  8160  1  0  0  0  0
 11161  1  0  0  0  0
 23162  1  0  0  0  0
 24163  1  0  0  0  0
 27164  1  0  0  0  0
 27165  1  0  0  0  0
 27166  1  0  0  0  0
 28167  1  0  0  0  0
 29168  1  0  0  0  0
 31169  1  0  0  0  0
 32170  1  0  0  0  0
 35171  1  0  0  0  0
 35172  1  0  0  0  0
 35173  1  0  0  0  0
 36174  1  0  0  0  0
 37175  1  0  0  0  0
 44176  1  0  0  0  0
 45177  1  0  0  0  0
 48178  1  0  0  0  0
 48179  1  0  0  0  0
 48180  1  0  0  0  0
 49181  1  0  0  0  0
 50182  1  0  0  0  0
 52183  1  0  0  0  0
 53184  1  0  0  0  0
 56185  1  0  0  0  0
 56186  1  0  0  0  0
 56187  1  0  0  0  0
 57188  1  0  0  0  0
 58189  1  0  0  0  0
 65190  1  0  0  0  0
 66191  1  0  0  0  0
 69192  1  0  0  0  0
 69193  1  0  0  0  0
 69194  1  0  0  0  0
 70195  1  0  0  0  0
 71196  1  0  0  0  0
 73197  1  0  0  0  0
 74198  1  0  0  0  0
 77199  1  0  0  0  0
 77200  1  0  0  0  0
 77201  1  0  0  0  0
 78202  1  0  0  0  0
 79203  1  0  0  0  0
 86204  1  0  0  0  0
 87205  1  0  0  0  0
 90206  1  0  0  0  0
 90207  1  0  0  0  0
 90208  1  0  0  0  0
 91209  1  0  0  0  0
 92210  1  0  0  0  0
 94211  1  0  0  0  0
 95212  1  0  0  0  0
 98213  1  0  0  0  0
 98214  1  0  0  0  0
 98215  1  0  0  0  0
 99216  1  0  0  0  0
100217  1  0  0  0  0
107218  1  0  0  0  0
108219  1  0  0  0  0
110220  1  0  0  0  0
110221  1  0  0  0  0
110222  1  0  0  0  0
111223  1  0  0  0  0
112224  1  0  0  0  0
114225  1  0  0  0  0
115226  1  0  0  0  0
117227  1  0  0  0  0
117228  1  0  0  0  0
117229  1  0  0  0  0
118230  1  0  0  0  0
119231  1  0  0  0  0
126232  1  0  0  0  0
127233  1  0  0  0  0
129234  1  0  0  0  0
129235  1  0  0  0  0
129236  1  0  0  0  0
130237  1  0  0  0  0
131238  1  0  0  0  0
133239  1  0  0  0  0
134240  1  0  0  0  0
136241  1  0  0  0  0
136242  1  0  0  0  0
136243  1  0  0  0  0
137244  1  0  0  0  0
138245  1  0  0  0  0
141246  1  0  0  0  0
148247  1  0  0  0  0
151248  1  0  0  0  0
M  END
