
  xtb     02032218563D
 energy: -275.415341499211 gnorm: 0.000218236326 xtb: 6.4.1 (unknown)
143156  0     0  0            999 V2000
   -1.6685    6.5071    7.7857 C   0  0  0  0  0  0  0  0  0  0  0  0
   -0.8409    7.5547    8.0236 C   0  0  0  0  0  0  0  0  0  0  0  0
   -1.3745    8.7254    8.7771 C   0  0  0  0  0  0  0  0  0  0  0  0
   -2.4142    8.7784    9.3875 O   0  0  0  0  0  0  0  0  0  0  0  0
   -0.3850    9.8027    8.5628 C   0  0  0  0  0  0  0  0  0  0  0  0
   -0.4354   11.1389    8.9349 C   0  0  0  0  0  0  0  0  0  0  0  0
   -1.7733   11.7670    9.7985 Cl  0  0  0  0  0  0  0  0  0  0  0  0
    0.6237   11.9743    8.5883 C   0  0  0  0  0  0  0  0  0  0  0  0
    1.7041   11.4522    7.8966 C   0  0  0  0  0  0  0  0  0  0  0  0
    3.1244   12.6119    7.4171 Br  0  0  0  0  0  0  0  0  0  0  0  0
    1.7856   10.1132    7.5293 C   0  0  0  0  0  0  0  0  0  0  0  0
    0.7225    9.2907    7.8589 C   0  0  0  0  0  0  0  0  0  0  0  0
    0.5098    7.8623    7.6137 C   0  0  0  0  0  0  0  0  0  0  0  0
    1.4770    6.9679    7.2451 C   0  0  0  0  0  0  0  0  0  0  0  0
    1.3050    5.5681    7.2686 C   0  0  0  0  0  0  0  0  0  0  0  0
    1.2404    4.4237    7.3130 N   0  0  0  0  0  0  0  0  0  0  0  0
    2.7778    7.3298    6.8395 C   0  0  0  0  0  0  0  0  0  0  0  0
    3.8324    7.5781    6.4606 N   0  0  0  0  0  0  0  0  0  0  0  0
   -1.5757    5.4382    6.8362 C   0  0  0  0  0  0  0  0  0  0  0  0
   -2.2144    4.2295    7.1019 C   0  0  0  0  0  0  0  0  0  0  0  0
   -2.8433    4.0860    8.2801 F   0  0  0  0  0  0  0  0  0  0  0  0
   -2.2014    3.1394    6.2445 C   0  0  0  0  0  0  0  0  0  0  0  0
   -1.5497    3.2236    5.0303 C   0  0  0  0  0  0  0  0  0  0  0  0
   -0.9532    4.4573    4.6641 C   0  0  0  0  0  0  0  0  0  0  0  0
   -0.4308    4.5867    3.4243 N   0  0  0  0  0  0  0  0  0  0  0  0
    0.0779    5.7249    3.0821 C   0  0  0  0  0  0  0  0  0  0  0  0
    0.0650    6.8423    3.9698 C   0  0  0  0  0  0  0  0  0  0  0  0
    0.5456    7.9875    3.5076 O   0  0  0  0  0  0  0  0  0  0  0  0
    0.5063    9.1311    4.3569 C   0  0  0  0  0  0  0  0  0  0  0  0
    0.5609   10.3773    3.4919 C   0  0  0  0  0  0  0  0  0  0  0  0
   -0.4416    6.7482    5.1774 N   0  0  0  0  0  0  0  0  0  0  0  0
   -0.9571    5.5590    5.5573 C   0  0  0  0  0  0  0  0  0  0  0  0
   -1.4930    2.0991    4.1060 C   0  0  0  0  0  0  0  0  0  0  0  0
   -0.2878    1.7225    3.4834 C   0  0  0  0  0  0  0  0  0  0  0  0
    0.9698    2.1605    3.6442 N   0  0  0  0  0  0  0  0  0  0  0  0
    1.6688    1.4395    2.8209 N   0  0  0  0  0  0  0  0  0  0  0  0
    3.0927    1.5861    2.7164 C   0  0  0  0  0  0  0  0  0  0  0  0
    3.7989    0.4756    3.4873 C   0  0  0  0  0  0  0  0  0  0  0  0
    1.0255    0.5493    2.1176 N   0  0  0  0  0  0  0  0  0  0  0  0
   -0.2512    0.6798    2.5096 C   0  0  0  0  0  0  0  0  0  0  0  0
   -1.4329    0.0220    2.1026 C   0  0  0  0  0  0  0  0  0  0  0  0
   -2.5926    0.3895    2.7653 C   0  0  0  0  0  0  0  0  0  0  0  0
   -2.6181    1.3783    3.7509 C   0  0  0  0  0  0  0  0  0  0  0  0
   -1.4196   -0.9094    1.0071 C   0  0  0  0  0  0  0  0  0  0  0  0
   -0.3307   -1.4862    0.4277 C   0  0  0  0  0  0  0  0  0  0  0  0
   -0.6359   -2.2534   -0.7253 C   0  0  0  0  0  0  0  0  0  0  0  0
    0.2463   -2.9690   -1.5508 C   0  0  0  0  0  0  0  0  0  0  0  0
    1.6874   -3.0283   -1.2743 C   0  0  0  0  0  0  0  0  0  0  0  0
    2.3487   -4.2528   -1.2443 C   0  0  0  0  0  0  0  0  0  0  0  0
    3.6998   -4.3384   -0.9756 C   0  0  0  0  0  0  0  0  0  0  0  0
    4.4469   -3.1878   -0.7314 C   0  0  0  0  0  0  0  0  0  0  0  0
    5.7676   -3.1341   -0.4773 O   0  0  0  0  0  0  0  0  0  0  0  0
    6.5233   -4.3253   -0.3395 C   0  0  0  0  0  0  0  0  0  0  0  0
    6.3197   -4.9862    1.0194 C   0  0  0  0  0  0  0  0  0  0  0  0
    3.7787   -1.9511   -0.7693 C   0  0  0  0  0  0  0  0  0  0  0  0
    4.5836   -0.7117   -0.5102 C   0  0  0  0  0  0  0  0  0  0  0  0
    3.8408    0.4100   -0.5492 F   0  0  0  0  0  0  0  0  0  0  0  0
    5.1629   -0.7135    0.7053 F   0  0  0  0  0  0  0  0  0  0  0  0
    5.5715   -0.5281   -1.3996 F   0  0  0  0  0  0  0  0  0  0  0  0
    2.4244   -1.8723   -1.0370 C   0  0  0  0  0  0  0  0  0  0  0  0
   -0.3117   -3.6164   -2.6438 C   0  0  0  0  0  0  0  0  0  0  0  0
   -1.6967   -3.5921   -2.9369 C   0  0  0  0  0  0  0  0  0  0  0  0
   -2.5858   -2.9171   -2.0856 C   0  0  0  0  0  0  0  0  0  0  0  0
   -4.0320   -2.9088   -2.3410 C   0  0  0  0  0  0  0  0  0  0  0  0
   -4.7535   -1.7191   -2.3617 C   0  0  0  0  0  0  0  0  0  0  0  0
   -6.1135   -1.7053   -2.5981 C   0  0  0  0  0  0  0  0  0  0  0  0
   -6.8076   -2.8936   -2.8193 C   0  0  0  0  0  0  0  0  0  0  0  0
   -8.1297   -3.0150   -3.0365 O   0  0  0  0  0  0  0  0  0  0  0  0
   -8.9476   -1.8649   -3.1644 C   0  0  0  0  0  0  0  0  0  0  0  0
   -8.8046   -1.2017   -4.5298 C   0  0  0  0  0  0  0  0  0  0  0  0
   -6.0766   -4.0946   -2.7978 C   0  0  0  0  0  0  0  0  0  0  0  0
   -4.7147   -4.1008   -2.5617 C   0  0  0  0  0  0  0  0  0  0  0  0
   -6.8177   -5.3777   -3.0420 C   0  0  0  0  0  0  0  0  0  0  0  0
   -7.4208   -5.4025   -4.2440 F   0  0  0  0  0  0  0  0  0  0  0  0
   -6.0096   -6.4518   -3.0161 F   0  0  0  0  0  0  0  0  0  0  0  0
   -7.7749   -5.6125   -2.1306 F   0  0  0  0  0  0  0  0  0  0  0  0
   -2.0264   -2.2500   -1.0067 C   0  0  0  0  0  0  0  0  0  0  0  0
   -2.9079   -1.3249    0.1777 S   0  0  0  0  0  0  0  0  0  0  0  0
   -1.9876   -4.2335   -4.1714 C   0  0  0  0  0  0  0  0  0  0  0  0
   -0.8913   -4.7305   -4.8039 C   0  0  0  0  0  0  0  0  0  0  0  0
    0.5756   -4.4719   -3.8773 S   0  0  0  0  0  0  0  0  0  0  0  0
   -0.8146   -5.4338   -6.0713 C   0  0  0  0  0  0  0  0  0  0  0  0
    0.0073   -6.5416   -6.1778 C   0  0  0  0  0  0  0  0  0  0  0  0
    0.0694   -7.2901   -7.3479 C   0  0  0  0  0  0  0  0  0  0  0  0
   -0.6953   -6.9386   -8.4420 C   0  0  0  0  0  0  0  0  0  0  0  0
   -0.6318   -7.7570   -9.6637 C   0  0  0  0  0  0  0  0  0  0  0  0
    0.0674   -8.7459   -9.7537 O   0  0  0  0  0  0  0  0  0  0  0  0
   -1.4205   -7.3449  -10.7247 N   0  0  0  0  0  0  0  0  0  0  0  0
   -1.3623   -8.1430  -11.9456 C   0  0  0  0  0  0  0  0  0  0  0  0
   -0.2691   -7.6373  -12.8781 C   0  0  0  0  0  0  0  0  0  0  0  0
   -2.2221   -6.2170  -10.7498 C   0  0  0  0  0  0  0  0  0  0  0  0
   -2.8573   -5.9261  -11.7429 O   0  0  0  0  0  0  0  0  0  0  0  0
   -2.2599   -5.4067   -9.5192 C   0  0  0  0  0  0  0  0  0  0  0  0
   -3.0249   -4.2603   -9.4910 C   0  0  0  0  0  0  0  0  0  0  0  0
   -3.0354   -3.4558   -8.3508 C   0  0  0  0  0  0  0  0  0  0  0  0
   -2.3197   -3.8142   -7.2370 C   0  0  0  0  0  0  0  0  0  0  0  0
   -1.5663   -5.0055   -7.2057 C   0  0  0  0  0  0  0  0  0  0  0  0
   -1.5106   -5.7904   -8.3875 C   0  0  0  0  0  0  0  0  0  0  0  0
   -2.5801    6.5151    8.3789 H   0  0  0  0  0  0  0  0  0  0  0  0
    0.5992   13.0172    8.8608 H   0  0  0  0  0  0  0  0  0  0  0  0
    2.6557    9.7527    7.0054 H   0  0  0  0  0  0  0  0  0  0  0  0
   -2.6773    2.2230    6.5571 H   0  0  0  0  0  0  0  0  0  0  0  0
    0.4863    5.8260    2.0874 H   0  0  0  0  0  0  0  0  0  0  0  0
   -0.4063    9.1001    4.9623 H   0  0  0  0  0  0  0  0  0  0  0  0
    1.3731    9.0902    5.0254 H   0  0  0  0  0  0  0  0  0  0  0  0
    0.5637   11.2599    4.1249 H   0  0  0  0  0  0  0  0  0  0  0  0
    1.4634   10.3707    2.8874 H   0  0  0  0  0  0  0  0  0  0  0  0
   -0.3009   10.4165    2.8311 H   0  0  0  0  0  0  0  0  0  0  0  0
    3.3439    2.5647    3.1275 H   0  0  0  0  0  0  0  0  0  0  0  0
    3.3596    1.5402    1.6591 H   0  0  0  0  0  0  0  0  0  0  0  0
    3.4954   -0.4955    3.1043 H   0  0  0  0  0  0  0  0  0  0  0  0
    4.8733    0.5722    3.3662 H   0  0  0  0  0  0  0  0  0  0  0  0
    3.5539    0.5338    4.5451 H   0  0  0  0  0  0  0  0  0  0  0  0
   -3.5187   -0.0966    2.4935 H   0  0  0  0  0  0  0  0  0  0  0  0
   -3.5650    1.6292    4.2058 H   0  0  0  0  0  0  0  0  0  0  0  0
    0.6583   -1.3518    0.8227 H   0  0  0  0  0  0  0  0  0  0  0  0
    1.7908   -5.1614   -1.4143 H   0  0  0  0  0  0  0  0  0  0  0  0
    4.1661   -5.3098   -0.9590 H   0  0  0  0  0  0  0  0  0  0  0  0
    6.3002   -5.0196   -1.1577 H   0  0  0  0  0  0  0  0  0  0  0  0
    7.5594   -3.9929   -0.4406 H   0  0  0  0  0  0  0  0  0  0  0  0
    6.9709   -5.8513    1.1049 H   0  0  0  0  0  0  0  0  0  0  0  0
    6.5637   -4.2805    1.8093 H   0  0  0  0  0  0  0  0  0  0  0  0
    5.2887   -5.3059    1.1508 H   0  0  0  0  0  0  0  0  0  0  0  0
    1.9463   -0.9062   -1.0798 H   0  0  0  0  0  0  0  0  0  0  0  0
   -4.2394   -0.7827   -2.2077 H   0  0  0  0  0  0  0  0  0  0  0  0
   -6.6295   -0.7592   -2.6052 H   0  0  0  0  0  0  0  0  0  0  0  0
   -8.7445   -1.1559   -2.3533 H   0  0  0  0  0  0  0  0  0  0  0  0
   -9.9630   -2.2497   -3.0419 H   0  0  0  0  0  0  0  0  0  0  0  0
   -9.0162   -1.9268   -5.3113 H   0  0  0  0  0  0  0  0  0  0  0  0
   -9.5091   -0.3788   -4.6107 H   0  0  0  0  0  0  0  0  0  0  0  0
   -7.7972   -0.8201   -4.6786 H   0  0  0  0  0  0  0  0  0  0  0  0
   -4.1851   -5.0407   -2.5281 H   0  0  0  0  0  0  0  0  0  0  0  0
   -2.9855   -4.3322   -4.5589 H   0  0  0  0  0  0  0  0  0  0  0  0
    0.5945   -6.8428   -5.3226 H   0  0  0  0  0  0  0  0  0  0  0  0
    0.7026   -8.1616   -7.4145 H   0  0  0  0  0  0  0  0  0  0  0  0
   -2.3377   -8.0696  -12.4296 H   0  0  0  0  0  0  0  0  0  0  0  0
   -1.1633   -9.1746  -11.6506 H   0  0  0  0  0  0  0  0  0  0  0  0
    0.6998   -7.6978  -12.3877 H   0  0  0  0  0  0  0  0  0  0  0  0
   -0.4641   -6.6049  -13.1590 H   0  0  0  0  0  0  0  0  0  0  0  0
   -0.2447   -8.2459  -13.7775 H   0  0  0  0  0  0  0  0  0  0  0  0
   -3.5902   -3.9905  -10.3702 H   0  0  0  0  0  0  0  0  0  0  0  0
   -3.6053   -2.5389   -8.3527 H   0  0  0  0  0  0  0  0  0  0  0  0
   -2.3109   -3.1623   -6.3775 H   0  0  0  0  0  0  0  0  0  0  0  0
  1  2  2  0  0  0  0
  2  3  1  0  0  0  0
  3  4  2  0  0  0  0
  3  5  1  0  0  0  0
  5  6  2  0  0  0  0
  6  7  1  0  0  0  0
  6  8  1  0  0  0  0
  8  9  2  0  0  0  0
  9 10  1  0  0  0  0
  9 11  1  0  0  0  0
 11 12  2  0  0  0  0
 12 13  1  0  0  0  0
 13 14  2  0  0  0  0
 14 15  1  0  0  0  0
 15 16  3  0  0  0  0
 14 17  1  0  0  0  0
 17 18  3  0  0  0  0
  1 19  1  0  0  0  0
 19 20  2  0  0  0  0
 20 21  1  0  0  0  0
 20 22  1  0  0  0  0
 22 23  2  0  0  0  0
 23 24  1  0  0  0  0
 24 25  2  0  0  0  0
 25 26  1  0  0  0  0
 26 27  2  0  0  0  0
 27 28  1  0  0  0  0
 28 29  1  0  0  0  0
 29 30  1  0  0  0  0
 27 31  1  0  0  0  0
 31 32  2  0  0  0  0
 23 33  1  0  0  0  0
 33 34  1  0  0  0  0
 34 35  2  0  0  0  0
 35 36  1  0  0  0  0
 36 37  1  0  0  0  0
 37 38  1  0  0  0  0
 36 39  1  0  0  0  0
 39 40  2  0  0  0  0
 40 41  1  0  0  0  0
 41 42  2  0  0  0  0
 42 43  1  0  0  0  0
 41 44  1  0  0  0  0
 44 45  2  0  0  0  0
 45 46  1  0  0  0  0
 46 47  2  0  0  0  0
 47 48  1  0  0  0  0
 48 49  2  0  0  0  0
 49 50  1  0  0  0  0
 50 51  2  0  0  0  0
 51 52  1  0  0  0  0
 52 53  1  0  0  0  0
 53 54  1  0  0  0  0
 51 55  1  0  0  0  0
 55 56  1  0  0  0  0
 56 57  1  0  0  0  0
 56 58  1  0  0  0  0
 56 59  1  0  0  0  0
 55 60  2  0  0  0  0
 47 61  1  0  0  0  0
 61 62  2  0  0  0  0
 62 63  1  0  0  0  0
 63 64  1  0  0  0  0
 64 65  2  0  0  0  0
 65 66  1  0  0  0  0
 66 67  2  0  0  0  0
 67 68  1  0  0  0  0
 68 69  1  0  0  0  0
 69 70  1  0  0  0  0
 67 71  1  0  0  0  0
 71 72  2  0  0  0  0
 71 73  1  0  0  0  0
 73 74  1  0  0  0  0
 73 75  1  0  0  0  0
 73 76  1  0  0  0  0
 63 77  2  0  0  0  0
 77 78  1  0  0  0  0
 62 79  1  0  0  0  0
 79 80  2  0  0  0  0
 80 81  1  0  0  0  0
 80 82  1  0  0  0  0
 82 83  2  0  0  0  0
 83 84  1  0  0  0  0
 84 85  2  0  0  0  0
 85 86  1  0  0  0  0
 86 87  2  0  0  0  0
 86 88  1  0  0  0  0
 88 89  1  0  0  0  0
 89 90  1  0  0  0  0
 88 91  1  0  0  0  0
 91 92  2  0  0  0  0
 91 93  1  0  0  0  0
 93 94  1  0  0  0  0
 94 95  2  0  0  0  0
 95 96  1  0  0  0  0
 96 97  2  0  0  0  0
 97 98  1  0  0  0  0
 13  2  1  0  0  0  0
 32 19  1  0  0  0  0
 43 33  2  0  0  0  0
 78 44  1  0  0  0  0
 97 82  1  0  0  0  0
 12  5  1  0  0  0  0
 32 24  1  0  0  0  0
 40 34  1  0  0  0  0
 77 46  1  0  0  0  0
 98 85  1  0  0  0  0
 60 48  1  0  0  0  0
 81 61  1  0  0  0  0
 98 93  2  0  0  0  0
 72 64  1  0  0  0  0
  1 99  1  0  0  0  0
  8100  1  0  0  0  0
 11101  1  0  0  0  0
 22102  1  0  0  0  0
 26103  1  0  0  0  0
 29104  1  0  0  0  0
 29105  1  0  0  0  0
 30106  1  0  0  0  0
 30107  1  0  0  0  0
 30108  1  0  0  0  0
 37109  1  0  0  0  0
 37110  1  0  0  0  0
 38111  1  0  0  0  0
 38112  1  0  0  0  0
 38113  1  0  0  0  0
 42114  1  0  0  0  0
 43115  1  0  0  0  0
 45116  1  0  0  0  0
 49117  1  0  0  0  0
 50118  1  0  0  0  0
 53119  1  0  0  0  0
 53120  1  0  0  0  0
 54121  1  0  0  0  0
 54122  1  0  0  0  0
 54123  1  0  0  0  0
 60124  1  0  0  0  0
 65125  1  0  0  0  0
 66126  1  0  0  0  0
 69127  1  0  0  0  0
 69128  1  0  0  0  0
 70129  1  0  0  0  0
 70130  1  0  0  0  0
 70131  1  0  0  0  0
 72132  1  0  0  0  0
 79133  1  0  0  0  0
 83134  1  0  0  0  0
 84135  1  0  0  0  0
 89136  1  0  0  0  0
 89137  1  0  0  0  0
 90138  1  0  0  0  0
 90139  1  0  0  0  0
 90140  1  0  0  0  0
 94141  1  0  0  0  0
 95142  1  0  0  0  0
 96143  1  0  0  0  0
M  END
