143

C         -1.66850        6.50710        7.78570
C         -0.84090        7.55470        8.02360
C         -1.37450        8.72540        8.77710
O         -2.41420        8.77840        9.38750
C         -0.38500        9.80270        8.56280
C         -0.43540       11.13890        8.93490
Cl        -1.77330       11.76700        9.79850
C          0.62370       11.97430        8.58830
C          1.70410       11.45220        7.89660
Br         3.12440       12.61190        7.41710
C          1.78560       10.11320        7.52930
C          0.72250        9.29070        7.85890
C          0.50980        7.86230        7.61370
C          1.47700        6.96790        7.24510
C          1.30500        5.56810        7.26860
N          1.24040        4.42370        7.31300
C          2.77780        7.32980        6.83950
N          3.83240        7.57810        6.46060
C         -1.57570        5.43820        6.83620
C         -2.21440        4.22950        7.10190
F         -2.84330        4.08600        8.28010
C         -2.20140        3.13940        6.24450
C         -1.54970        3.22360        5.03030
C         -0.95320        4.45730        4.66410
N         -0.43080        4.58670        3.42430
C          0.07790        5.72490        3.08210
C          0.06500        6.84230        3.96980
O          0.54560        7.98750        3.50760
C          0.50630        9.13110        4.35690
C          0.56090       10.37730        3.49190
N         -0.44160        6.74820        5.17740
C         -0.95710        5.55900        5.55730
C         -1.49300        2.09910        4.10600
C         -0.28780        1.72250        3.48340
N          0.96980        2.16050        3.64420
N          1.66880        1.43950        2.82090
C          3.09270        1.58610        2.71640
C          3.79890        0.47560        3.48730
N          1.02550        0.54930        2.11760
C         -0.25120        0.67980        2.50960
C         -1.43290        0.02200        2.10260
C         -2.59260        0.38950        2.76530
C         -2.61810        1.37830        3.75090
C         -1.41960       -0.90940        1.00710
C         -0.33070       -1.48620        0.42770
C         -0.63590       -2.25340       -0.72530
C          0.24630       -2.96900       -1.55080
C          1.68740       -3.02830       -1.27430
C          2.34870       -4.25280       -1.24430
C          3.69980       -4.33840       -0.97560
C          4.44690       -3.18780       -0.73140
O          5.76760       -3.13410       -0.47730
C          6.52330       -4.32530       -0.33950
C          6.31970       -4.98620        1.01940
C          3.77870       -1.95110       -0.76930
C          4.58360       -0.71170       -0.51020
F          3.84080        0.41000       -0.54920
F          5.16290       -0.71350        0.70530
F          5.57150       -0.52810       -1.39960
C          2.42440       -1.87230       -1.03700
C         -0.31170       -3.61640       -2.64380
C         -1.69670       -3.59210       -2.93690
C         -2.58580       -2.91710       -2.08560
C         -4.03200       -2.90880       -2.34100
C         -4.75350       -1.71910       -2.36170
C         -6.11350       -1.70530       -2.59810
C         -6.80760       -2.89360       -2.81930
O         -8.12970       -3.01500       -3.03650
C         -8.94760       -1.86490       -3.16440
C         -8.80460       -1.20170       -4.52980
C         -6.07660       -4.09460       -2.79780
C         -4.71470       -4.10080       -2.56170
C         -6.81770       -5.37770       -3.04200
F         -7.42080       -5.40250       -4.24400
F         -6.00960       -6.45180       -3.01610
F         -7.77490       -5.61250       -2.13060
C         -2.02640       -2.25000       -1.00670
S         -2.90790       -1.32490        0.17770
C         -1.98760       -4.23350       -4.17140
C         -0.89130       -4.73050       -4.80390
S          0.57560       -4.47190       -3.87730
C         -0.81460       -5.43380       -6.07130
C          0.00730       -6.54160       -6.17780
C          0.06940       -7.29010       -7.34790
C         -0.69530       -6.93860       -8.44200
C         -0.63180       -7.75700       -9.66370
O          0.06740       -8.74590       -9.75370
N         -1.42050       -7.34490      -10.72470
C         -1.36230       -8.14300      -11.94560
C         -0.26910       -7.63730      -12.87810
C         -2.22210       -6.21700      -10.74980
O         -2.85730       -5.92610      -11.74290
C         -2.25990       -5.40670       -9.51920
C         -3.02490       -4.26030       -9.49100
C         -3.03540       -3.45580       -8.35080
C         -2.31970       -3.81420       -7.23700
C         -1.56630       -5.00550       -7.20570
C         -1.51060       -5.79040       -8.38750
H         -2.58010        6.51510        8.37890
H          0.59920       13.01720        8.86080
H          2.65570        9.75270        7.00540
H         -2.67730        2.22300        6.55710
H          0.48630        5.82600        2.08740
H         -0.40630        9.10010        4.96230
H          1.37310        9.09020        5.02540
H          0.56370       11.25990        4.12490
H          1.46340       10.37070        2.88740
H         -0.30090       10.41650        2.83110
H          3.34390        2.56470        3.12750
H          3.35960        1.54020        1.65910
H          3.49540       -0.49550        3.10430
H          4.87330        0.57220        3.36620
H          3.55390        0.53380        4.54510
H         -3.51870       -0.09660        2.49350
H         -3.56500        1.62920        4.20580
H          0.65830       -1.35180        0.82270
H          1.79080       -5.16140       -1.41430
H          4.16610       -5.30980       -0.95900
H          6.30020       -5.01960       -1.15770
H          7.55940       -3.99290       -0.44060
H          6.97090       -5.85130        1.10490
H          6.56370       -4.28050        1.80930
H          5.28870       -5.30590        1.15080
H          1.94630       -0.90620       -1.07980
H         -4.23940       -0.78270       -2.20770
H         -6.62950       -0.75920       -2.60520
H         -8.74450       -1.15590       -2.35330
H         -9.96300       -2.24970       -3.04190
H         -9.01620       -1.92680       -5.31130
H         -9.50910       -0.37880       -4.61070
H         -7.79720       -0.82010       -4.67860
H         -4.18510       -5.04070       -2.52810
H         -2.98550       -4.33220       -4.55890
H          0.59450       -6.84280       -5.32260
H          0.70260       -8.16160       -7.41450
H         -2.33770       -8.06960      -12.42960
H         -1.16330       -9.17460      -11.65060
H          0.69980       -7.69780      -12.38770
H         -0.46410       -6.60490      -13.15900
H         -0.24470       -8.24590      -13.77750
H         -3.59020       -3.99050      -10.37020
H         -3.60530       -2.53890       -8.35270
H         -2.31090       -3.16230       -6.37750
