236

C         -8.89440        4.22380        2.65180
C        -10.11090        3.85170        2.13750
C        -11.29520        4.70310        2.37960
O        -11.37420        5.63480        3.14880
C        -12.33300        4.19220        1.45320
C        -13.59730        4.68240        1.16780
Cl       -14.21750        6.05970        1.97710
C        -14.36900        4.03960        0.20190
C        -13.85610        2.93230       -0.45110
Br       -14.91180        2.09420       -1.78330
C        -12.59630        2.41140       -0.17330
C        -11.84190        3.04990        0.79220
C        -10.51070        2.73890        1.32240
C         -9.92660        1.49490        1.26650
C        -10.46440        0.41180        0.54640
N        -10.86310       -0.50460       -0.01960
C         -8.80150        1.11420        2.02170
N         -7.93040        0.72640        2.66440
C         -7.62310        3.83360        2.21770
C         -6.40630        3.98740        2.91060
N         -6.31760        4.42280        4.20540
C         -5.20530        5.15390        4.64790
C         -4.53980        6.02420        3.78710
C         -3.48760        6.78900        4.25310
C         -3.10550        6.71940        5.58130
C         -3.76510        5.85580        6.44020
C         -4.79620        5.06310        5.97740
C         -7.35660        4.14330        5.12580
C         -7.88330        2.85800        5.20650
C         -8.90820        2.59250        6.09470
C         -9.40230        3.59340        6.91490
C         -8.86340        4.86760        6.84760
C         -7.84380        5.14700        5.95730
C         -5.32050        3.55430        2.12160
S         -3.61380        3.37350        2.38520
C         -3.42980        2.60300        0.81730
C         -4.62440        2.58350        0.09820
N         -4.76390        2.13340       -1.20750
C         -3.85860        2.52020       -2.19860
C         -3.61650        1.67960       -3.28500
C         -2.69390        2.03510       -4.24780
C         -1.99870        3.22950       -4.14740
C         -2.24160        4.07150       -3.07480
C         -3.16210        3.72370       -2.10430
C         -5.91760        1.39090       -1.51710
C         -6.64300        1.64390       -2.67730
C         -7.79910        0.93160       -2.93550
C         -8.24260       -0.03440       -2.04770
C         -7.51760       -0.29130       -0.89620
C         -6.36130        0.41410       -0.62920
C         -5.68720        3.09790        0.86100
S         -7.38560        3.19390        0.58920
C         -2.24550        1.92990        0.40490
C         -0.90370        2.15320        0.66370
N         -0.33900        3.24290        1.32580
C         -0.57200        3.45610        2.68470
C         -0.34480        4.70720        3.26160
C         -0.51640        4.88610        4.61490
C         -0.94240        3.83350        5.42260
S         -1.06160        4.14760        7.15520
C         -2.13070        2.80320        7.74430
C         -1.21120        2.60080        4.84890
C         -1.02360        2.41660        3.49370
C          0.73530        3.85690        0.66240
C          1.90400        4.22100        1.32700
C          2.93450        4.83830        0.64790
C          2.81350        5.10160       -0.70980
S          4.07320        5.92740       -1.63540
C          4.83010        6.99880       -0.37630
C          1.66850        4.69960       -1.38930
C          0.63940        4.08380       -0.71160
C         -0.09830        1.14520        0.08210
S          1.59140        0.82920        0.13880
C          1.34350       -0.70460       -0.70810
C          0.03090       -0.87400       -1.13200
N         -0.43030       -1.85040       -1.98370
C          0.42210       -2.64580       -2.76800
C          1.58470       -2.14940       -3.35090
C          2.42670       -2.98780       -4.05510
C          2.10050       -4.32750       -4.21570
S          3.17350       -5.47960       -5.02350
C          4.80670       -4.82730       -4.55970
C          0.88680       -4.80240       -3.72620
C          0.06080       -3.97250       -3.00070
C         -1.80270       -1.92060       -2.33350
C         -2.78280       -2.23260       -1.39610
C         -4.10500       -2.32130       -1.77740
C         -4.47430       -2.10890       -3.10330
S         -6.18530       -2.28170       -3.48460
C         -6.34350       -1.49660       -5.11400
C         -3.49460       -1.81300       -4.04450
C         -2.17200       -1.71950       -3.65940
C         -0.78500        0.16760       -0.61570
S         -2.48280        0.46690       -0.55900
C          2.48480       -1.56540       -0.78550
C          2.63200       -2.88470       -0.37300
N          1.64830       -3.63820        0.23850
C          0.66450       -3.02340        1.02940
C          0.95670       -1.92100        1.83320
C         -0.04340       -1.28320        2.53350
C         -1.35440       -1.74890        2.47220
S         -2.59510       -0.83160        3.33810
C         -4.12430       -1.26380        2.45990
C         -1.62910       -2.90940        1.76060
C         -0.63080       -3.53140        1.03420
C          1.78250       -5.03820        0.30950
C          2.16480       -5.77090       -0.80950
C          2.36890       -7.13360       -0.72270
C          2.19570       -7.78400        0.49000
S          2.50250       -9.51110        0.68800
C          3.87360       -9.76660       -0.47820
C          1.76110       -7.06510        1.59940
C          1.55880       -5.70560        1.51340
C          3.96590       -3.32640       -0.56780
S          4.78010       -4.82420       -0.30230
C          6.32800       -4.11230       -0.79440
C          6.16550       -2.75600       -1.18790
N          7.15190       -1.88800       -1.57750
C          7.01210       -0.52750       -1.22700
C          6.70990       -0.17000        0.08690
C          6.61060        1.15760        0.43700
C          6.81540        2.15480       -0.51510
S          6.72250        3.82120        0.04020
C          7.48710        4.75910       -1.31580
C          7.08910        1.80090       -1.83040
C          7.18900        0.46980       -2.18020
C          8.20230       -2.22300       -2.44500
C          9.43280       -1.57750       -2.31400
C         10.44700       -1.83250       -3.20790
C         10.25970       -2.74060       -4.24750
S         11.60420       -2.99420       -5.35150
C         11.30260       -4.68200       -5.95090
C          9.03420       -3.38500       -4.37970
C          8.01740       -3.13150       -3.48420
C          4.82960       -2.34360       -1.03340
S          4.00620       -0.84410       -1.30370
C          7.54730       -4.77580       -0.66870
C          7.82470       -5.97410       -0.03330
C          6.86530       -6.88870        0.59020
O          5.67070       -6.98590        0.36690
C          7.65060       -7.75000        1.49610
C          7.22680       -8.69970        2.41200
Cl         5.56190       -9.04720        2.62960
C          8.18330       -9.36560        3.17610
C          9.52390       -9.06940        2.99860
Br        10.80250       -9.98470        4.05670
C          9.97270       -8.12710        2.07710
C          9.01850       -7.46780        1.32640
C          9.14660       -6.46070        0.26960
C         10.31680       -6.16510       -0.38720
C         10.37240       -5.51590       -1.63180
N         10.48500       -5.11570       -2.70320
C         11.58840       -6.62200        0.01050
N         12.65210       -6.94360        0.30040
H         -8.94060        4.98430        3.42350
H        -15.35390        4.40930       -0.03440
H        -12.23330        1.54960       -0.70880
H         -4.86870        6.12220        2.76320
H         -2.98080        7.46090        3.57690
H         -2.30350        7.33820        5.95190
H         -3.47140        5.79880        7.47670
H         -5.30420        4.38310        6.64540
H         -7.50000        2.07780        4.56590
H         -9.31610        1.59440        6.14840
H        -10.20420        3.38150        7.60520
H         -9.24480        5.65200        7.48320
H         -7.42870        6.14220        5.89250
H         -4.14050        0.73810       -3.34750
H         -2.50860        1.36860       -5.07730
H         -1.27430        3.50310       -4.89920
H         -1.71580        5.01190       -2.99510
H         -3.34740        4.38740       -1.27220
H         -6.30290        2.40720       -3.36250
H         -8.36230        1.14110       -3.83320
H         -9.14770       -0.58610       -2.24590
H         -7.85520       -1.04760       -0.20430
H         -5.79610        0.21870        0.27020
H         -0.02800        5.53300        2.64270
H         -0.31730        5.84550        5.06530
H         -2.41170        3.06830        8.75870
H         -1.58760        1.86270        7.75000
H         -3.01230        2.74600        7.11300
H         -1.54780        1.76390        5.43860
H         -1.21890        1.44790        3.06230
H          2.01190        4.00670        2.37930
H          3.83680        5.09220        1.18050
H          4.04470        7.50540        0.17590
H          5.46020        6.41540        0.28850
H          5.43080        7.72220       -0.91880
H          1.58910        4.88640       -2.44930
H         -0.25360        3.78470       -1.24140
H          1.82520       -1.10060       -3.27220
H          3.33000       -2.58390       -4.48470
H          4.78550       -4.55120       -3.50910
H          5.51180       -5.63720       -4.71970
H          5.07070       -3.97940       -5.18600
H          0.61820       -5.83430       -3.89060
H         -0.86310       -4.35120       -2.59090
H         -2.49270       -2.41420       -0.37470
H         -4.87040       -2.56170       -1.05570
H         -5.86920       -2.10490       -5.87860
H         -7.41050       -1.43780       -5.30290
H         -5.91990       -0.49730       -5.07900
H         -3.75090       -1.65650       -5.08000
H         -1.41260       -1.49310       -4.39350
H          1.97240       -1.56270        1.90480
H          0.18820       -0.42010        3.13870
H         -3.96210       -1.16520        1.38990
H         -4.44390       -2.26860        2.72080
H         -4.87030       -0.54860        2.79450
H         -2.62120       -3.33450        1.76490
H         -0.85410       -4.41790        0.45890
H          2.30060       -5.26690       -1.75240
H          2.67060       -7.67580       -1.60420
H          3.49680       -9.88900       -1.48970
H          4.54530       -8.91600       -0.40630
H          4.37580      -10.67580       -0.16160
H          1.61170       -7.58010        2.53600
H          1.25390       -5.14820        2.38700
H          6.56810       -0.94030        0.83070
H          6.38810        1.43880        1.45460
H          8.41960        4.28300       -1.60270
H          7.68850        5.74920       -0.91910
H          6.79830        4.83310       -2.15260
H          7.21500        2.55090       -2.59380
H          7.40450        0.19840       -3.20280
H          9.58570       -0.88200       -1.50200
H         11.40200       -1.34170       -3.10410
H         11.02180       -5.29810       -5.10300
H         10.53610       -4.68280       -6.72080
H         12.24360       -5.02330       -6.37050
H          8.86300       -4.08290       -5.18270
H          7.06660       -3.63120       -3.59150
H          8.40790       -4.22030       -1.02830
H          7.87610      -10.10330        3.90000
H         11.02680       -7.92840        1.97420
