152

C         -4.75190       -3.76460       -6.04560
C         -5.98680       -4.33850       -6.19900
C         -6.67860       -5.27850       -5.29180
O         -6.26540       -5.80590       -4.27990
C         -8.02030       -5.48360       -5.88140
C         -9.06770       -6.27850       -5.44050
Cl        -8.92260       -7.26010       -4.03930
C        -10.25840       -6.28960       -6.15970
C        -10.36960       -5.51140       -7.30020
Br       -12.00690       -5.52970       -8.25480
C         -9.32670       -4.72400       -7.77470
C         -8.14370       -4.72210       -7.05660
C         -6.87930       -4.02570       -7.29800
C         -6.62290       -3.24020       -8.39200
C         -5.41670       -2.56690       -8.68360
N         -4.48510       -1.98140       -9.01480
C         -7.54790       -2.99290       -9.42970
N         -8.24100       -2.74950      -10.31160
C         -3.81940       -3.83540       -4.99700
C         -3.68840       -4.63120       -3.87470
C         -2.67620       -4.21200       -3.01310
S         -2.28130       -5.08540       -1.53560
C         -0.45780       -5.21380       -1.67320
C         -0.02900       -5.94800       -2.92670
C         -2.02260       -3.06060       -3.44090
S         -2.57150       -2.59660       -5.01570
C         -1.17010       -2.21050       -2.67830
C         -1.43730       -1.74140       -1.39700
N         -2.57960       -2.00760       -0.66810
C         -2.47800       -2.07740        0.72710
C         -3.47370       -1.54550        1.54640
C         -3.32340       -1.56050        2.91420
C         -2.17830       -2.10150        3.49790
S         -2.07350       -2.01350        5.25740
C         -0.40070       -2.61810        5.62520
C         -1.20320       -2.66610        2.68790
C         -1.35710       -2.65630        1.31590
C         -3.82070       -2.13160       -1.30990
C         -4.13450       -1.32730       -2.40670
C         -5.30770       -1.52370       -3.10000
C         -6.20070       -2.51900       -2.70910
S         -7.63480       -2.73220       -3.71890
C         -8.63450       -3.92050       -2.78490
C         -5.92070       -3.28180       -1.58400
C         -4.74180       -3.08680       -0.89090
C         -0.41660       -0.85610       -0.97140
S         -0.14550        0.04900        0.47160
C          1.29540        0.77460       -0.22290
C          1.57490        0.28680       -1.48830
N          2.70440        0.57090       -2.23990
C          3.94740        0.74840       -1.62020
C          4.27550        0.04530       -0.46050
C          5.46190        0.29190        0.19000
C          6.36040        1.23450       -0.30610
S          7.82450        1.49430        0.64400
C          8.73800        2.75290       -0.29200
C          6.06070        1.90240       -1.48490
C          4.86430        1.66250       -2.13180
C          2.57950        0.61460       -3.63630
C          1.44860        1.18180       -4.21840
C          1.27910        1.17620       -5.58920
C          2.24800        0.60850       -6.40470
S          2.12960        0.52660       -8.16300
C          0.38490        0.90510       -8.49330
C          3.39950        0.07340       -5.82790
C          3.56420        0.07080       -4.46180
C          0.57270       -0.62620       -1.91190
S          0.28050       -1.49970       -3.37730
C          2.02010        1.74010        0.57500
C          2.02230        1.60400        1.95980
C          2.72570        2.52360        2.71720
N          2.85390        2.61940        4.07700
C          2.28980        1.72790        5.05770
C          3.30800        0.69580        5.53880
C          3.68940        3.67140        4.35950
C          4.09320        4.29380        3.14710
C          3.46220        3.56790        2.09580
C          3.41990        3.71430        0.71130
C          2.69050        2.81960       -0.03260
C          4.93610        5.40420        3.19170
C          5.36740        5.85840        4.41190
C          4.99350        5.22230        5.62140
C          4.11460        4.13430        5.58730
C          5.50500        5.76680        6.83970
C          5.67650        5.18710        8.06540
C          5.67420        3.73900        8.39140
O          5.36900        2.80160        7.68650
C          6.20270        3.64450        9.76900
C          6.43810        2.51770       10.54390
Cl         6.10380        0.94500        9.95290
C          6.95180        2.67840       11.82740
C          7.22220        3.95320       12.29810
Br         7.93280        4.14380       14.04450
C          6.99320        5.09710       11.54090
C          6.47510        4.93060       10.26860
C          6.11530        5.91130        9.24560
C          6.11220        7.26910        9.42280
C          5.66400        8.22010        8.47930
N          5.30130        9.06200        7.78800
C          6.52900        7.91730       10.60560
N          6.85830        8.50450       11.53500
H         -4.46080       -3.06050       -6.81530
H        -11.08420       -6.89980       -5.82990
H         -9.45840       -4.14280       -8.67180
H         -4.31430       -5.48080       -3.67660
H         -0.17100       -5.76140       -0.77590
H         -0.03630       -4.20990       -1.63340
H         -0.31430       -5.39040       -3.81690
H          1.05220       -6.06970       -2.93020
H         -0.49260       -6.93080       -2.96940
H         -4.35320       -1.10580        1.10110
H         -4.08480       -1.13640        3.55060
H         -0.27360       -2.49050        6.69570
H          0.33390       -2.02170        5.09190
H         -0.31690       -3.67030        5.36950
H         -0.32080       -3.12080        3.10820
H         -0.59790       -3.10540        0.69320
H         -3.44900       -0.55310       -2.71870
H         -5.54330       -0.91100       -3.95700
H         -9.56070       -4.03150       -3.34090
H         -8.84180       -3.52480       -1.79510
H         -8.11310       -4.87200       -2.73340
H         -6.59420       -4.05260       -1.24980
H         -4.51590       -3.70350       -0.03470
H          3.59160       -0.69180       -0.06800
H          5.71070       -0.24340        1.09340
H          9.65040        2.92800        0.26950
H          8.98140        2.37750       -1.28160
H          8.15750        3.66930       -0.34660
H          6.74070        2.62510       -1.90580
H          4.63060        2.20290       -3.03730
H          0.69370        1.63270       -3.58980
H          0.39010        1.62080       -6.00620
H         -0.24900        0.26200       -7.89020
H          0.23290        0.69030       -9.54640
H          0.18290        1.95510       -8.30170
H          4.15380       -0.35690       -6.46850
H          4.44760       -0.36640       -4.02100
H          1.48930        0.78290        2.41560
H          1.42560        1.23270        4.60840
H          1.93500        2.32260        5.90480
H          2.83700        0.00830        6.23660
H          3.69810        0.12940        4.69590
H          4.13730        1.18660        6.04180
H          3.94070        4.52940        0.23300
H          2.60720        2.95350       -1.09890
H          5.23740        5.89670        2.27980
H          6.02600        6.71270        4.46370
H          3.76450        3.68710        6.49980
H          5.84030        6.79410        6.75030
H          7.13780        1.81530       12.44650
H          7.22230        6.06800       11.94770
