232

C         -0.70780       -7.39260       -9.76460
C         -0.13440       -6.95530      -10.92860
C          0.74760       -5.76510      -11.02890
O          1.02330       -4.96500      -10.15920
C          1.33780       -5.82430      -12.37640
C          2.22690       -4.94440      -12.97990
Cl         2.78590       -3.54690      -12.16340
C          2.64560       -5.21240      -14.28160
C          2.17770       -6.34250      -14.93120
Br         2.77640       -6.68760      -16.69480
C          1.28580       -7.23580      -14.34430
C          0.86460       -6.96280      -13.05580
C         -0.06510       -7.67680      -12.17960
C         -0.79870       -8.78180      -12.52310
C         -0.70900       -9.44020      -13.76740
N         -0.67330      -10.02030      -14.75680
C         -1.76000       -9.39560      -11.69120
N         -2.56940       -9.93280      -11.07950
C         -0.88510       -6.57980       -8.62160
C         -1.10590       -5.22490       -8.58060
C         -1.14600       -4.69180       -7.28020
C         -1.29680       -3.33750       -6.91020
C         -1.30560       -2.25010       -7.88850
C         -2.14260       -1.14780       -7.72030
C         -2.06500       -0.05440       -8.55760
C         -1.13920       -0.01650       -9.59430
S         -0.91050        1.34860      -10.68300
C         -1.48530        2.77120       -9.68990
C         -0.64460        2.97820       -8.44450
C         -0.34900       -1.15040       -9.79060
F          0.52480       -1.16520      -10.81370
C         -0.41460       -2.24870       -8.96380
C         -1.31260       -3.07640       -5.54920
C         -1.11830       -4.07550       -4.56060
C         -0.96780       -5.42490       -4.93030
C         -0.77210       -6.46830       -3.91690
C          0.25990       -7.39900       -4.02990
C          0.45020       -8.35730       -3.05950
C         -0.38320       -8.44360       -1.94370
S         -0.03920       -9.76000       -0.81790
C         -0.58750       -9.17080        0.82610
C          0.12230       -7.90100        1.25230
C         -1.42750       -7.52720       -1.86040
C         -1.61610       -6.54630       -2.81310
F         -2.30390       -7.56170       -0.83110
C         -0.98800       -5.69960       -6.28860
S         -0.82250       -7.27720       -7.01020
C         -0.96980       -3.51650       -3.27050
C         -1.03360       -2.15310       -3.24770
S         -1.41140       -1.49180       -4.82610
C         -0.86630       -1.32800       -2.09700
C         -0.29270       -0.06920       -1.95870
N          0.38240        0.63070       -2.93820
C          1.02030       -0.01820       -4.00720
C          1.65920       -1.24420       -3.83700
C          2.16270       -1.92870       -4.92510
C          2.05260       -1.38960       -6.20110
S          2.61080       -2.21940       -7.65340
C          2.44380       -3.97370       -7.20640
C          1.49290       -0.12470       -6.36300
C          0.98090        0.55370       -5.28030
C          0.48170        2.02990       -2.85330
C          1.70070        2.66410       -3.09350
C          1.79620        4.03320       -3.00010
C          0.68220        4.80270       -2.66320
S          0.93790        6.54500       -2.56300
C         -0.66320        7.19390       -2.00480
C         -0.53610        4.17680       -2.44020
C         -0.63100        2.80210       -2.54080
C         -0.41370        0.37960       -0.61550
S          0.07080        1.81370        0.21550
C         -0.58200        1.18590        1.72770
C         -1.06020       -0.10670        1.60070
N         -1.41910       -0.89710        2.67310
C         -2.20240       -2.04580        2.49480
C         -3.30520       -2.02360        1.64140
C         -4.06280       -3.15670        1.44730
C         -3.73970       -4.34400        2.09830
S         -4.77830       -5.73270        1.77360
C         -3.80030       -7.14000        2.37100
C         -2.65360       -4.36720        2.96450
C         -1.89220       -3.23120        3.15780
C         -0.70060       -0.73490        3.87840
C          0.68190       -0.55440        3.85830
C          1.37660       -0.38330        5.03170
C          0.71050       -0.38490        6.25690
S          1.71370       -0.14280        7.68490
C          0.52580       -0.06080        9.05110
C         -0.66210       -0.59560        6.28220
C         -1.35950       -0.77370        5.10000
C         -0.99850       -0.53300        0.24820
S         -1.43120       -1.99070       -0.56580
C         -0.54190        2.04140        2.88220
C         -1.58780        2.53660        3.64590
N         -2.93170        2.23280        3.52410
C         -3.52020        1.91130        2.29780
C         -4.58860        1.01430        2.25680
C         -5.15740        0.65910        1.05330
C         -4.65960        1.17350       -0.14090
S         -5.39080        0.58910       -1.64300
C         -4.02530        0.73850       -2.83360
C         -3.63930        2.11340       -0.10100
C         -3.08170        2.48590        1.10650
C         -3.75150        2.34660        4.66490
C         -3.30860        1.89560        5.90850
C         -4.11320        2.01850        7.01860
C         -5.37930        2.59150        6.91730
S         -6.31680        2.68900        8.40770
C         -7.84170        3.54110        7.91510
C         -5.82370        3.04260        5.68140
C         -5.01370        2.92480        4.56910
C         -1.10980        3.46550        4.60430
S         -1.90130        4.53720        5.69420
C         -0.35120        5.20830        6.21400
C          0.72770        4.64730        5.49870
N          2.05380        4.99430        5.56950
C          3.00850        4.03400        5.13280
C          3.11040        2.79910        5.76770
C          4.07900        1.90350        5.37550
C          4.94040        2.20580        4.32150
S          6.11060        0.96410        3.89160
C          7.11700        1.73530        2.59190
C          4.82730        3.43170        3.67670
C          3.87410        4.34150        4.08930
C          2.53510        6.28170        5.82370
C          3.83360        6.43560        6.31670
C          4.35530        7.68550        6.57250
C          3.58130        8.82100        6.35980
S          4.11120       10.45780        6.72120
C          5.88800       10.28390        7.05400
C          2.29310        8.67620        5.84550
C          1.77970        7.42890        5.56930
C          0.26200        3.66260        4.59550
S          1.01250        2.72600        3.34900
C         -0.43510        6.19000        7.20720
C          0.53500        6.67860        8.05060
C          0.43080        8.05610        8.57760
O         -0.51880        8.80080        8.49850
C          1.76520        8.33960        9.15940
C          2.27920        9.51950        9.67160
Cl         1.34190       10.94930        9.71860
C          3.59320        9.53600       10.13600
C          4.34210        8.37350       10.09220
Br         6.14300        8.42900       10.69830
C          3.84670        7.17360        9.59480
C          2.55170        7.17330        9.11310
C          1.76550        6.10480        8.49750
C          2.04570        4.75460        8.54440
C          1.07330        3.78500        8.25580
N          0.27850        2.97460        8.07120
C          3.28000        4.21890        8.94830
N          4.28930        3.74410        9.22380
H         -1.00050       -8.43070       -9.67260
H          3.32990       -4.54100      -14.77520
H          0.95080       -8.10250      -14.88980
H         -1.29380       -4.64540       -9.46430
H         -2.88730       -1.15540       -6.93930
H         -2.73770        0.77320       -8.40000
H         -1.38290        3.61350      -10.37380
H         -2.54180        2.63860       -9.45950
H         -0.72130        2.12220       -7.77630
H          0.40040        3.11260       -8.71440
H         -0.98300        3.86560       -7.91290
H          0.26250       -3.06770       -9.14450
H          0.93630       -7.35190       -4.86920
H          1.25890       -9.06620       -3.14530
H         -1.66940       -9.05810        0.81850
H         -0.32410      -10.00210        1.48050
H          1.20090       -8.03040        1.19300
H         -0.14130       -7.66000        2.28060
H         -0.15920       -7.06140        0.61980
H         -2.44910       -5.86970       -2.69840
H         -0.74600       -4.09520       -2.39240
H          1.74720       -1.67190       -2.84930
H          2.64250       -2.88260       -4.77080
H          3.33750       -4.32360       -6.69740
H          2.31490       -4.50690       -8.14400
H          1.56330       -4.10040       -6.58420
H          1.43980        0.30170       -7.35260
H          0.51250        1.51720       -5.41490
H          2.56790        2.07330       -3.34730
H          2.73870        4.52770       -3.17760
H         -0.93000        6.74950       -1.05030
H         -1.42510        7.00890       -2.75650
H         -0.51820        8.26320       -1.88600
H         -1.41890        4.74450       -2.19390
H         -1.57940        2.31360       -2.38330
H         -3.56930       -1.10930        1.13760
H         -4.91250       -3.13350        0.78280
H         -2.80810       -7.09430        1.93410
H         -3.75940       -7.14300        3.45660
H         -4.31940       -8.02630        2.02020
H         -2.38490       -5.26780        3.49310
H         -1.04260       -3.26620        3.82380
H          1.21110       -0.55310        2.91690
H          2.44590       -0.25070        5.01010
H         -0.00380       -1.00450        9.14440
H         -0.15010        0.77350        8.88830
H          1.12170        0.11690        9.94120
H         -1.20310       -0.61980        7.21440
H         -2.42600       -0.94510        5.12150
H         -4.95400        0.57650        3.17310
H         -5.97400       -0.04580        1.02380
H         -3.11280        0.35840       -2.38380
H         -4.29880        0.12000       -3.68260
H         -3.90990        1.76910       -3.15780
H         -3.28420        2.57760       -1.00680
H         -2.30850        3.23890        1.12590
H         -2.32810        1.45490        5.99920
H         -3.76900        1.67360        7.98120
H         -8.38460        2.94500        7.18740
H         -7.60580        4.52670        7.52480
H         -8.42840        3.63560        8.82360
H         -6.79440        3.49720        5.56880
H         -5.36410        3.28850        3.61440
H          2.44000        2.54020        6.57130
H          4.18680        0.96570        5.89780
H          6.50580        1.94230        1.71830
H          7.58460        2.63820        2.97310
H          7.87920        1.00380        2.34200
H          5.47270        3.69290        2.85410
H          3.79420        5.29850        3.59470
H          4.43570        5.56140        6.51620
H          5.36040        7.76000        6.95410
H          6.26130       11.29670        7.16840
H          6.37360        9.80470        6.20960
H          6.05480        9.72910        7.97180
H          1.69940        9.55790        5.66040
H          0.79490        7.34330        5.13770
H         -1.39640        6.68960        7.28180
H          4.01600       10.45020       10.52080
H          4.46670        6.29200        9.57200
