
  xtb     02112207093D
 energy: -351.673555116956 gnorm: 0.000281051311 xtb: 6.4.1 (unknown)
204221  0     0  0            999 V2000
  -11.6096   -1.5413   -5.7872 C   0  0  0  0  0  0  0  0  0  0  0  0
  -11.4529   -2.8520   -6.1073 C   0  0  0  0  0  0  0  0  0  0  0  0
  -10.2677   -3.6968   -5.7814 C   0  0  0  0  0  0  0  0  0  0  0  0
   -9.1888   -3.3616   -5.3538 O   0  0  0  0  0  0  0  0  0  0  0  0
  -10.7071   -5.0886   -6.0293 C   0  0  0  0  0  0  0  0  0  0  0  0
   -9.9846   -6.2486   -5.8333 C   0  0  0  0  0  0  0  0  0  0  0  0
  -10.5889   -7.4612   -6.1404 C   0  0  0  0  0  0  0  0  0  0  0  0
   -9.7461   -8.9438   -5.9266 Cl  0  0  0  0  0  0  0  0  0  0  0  0
  -11.8990   -7.4683   -6.6292 C   0  0  0  0  0  0  0  0  0  0  0  0
  -12.4763   -8.6398   -6.9174 F   0  0  0  0  0  0  0  0  0  0  0  0
  -12.6302   -6.3084   -6.8265 C   0  0  0  0  0  0  0  0  0  0  0  0
  -12.0226   -5.0986   -6.5220 C   0  0  0  0  0  0  0  0  0  0  0  0
  -12.5030   -3.7255   -6.6150 C   0  0  0  0  0  0  0  0  0  0  0  0
  -13.7012   -3.3350   -7.1481 C   0  0  0  0  0  0  0  0  0  0  0  0
  -14.1320   -1.9985   -7.2976 C   0  0  0  0  0  0  0  0  0  0  0  0
  -14.5531   -0.9436   -7.4644 N   0  0  0  0  0  0  0  0  0  0  0  0
  -14.6729   -4.2303   -7.6465 C   0  0  0  0  0  0  0  0  0  0  0  0
  -15.5024   -4.9067   -8.0595 N   0  0  0  0  0  0  0  0  0  0  0  0
  -10.5875   -0.6413   -5.3225 C   0  0  0  0  0  0  0  0  0  0  0  0
   -9.2661   -0.7036   -5.7971 C   0  0  0  0  0  0  0  0  0  0  0  0
   -8.3258    0.1115   -5.2213 C   0  0  0  0  0  0  0  0  0  0  0  0
   -6.8610    0.1540   -5.4680 C   0  0  0  0  0  0  0  0  0  0  0  0
   -6.2328   -0.4040   -6.3337 O   0  0  0  0  0  0  0  0  0  0  0  0
   -6.3438    1.0341   -4.3879 C   0  0  0  0  0  0  0  0  0  0  0  0
   -7.4212    1.5797   -3.6616 C   0  0  0  0  0  0  0  0  0  0  0  0
   -8.6534    1.0063   -4.1807 C   0  0  0  0  0  0  0  0  0  0  0  0
   -9.9727    1.1434   -3.7844 C   0  0  0  0  0  0  0  0  0  0  0  0
  -10.9269    0.3271   -4.3682 C   0  0  0  0  0  0  0  0  0  0  0  0
   -7.1700    2.4269   -2.5971 C   0  0  0  0  0  0  0  0  0  0  0  0
   -5.8573    2.6085   -2.1873 C   0  0  0  0  0  0  0  0  0  0  0  0
   -4.7996    1.9563   -2.8219 C   0  0  0  0  0  0  0  0  0  0  0  0
   -5.0444    1.2236   -3.9949 C   0  0  0  0  0  0  0  0  0  0  0  0
   -3.4784    1.9153   -2.2354 C   0  0  0  0  0  0  0  0  0  0  0  0
   -2.6777    0.7895   -2.1196 C   0  0  0  0  0  0  0  0  0  0  0  0
   -3.0261   -0.4977   -2.5045 N   0  0  0  0  0  0  0  0  0  0  0  0
   -2.0370   -1.3407   -3.0263 C   0  0  0  0  0  0  0  0  0  0  0  0
   -1.0062   -0.8228   -3.8114 C   0  0  0  0  0  0  0  0  0  0  0  0
   -0.0346   -1.6553   -4.3206 C   0  0  0  0  0  0  0  0  0  0  0  0
   -0.0784   -3.0242   -4.0729 C   0  0  0  0  0  0  0  0  0  0  0  0
    1.2093   -4.0062   -4.7769 S   0  0  0  0  0  0  0  0  0  0  0  0
    0.4832   -5.6715   -4.8104 C   0  0  0  0  0  0  0  0  0  0  0  0
   -1.1010   -3.5451   -3.2902 C   0  0  0  0  0  0  0  0  0  0  0  0
   -2.0675   -2.7091   -2.7693 C   0  0  0  0  0  0  0  0  0  0  0  0
   -4.3555   -0.9386   -2.4083 C   0  0  0  0  0  0  0  0  0  0  0  0
   -5.1507   -0.5483   -1.3339 C   0  0  0  0  0  0  0  0  0  0  0  0
   -6.4893   -0.8821   -1.2853 C   0  0  0  0  0  0  0  0  0  0  0  0
   -7.0586   -1.6274   -2.3092 C   0  0  0  0  0  0  0  0  0  0  0  0
   -8.7685   -2.0559   -2.3875 S   0  0  0  0  0  0  0  0  0  0  0  0
   -9.5097   -1.0722   -1.0490 C   0  0  0  0  0  0  0  0  0  0  0  0
   -6.2537   -2.0792   -3.3535 C   0  0  0  0  0  0  0  0  0  0  0  0
   -4.9196   -1.7406   -3.4031 C   0  0  0  0  0  0  0  0  0  0  0  0
   -1.4596    1.1090   -1.4654 C   0  0  0  0  0  0  0  0  0  0  0  0
   -0.0401    0.2159   -1.0503 S   0  0  0  0  0  0  0  0  0  0  0  0
    0.6856    1.6538   -0.3288 C   0  0  0  0  0  0  0  0  0  0  0  0
   -0.1305    2.7728   -0.4513 C   0  0  0  0  0  0  0  0  0  0  0  0
    0.1693    4.0683   -0.0679 N   0  0  0  0  0  0  0  0  0  0  0  0
    1.4011    4.6599   -0.3619 C   0  0  0  0  0  0  0  0  0  0  0  0
    1.8840    5.7016    0.4344 C   0  0  0  0  0  0  0  0  0  0  0  0
    3.1046    6.2739    0.1626 C   0  0  0  0  0  0  0  0  0  0  0  0
    3.8883    5.8116   -0.8953 C   0  0  0  0  0  0  0  0  0  0  0  0
    5.4568    6.5906   -1.1012 S   0  0  0  0  0  0  0  0  0  0  0  0
    6.1918    5.7331   -2.5212 C   0  0  0  0  0  0  0  0  0  0  0  0
    3.4073    4.7849   -1.6965 C   0  0  0  0  0  0  0  0  0  0  0  0
    2.1718    4.2243   -1.4370 C   0  0  0  0  0  0  0  0  0  0  0  0
   -0.8836    4.8389    0.4529 C   0  0  0  0  0  0  0  0  0  0  0  0
   -1.1050    6.1484    0.0265 C   0  0  0  0  0  0  0  0  0  0  0  0
   -2.1594    6.8711    0.5354 C   0  0  0  0  0  0  0  0  0  0  0  0
   -3.0214    6.3053    1.4745 C   0  0  0  0  0  0  0  0  0  0  0  0
   -4.3447    7.3275    2.0368 S   0  0  0  0  0  0  0  0  0  0  0  0
   -5.1602    6.3283    3.3151 C   0  0  0  0  0  0  0  0  0  0  0  0
   -2.8051    5.0020    1.9003 C   0  0  0  0  0  0  0  0  0  0  0  0
   -1.7419    4.2795    1.3952 C   0  0  0  0  0  0  0  0  0  0  0  0
   -1.3569    2.4338   -1.0775 C   0  0  0  0  0  0  0  0  0  0  0  0
   -2.7776    3.3322   -1.4806 S   0  0  0  0  0  0  0  0  0  0  0  0
    1.9434    1.4871    0.3102 C   0  0  0  0  0  0  0  0  0  0  0  0
    2.7436    0.3785    0.2105 C   0  0  0  0  0  0  0  0  0  0  0  0
    3.9013    0.4304    1.0119 C   0  0  0  0  0  0  0  0  0  0  0  0
    4.9039   -0.5523    1.1616 C   0  0  0  0  0  0  0  0  0  0  0  0
    4.8688   -1.8296    0.4810 C   0  0  0  0  0  0  0  0  0  0  0  0
    5.9373   -2.5414    0.0045 C   0  0  0  0  0  0  0  0  0  0  0  0
    5.5589   -3.7885   -0.5263 C   0  0  0  0  0  0  0  0  0  0  0  0
    6.7139   -4.8929   -1.1522 Cl  0  0  0  0  0  0  0  0  0  0  0  0
    4.2212   -4.0598   -0.4808 C   0  0  0  0  0  0  0  0  0  0  0  0
    3.3089   -5.6300   -1.0080 Si  0  0  0  0  0  4  0  0  0  0  0  0
    3.8512   -7.0073    0.2056 C   0  0  0  0  0  0  0  0  0  0  0  0
    3.7248   -6.5983    1.6711 C   0  0  0  0  0  0  0  0  0  0  0  0
    1.4510   -5.2072   -0.8086 C   0  0  0  0  0  0  0  0  0  0  0  0
    0.5297   -6.4220   -0.7736 C   0  0  0  0  0  0  0  0  0  0  0  0
    3.7631   -6.0493   -2.8163 C   0  0  0  0  0  0  0  0  0  0  0  0
    3.4698   -7.4957   -3.2025 C   0  0  0  0  0  0  0  0  0  0  0  0
    3.3975   -2.7297    0.2483 S   0  0  0  0  0  0  0  0  0  0  0  0
    5.9443   -0.2389    2.0273 C   0  0  0  0  0  0  0  0  0  0  0  0
    6.0544    0.9956    2.7198 C   0  0  0  0  0  0  0  0  0  0  0  0
    5.0486    1.9787    2.5694 C   0  0  0  0  0  0  0  0  0  0  0  0
    5.0864    3.2460    3.2661 C   0  0  0  0  0  0  0  0  0  0  0  0
    5.6257    3.3759    4.9162 S   0  0  0  0  0  0  0  0  0  0  0  0
    5.3240    5.0723    4.9756 C   0  0  0  0  0  0  0  0  0  0  0  0
    5.7253    6.1279    6.4956 Si  0  0  0  0  0  4  0  0  0  0  0  0
    6.4318    4.9510    7.8281 C   0  0  0  0  0  0  0  0  0  0  0  0
    7.8426    4.4445    7.5430 C   0  0  0  0  0  0  0  0  0  0  0  0
    4.0906    6.9013    7.1142 C   0  0  0  0  0  0  0  0  0  0  0  0
    4.2978    7.8602    8.2810 C   0  0  0  0  0  0  0  0  0  0  0  0
    6.9796    7.4797    5.9756 C   0  0  0  0  0  0  0  0  0  0  0  0
    7.9536    7.0489    4.8810 C   0  0  0  0  0  0  0  0  0  0  0  0
    4.8329    5.4808    3.7672 C   0  0  0  0  0  0  0  0  0  0  0  0
    4.6849    4.4700    2.8003 C   0  0  0  0  0  0  0  0  0  0  0  0
    4.4270    7.1184    3.4624 Cl  0  0  0  0  0  0  0  0  0  0  0  0
    3.9954    1.6547    1.7233 C   0  0  0  0  0  0  0  0  0  0  0  0
    2.6081    2.6652    1.4206 S   0  0  0  0  0  0  0  0  0  0  0  0
    7.2243    1.0539    3.5016 C   0  0  0  0  0  0  0  0  0  0  0  0
    7.9948   -0.0824    3.4479 C   0  0  0  0  0  0  0  0  0  0  0  0
    7.2529   -1.3085    2.4361 S   0  0  0  0  0  0  0  0  0  0  0  0
    9.1862   -0.3078    4.1765 C   0  0  0  0  0  0  0  0  0  0  0  0
   10.1096   -1.2959    4.0160 C   0  0  0  0  0  0  0  0  0  0  0  0
   10.9991   -1.6704    5.1452 C   0  0  0  0  0  0  0  0  0  0  0  0
   11.2094   -1.0387    6.1533 O   0  0  0  0  0  0  0  0  0  0  0  0
   11.5151   -3.0143    4.7909 C   0  0  0  0  0  0  0  0  0  0  0  0
   12.2824   -3.8724    5.5540 C   0  0  0  0  0  0  0  0  0  0  0  0
   12.6091   -5.1030    5.0068 C   0  0  0  0  0  0  0  0  0  0  0  0
   13.3479   -5.9670    5.7145 F   0  0  0  0  0  0  0  0  0  0  0  0
   12.1735   -5.4550    3.7287 C   0  0  0  0  0  0  0  0  0  0  0  0
   12.4920   -6.6570    3.2356 F   0  0  0  0  0  0  0  0  0  0  0  0
   11.4139   -4.5898    2.9553 C   0  0  0  0  0  0  0  0  0  0  0  0
   11.0852   -3.3577    3.4962 C   0  0  0  0  0  0  0  0  0  0  0  0
   10.3461   -2.2287    2.9348 C   0  0  0  0  0  0  0  0  0  0  0  0
   10.1777   -1.9772    1.5995 C   0  0  0  0  0  0  0  0  0  0  0  0
    9.7713   -0.7224    1.0950 C   0  0  0  0  0  0  0  0  0  0  0  0
    9.5158    0.2990    0.6382 N   0  0  0  0  0  0  0  0  0  0  0  0
   10.4931   -2.8989    0.5805 C   0  0  0  0  0  0  0  0  0  0  0  0
   10.7168   -3.6213   -0.2824 N   0  0  0  0  0  0  0  0  0  0  0  0
  -12.6100   -1.1258   -5.8195 H   0  0  0  0  0  0  0  0  0  0  0  0
   -8.9764   -6.2080   -5.4532 H   0  0  0  0  0  0  0  0  0  0  0  0
  -13.6373   -6.3848   -7.2024 H   0  0  0  0  0  0  0  0  0  0  0  0
   -8.9902   -1.3662   -6.6001 H   0  0  0  0  0  0  0  0  0  0  0  0
  -10.2565    1.8543   -3.0226 H   0  0  0  0  0  0  0  0  0  0  0  0
  -11.9556    0.3986   -4.0445 H   0  0  0  0  0  0  0  0  0  0  0  0
   -7.9761    2.9013   -2.0573 H   0  0  0  0  0  0  0  0  0  0  0  0
   -5.6446    3.2175   -1.3202 H   0  0  0  0  0  0  0  0  0  0  0  0
   -4.2323    0.7932   -4.5598 H   0  0  0  0  0  0  0  0  0  0  0  0
   -0.9813    0.2330   -4.0371 H   0  0  0  0  0  0  0  0  0  0  0  0
    0.7605   -1.2564   -4.9312 H   0  0  0  0  0  0  0  0  0  0  0  0
    1.1498   -6.2726   -5.4207 H   0  0  0  0  0  0  0  0  0  0  0  0
    0.4352   -6.0825   -3.8071 H   0  0  0  0  0  0  0  0  0  0  0  0
   -0.5012   -5.6262   -5.2663 H   0  0  0  0  0  0  0  0  0  0  0  0
   -1.1504   -4.5996   -3.0718 H   0  0  0  0  0  0  0  0  0  0  0  0
   -2.8556   -3.1178   -2.1547 H   0  0  0  0  0  0  0  0  0  0  0  0
   -4.7195    0.0372   -0.5353 H   0  0  0  0  0  0  0  0  0  0  0  0
   -7.0748   -0.5542   -0.4419 H   0  0  0  0  0  0  0  0  0  0  0  0
   -9.2441   -0.0271   -1.1742 H   0  0  0  0  0  0  0  0  0  0  0  0
  -10.5827   -1.1972   -1.1541 H   0  0  0  0  0  0  0  0  0  0  0  0
   -9.1908   -1.4488   -0.0815 H   0  0  0  0  0  0  0  0  0  0  0  0
   -6.7001   -2.6727   -4.1365 H   0  0  0  0  0  0  0  0  0  0  0  0
   -4.3161   -2.0657   -4.2367 H   0  0  0  0  0  0  0  0  0  0  0  0
    1.3030    6.0458    1.2759 H   0  0  0  0  0  0  0  0  0  0  0  0
    3.4780    7.0768    0.7787 H   0  0  0  0  0  0  0  0  0  0  0  0
    7.1674    6.1877   -2.6625 H   0  0  0  0  0  0  0  0  0  0  0  0
    5.5820    5.8888   -3.4065 H   0  0  0  0  0  0  0  0  0  0  0  0
    6.3076    4.6763   -2.2988 H   0  0  0  0  0  0  0  0  0  0  0  0
    3.9794    4.4126   -2.5307 H   0  0  0  0  0  0  0  0  0  0  0  0
    1.8067    3.4334   -2.0752 H   0  0  0  0  0  0  0  0  0  0  0  0
   -0.4508    6.5890   -0.7103 H   0  0  0  0  0  0  0  0  0  0  0  0
   -2.3369    7.8826    0.2045 H   0  0  0  0  0  0  0  0  0  0  0  0
   -5.9502    6.9562    3.7151 H   0  0  0  0  0  0  0  0  0  0  0  0
   -5.5898    5.4334    2.8742 H   0  0  0  0  0  0  0  0  0  0  0  0
   -4.4518    6.0824    4.1007 H   0  0  0  0  0  0  0  0  0  0  0  0
   -3.4512    4.5366    2.6270 H   0  0  0  0  0  0  0  0  0  0  0  0
   -1.5713    3.2680    1.7347 H   0  0  0  0  0  0  0  0  0  0  0  0
    2.4983   -0.4431   -0.4373 H   0  0  0  0  0  0  0  0  0  0  0  0
    6.9495   -2.1811   -0.0128 H   0  0  0  0  0  0  0  0  0  0  0  0
    3.2583   -7.9061    0.0331 H   0  0  0  0  0  0  0  0  0  0  0  0
    4.8884   -7.2786    0.0052 H   0  0  0  0  0  0  0  0  0  0  0  0
    4.0386   -7.4087    2.3263 H   0  0  0  0  0  0  0  0  0  0  0  0
    4.3481   -5.7316    1.8794 H   0  0  0  0  0  0  0  0  0  0  0  0
    2.6967   -6.3410    1.9148 H   0  0  0  0  0  0  0  0  0  0  0  0
    1.3084   -4.6376    0.1113 H   0  0  0  0  0  0  0  0  0  0  0  0
    1.1433   -4.5434   -1.6184 H   0  0  0  0  0  0  0  0  0  0  0  0
    0.6402   -7.0251   -1.6722 H   0  0  0  0  0  0  0  0  0  0  0  0
    0.7619   -7.0545    0.0790 H   0  0  0  0  0  0  0  0  0  0  0  0
   -0.5127   -6.1163   -0.6932 H   0  0  0  0  0  0  0  0  0  0  0  0
    3.2276   -5.3812   -3.4918 H   0  0  0  0  0  0  0  0  0  0  0  0
    4.8231   -5.8593   -2.9793 H   0  0  0  0  0  0  0  0  0  0  0  0
    2.4175   -7.7339   -3.0695 H   0  0  0  0  0  0  0  0  0  0  0  0
    3.7280   -7.6734   -4.2449 H   0  0  0  0  0  0  0  0  0  0  0  0
    4.0495   -8.1804   -2.5891 H   0  0  0  0  0  0  0  0  0  0  0  0
    5.7671    4.0922    7.9375 H   0  0  0  0  0  0  0  0  0  0  0  0
    6.4355    5.4618    8.7916 H   0  0  0  0  0  0  0  0  0  0  0  0
    7.8764    3.9181    6.5923 H   0  0  0  0  0  0  0  0  0  0  0  0
    8.1685    3.7571    8.3215 H   0  0  0  0  0  0  0  0  0  0  0  0
    8.5476    5.2707    7.5050 H   0  0  0  0  0  0  0  0  0  0  0  0
    3.6040    7.4381    6.3002 H   0  0  0  0  0  0  0  0  0  0  0  0
    3.4008    6.1133    7.4199 H   0  0  0  0  0  0  0  0  0  0  0  0
    4.7403    7.3447    9.1294 H   0  0  0  0  0  0  0  0  0  0  0  0
    3.3503    8.2892    8.6018 H   0  0  0  0  0  0  0  0  0  0  0  0
    4.9595    8.6736    7.9949 H   0  0  0  0  0  0  0  0  0  0  0  0
    6.4390    8.3621    5.6303 H   0  0  0  0  0  0  0  0  0  0  0  0
    7.5485    7.7925    6.8527 H   0  0  0  0  0  0  0  0  0  0  0  0
    7.4193    6.8065    3.9661 H   0  0  0  0  0  0  0  0  0  0  0  0
    8.5201    6.1722    5.1836 H   0  0  0  0  0  0  0  0  0  0  0  0
    8.6568    7.8496    4.6597 H   0  0  0  0  0  0  0  0  0  0  0  0
    4.3374    4.6585    1.8014 H   0  0  0  0  0  0  0  0  0  0  0  0
    7.5280    1.9160    4.0661 H   0  0  0  0  0  0  0  0  0  0  0  0
    9.3363    0.3356    5.0378 H   0  0  0  0  0  0  0  0  0  0  0  0
   12.6183   -3.6014    6.5421 H   0  0  0  0  0  0  0  0  0  0  0  0
   11.0954   -4.9025    1.9741 H   0  0  0  0  0  0  0  0  0  0  0  0
  1  2  2  0  0  0  0
  2  3  1  0  0  0  0
  3  4  2  0  0  0  0
  3  5  1  0  0  0  0
  5  6  2  0  0  0  0
  6  7  1  0  0  0  0
  7  8  1  0  0  0  0
  7  9  2  0  0  0  0
  9 10  1  0  0  0  0
  9 11  1  0  0  0  0
 11 12  2  0  0  0  0
 12 13  1  0  0  0  0
 13 14  2  0  0  0  0
 14 15  1  0  0  0  0
 15 16  3  0  0  0  0
 14 17  1  0  0  0  0
 17 18  3  0  0  0  0
  1 19  1  0  0  0  0
 19 20  2  0  0  0  0
 20 21  1  0  0  0  0
 21 22  1  0  0  0  0
 22 23  2  0  0  0  0
 22 24  1  0  0  0  0
 24 25  2  0  0  0  0
 25 26  1  0  0  0  0
 26 27  1  0  0  0  0
 27 28  2  0  0  0  0
 25 29  1  0  0  0  0
 29 30  2  0  0  0  0
 30 31  1  0  0  0  0
 31 32  2  0  0  0  0
 31 33  1  0  0  0  0
 33 34  2  0  0  0  0
 34 35  1  0  0  0  0
 35 36  1  0  0  0  0
 36 37  2  0  0  0  0
 37 38  1  0  0  0  0
 38 39  2  0  0  0  0
 39 40  1  0  0  0  0
 40 41  1  0  0  0  0
 39 42  1  0  0  0  0
 42 43  2  0  0  0  0
 35 44  1  0  0  0  0
 44 45  2  0  0  0  0
 45 46  1  0  0  0  0
 46 47  2  0  0  0  0
 47 48  1  0  0  0  0
 48 49  1  0  0  0  0
 47 50  1  0  0  0  0
 50 51  2  0  0  0  0
 34 52  1  0  0  0  0
 52 53  1  0  0  0  0
 53 54  1  0  0  0  0
 54 55  2  0  0  0  0
 55 56  1  0  0  0  0
 56 57  1  0  0  0  0
 57 58  2  0  0  0  0
 58 59  1  0  0  0  0
 59 60  2  0  0  0  0
 60 61  1  0  0  0  0
 61 62  1  0  0  0  0
 60 63  1  0  0  0  0
 63 64  2  0  0  0  0
 56 65  1  0  0  0  0
 65 66  2  0  0  0  0
 66 67  1  0  0  0  0
 67 68  2  0  0  0  0
 68 69  1  0  0  0  0
 69 70  1  0  0  0  0
 68 71  1  0  0  0  0
 71 72  2  0  0  0  0
 55 73  1  0  0  0  0
 73 74  1  0  0  0  0
 54 75  1  0  0  0  0
 75 76  2  0  0  0  0
 76 77  1  0  0  0  0
 77 78  2  0  0  0  0
 78 79  1  0  0  0  0
 79 80  2  0  0  0  0
 80 81  1  0  0  0  0
 81 82  1  0  0  0  0
 81 83  2  0  0  0  0
 83 84  1  0  0  0  0
 84 85  1  0  0  0  0
 85 86  1  0  0  0  0
 84 87  1  0  0  0  0
 87 88  1  0  0  0  0
 84 89  1  0  0  0  0
 89 90  1  0  0  0  0
 83 91  1  0  0  0  0
 78 92  1  0  0  0  0
 92 93  2  0  0  0  0
 93 94  1  0  0  0  0
 94 95  1  0  0  0  0
 95 96  1  0  0  0  0
 96 97  1  0  0  0  0
 97 98  1  0  0  0  0
 98 99  1  0  0  0  0
 99100  1  0  0  0  0
 98101  1  0  0  0  0
101102  1  0  0  0  0
 98103  1  0  0  0  0
103104  1  0  0  0  0
 97105  2  0  0  0  0
105106  1  0  0  0  0
105107  1  0  0  0  0
 94108  2  0  0  0  0
108109  1  0  0  0  0
 93110  1  0  0  0  0
110111  2  0  0  0  0
111112  1  0  0  0  0
111113  1  0  0  0  0
113114  2  0  0  0  0
114115  1  0  0  0  0
115116  2  0  0  0  0
115117  1  0  0  0  0
117118  2  0  0  0  0
118119  1  0  0  0  0
119120  1  0  0  0  0
119121  2  0  0  0  0
121122  1  0  0  0  0
121123  1  0  0  0  0
123124  2  0  0  0  0
124125  1  0  0  0  0
125126  2  0  0  0  0
126127  1  0  0  0  0
127128  3  0  0  0  0
126129  1  0  0  0  0
129130  3  0  0  0  0
 13  2  1  0  0  0  0
 28 19  1  0  0  0  0
 74 33  1  0  0  0  0
109 75  1  0  0  0  0
125114  1  0  0  0  0
 12  5  1  0  0  0  0
 26 21  2  0  0  0  0
 43 36  1  0  0  0  0
 51 44  1  0  0  0  0
 73 52  2  0  0  0  0
108 77  1  0  0  0  0
124117  1  0  0  0  0
 32 24  1  0  0  0  0
 64 57  1  0  0  0  0
 72 65  1  0  0  0  0
 91 79  1  0  0  0  0
112 92  1  0  0  0  0
106 95  2  0  0  0  0
  1131  1  0  0  0  0
  6132  1  0  0  0  0
 11133  1  0  0  0  0
 20134  1  0  0  0  0
 27135  1  0  0  0  0
 28136  1  0  0  0  0
 29137  1  0  0  0  0
 30138  1  0  0  0  0
 32139  1  0  0  0  0
 37140  1  0  0  0  0
 38141  1  0  0  0  0
 41142  1  0  0  0  0
 41143  1  0  0  0  0
 41144  1  0  0  0  0
 42145  1  0  0  0  0
 43146  1  0  0  0  0
 45147  1  0  0  0  0
 46148  1  0  0  0  0
 49149  1  0  0  0  0
 49150  1  0  0  0  0
 49151  1  0  0  0  0
 50152  1  0  0  0  0
 51153  1  0  0  0  0
 58154  1  0  0  0  0
 59155  1  0  0  0  0
 62156  1  0  0  0  0
 62157  1  0  0  0  0
 62158  1  0  0  0  0
 63159  1  0  0  0  0
 64160  1  0  0  0  0
 66161  1  0  0  0  0
 67162  1  0  0  0  0
 70163  1  0  0  0  0
 70164  1  0  0  0  0
 70165  1  0  0  0  0
 71166  1  0  0  0  0
 72167  1  0  0  0  0
 76168  1  0  0  0  0
 80169  1  0  0  0  0
 85170  1  0  0  0  0
 85171  1  0  0  0  0
 86172  1  0  0  0  0
 86173  1  0  0  0  0
 86174  1  0  0  0  0
 87175  1  0  0  0  0
 87176  1  0  0  0  0
 88177  1  0  0  0  0
 88178  1  0  0  0  0
 88179  1  0  0  0  0
 89180  1  0  0  0  0
 89181  1  0  0  0  0
 90182  1  0  0  0  0
 90183  1  0  0  0  0
 90184  1  0  0  0  0
 99185  1  0  0  0  0
 99186  1  0  0  0  0
100187  1  0  0  0  0
100188  1  0  0  0  0
100189  1  0  0  0  0
101190  1  0  0  0  0
101191  1  0  0  0  0
102192  1  0  0  0  0
102193  1  0  0  0  0
102194  1  0  0  0  0
103195  1  0  0  0  0
103196  1  0  0  0  0
104197  1  0  0  0  0
104198  1  0  0  0  0
104199  1  0  0  0  0
106200  1  0  0  0  0
110201  1  0  0  0  0
113202  1  0  0  0  0
118203  1  0  0  0  0
123204  1  0  0  0  0
M  END
