92

C          2.86720        0.65930       -6.71380
C          2.56620        1.69390       -7.54780
C          1.82990        2.92140       -7.15240
O          1.39710        3.21920       -6.06210
C          1.86460        3.79830       -8.34520
C          1.30560        5.05110       -8.49600
C          1.47990        5.71050       -9.70670
Cl         0.80160        7.26930       -9.96450
C          2.21730        5.09440      -10.72120
F          2.38660        5.73740      -11.88230
C          2.78740        3.83990      -10.57430
C          2.60660        3.18180       -9.36690
C          3.05780        1.87340       -8.90220
C          3.75710        0.96100       -9.64570
C          4.19850        1.19130      -10.96670
N          4.58990        1.32130      -12.03760
C          4.12490       -0.33340       -9.21760
N          4.45000       -1.40440       -8.96250
C          2.24030        0.37950       -5.46610
C          0.88030        0.60580       -5.18300
C          0.30780        0.33280       -3.87750
N         -0.98830        0.66860       -3.83210
S         -1.43920        1.19200       -5.26730
N         -0.04420        1.05380       -6.03580
C          1.05630       -0.20300       -2.82120
C          2.39380       -0.49740       -3.11900
N          3.28610       -1.06880       -2.29960
S          4.67780       -1.21480       -3.06760
N          4.25500       -0.58060       -4.47700
C          2.96870       -0.22670       -4.42230
C          0.48860       -0.41040       -1.49830
C         -0.71990       -1.04900       -1.30800
F         -1.37740       -1.57700       -2.34830
C         -1.25540       -1.25660       -0.02740
F         -2.38850       -1.96230        0.06440
C         -0.60330       -0.83270        1.11290
C          0.63890       -0.15790        0.95080
N          1.28510        0.32140        2.02350
C          2.44980        0.89700        1.88170
C          3.08010        1.43680        3.12910
C          2.68100        2.90030        3.33730
C          3.01790        1.06040        0.58380
N          2.36090        0.67140       -0.47680
C          1.18430        0.04240       -0.34340
C          4.37660        1.64110        0.34080
C          5.42730        0.53100        0.43810
C         -1.14490       -1.05420        2.44300
C         -2.47420       -0.75110        2.76710
C         -3.02100       -0.94890        4.09670
N         -4.27610       -0.50220        4.17800
S         -4.72850        0.04940        2.74670
N         -3.37190       -0.19160        1.94560
C         -2.25140       -1.47520        5.15240
C         -0.89910       -1.71640        4.83520
N          0.02200       -2.19230        5.67680
S          1.39980       -2.38780        4.88110
N          0.92570       -1.89970        3.43740
C         -0.35990       -1.52970        3.50230
C         -2.73300       -1.68070        6.47580
C         -4.00130       -2.04410        6.81700
C         -4.97400       -2.69310        5.90060
O         -4.82030       -3.00340        4.74180
C         -6.14190       -3.02850        6.74770
C         -7.32120       -3.63610        6.36770
C         -8.28580       -3.87130        7.34000
Cl        -9.78220       -4.61310        6.93250
C         -8.02970       -3.49830        8.66220
F         -8.96060       -3.73250        9.59440
C         -6.84460       -2.89510        9.05240
C         -5.88700       -2.65550        8.07840
C         -4.56670       -2.03710        8.15290
C         -4.00980       -1.47400        9.27020
C         -4.62030       -1.47350       10.54270
N         -5.06110       -1.44810       11.60190
C         -2.77160       -0.79690        9.30830
N         -1.79110       -0.21110        9.42330
H          3.67800       -0.01200       -6.96850
H          0.74490        5.50240       -7.69310
H          3.34940        3.42420      -11.39460
H          4.16520        1.35040        3.08020
H          2.71600        0.84710        3.97090
H          1.60040        2.98220        3.42230
H          3.00710        3.51770        2.50310
H          3.13170        3.28310        4.24930
H          4.38970        2.05830       -0.66670
H          4.60140        2.43210        1.05520
H          6.41260        0.92740        0.20690
H          5.19150       -0.26250       -0.26690
H          5.45050        0.10380        1.43820
H         -1.98620       -1.55590        7.25010
H         -7.48780       -3.91640        5.33980
H         -6.70760       -2.63840       10.09020
