139

C         -8.59730        1.56340        0.19890
C         -9.16130        2.81850        0.19580
C         -8.40410        4.06260       -0.02920
O         -7.20370        4.21920       -0.13230
C         -9.43210        5.11130       -0.23740
C         -9.24000        6.44450       -0.53020
C        -10.35900        7.25370       -0.68300
Cl       -10.18150        8.93060       -1.03560
C        -11.63070        6.69680       -0.55080
F        -12.70560        7.48290       -0.70360
C        -11.83110        5.35160       -0.27590
C        -10.71340        4.54890       -0.11840
C        -10.56980        3.12100        0.16190
C        -11.59710        2.24980        0.42670
C        -11.42760        0.89630        0.78460
N        -11.37600       -0.20570        1.10390
C        -12.95890        2.60960        0.40410
N        -14.08270        2.84680        0.39200
C         -7.23950        1.29090        0.44080
C         -6.60400        0.15650       -0.11830
C         -5.17770       -0.04070       -0.03410
N         -4.79120       -1.13590       -0.68210
S         -6.08460       -1.86040       -1.31670
N         -7.19210       -0.80260       -0.82910
C         -4.29960        0.85800        0.62930
C         -4.97470        1.84280        1.39400
N         -4.42760        2.61660        2.33010
S         -5.58040        3.51000        3.01160
N         -6.82790        2.96680        2.16040
C         -6.40340        2.05700        1.29100
C         -2.90810        0.66390        0.53890
C         -1.82090        1.47490        0.93930
N         -1.84360        2.80100        1.28130
C         -2.71110        3.73300        0.71670
C         -3.25790        3.55160       -0.55740
C         -4.10870        4.49050       -1.09080
C         -4.43580        5.64450       -0.37670
S         -5.50870        6.78100       -1.16420
C         -5.78920        8.06530        0.09230
C         -3.88080        5.83880        0.88410
C         -3.02650        4.89900        1.41750
C         -0.86340        3.24300        2.19220
C         -0.66890        2.55060        3.38300
C          0.30100        2.95270        4.27930
C          1.09500        4.05680        3.99290
S          2.36610        4.66350        5.04680
C          2.41860        3.46800        6.41160
C          0.89310        4.75800        2.80290
C         -0.07480        4.35860        1.91120
C         -0.60580        0.75580        0.85210
S          1.05870        1.15990        1.16190
C          1.55730       -0.42120        0.59830
C          0.49410       -1.16830        0.07540
N          0.61560       -2.29980       -0.69580
C         -0.48970       -3.16720       -0.73400
C         -1.09780       -3.55690        0.45980
C         -2.26030       -4.29210        0.43300
C         -2.83920       -4.65060       -0.78400
S         -4.37670       -5.50490       -0.69710
C         -4.94120       -5.56480       -2.42130
C         -2.19730       -4.32150       -1.97160
C         -1.02920       -3.58580       -1.94560
C          1.71730       -2.50740       -1.53100
C          2.15100       -3.80030       -1.82380
C          3.28180       -4.00310       -2.58520
C          4.02990       -2.91900       -3.03980
S          5.53670       -3.26460       -3.88470
C          6.40600       -1.66930       -3.87920
C          3.55890       -1.62940       -2.81880
C          2.40420       -1.43020       -2.09430
C         -0.73200       -0.50440        0.28930
S         -2.37200       -0.88020       -0.11730
C          2.91370       -0.82700        0.64940
C          3.98300        0.05310        0.38870
C          5.31210       -0.43590        0.09180
N          6.11560        0.55320       -0.29840
S          5.31240        1.94490       -0.24870
N          3.88620        1.37230        0.22250
C          5.65500       -1.81090        0.13600
C          4.65470       -2.63000        0.70520
N          4.80660       -3.87510        1.14960
S          3.39370       -4.43520        1.64700
N          2.50550       -3.12150        1.37620
C          3.29590       -2.16650        0.88140
C          6.90850       -2.21420       -0.38180
C          7.30280       -3.42010       -0.89520
C          6.46070       -4.59260       -1.22970
O          5.27730       -4.77060       -1.01840
C          7.34700       -5.52030       -1.96260
C          7.03170       -6.74290       -2.51720
C          8.01690       -7.44680       -3.20390
C          7.72780       -8.78510       -3.80620
C          9.29080       -6.89160       -3.31460
C          9.61410       -5.66370       -2.76000
C          8.63160       -4.96600       -2.07260
C          8.64690       -3.68080       -1.38480
C          9.75740       -2.89950       -1.19400
C          9.82000       -1.70340       -0.44770
N          9.98910       -0.73770        0.15150
C         11.03510       -3.20820       -1.70630
N         12.09830       -3.38620       -2.10200
H         -9.20260        0.70840       -0.07580
H         -8.24560        6.84200       -0.64780
H        -12.83980        4.97920       -0.20080
H         -3.00500        2.67380       -1.13230
H         -4.53470        4.34410       -2.07090
H         -6.47870        8.77420       -0.35690
H         -4.85660        8.56850        0.32950
H         -6.23680        7.62140        0.97710
H         -4.11160        6.71610        1.46590
H         -2.62500        5.04790        2.40790
H         -1.29320        1.69850        3.60610
H          0.42330        2.40070        5.19670
H          1.48470        3.49110        6.96540
H          3.23250        3.79330        7.05210
H          2.62790        2.47520        6.02500
H          1.51530        5.61280        2.58790
H         -0.21960        4.89580        0.98630
H         -0.64930       -3.26550        1.39720
H         -2.74570       -4.58440        1.35110
H         -4.96940       -4.55990       -2.83230
H         -5.94410       -5.97860       -2.38590
H         -4.29750       -6.21600       -3.00540
H         -2.60550       -4.61500       -2.92490
H         -0.54580       -3.30760       -2.87050
H          1.60790       -4.64490       -1.42740
H          3.61510       -5.00350       -2.80520
H          5.93830       -0.97990       -4.57610
H          7.41800       -1.88670       -4.20740
H          6.42220       -1.26420       -2.87080
H          4.07650       -0.77260       -3.22010
H          2.03700       -0.42410       -1.95510
H          7.61390       -1.39270       -0.44740
H          6.03240       -7.13820       -2.41250
H          8.19670       -9.56960       -3.21180
H          8.13210       -8.84780       -4.81460
H          6.65820       -8.97440       -3.84080
H         10.05180       -7.43760       -3.85340
H         10.61100       -5.27080       -2.87540
