
  xtb     02102221423D
 energy: -274.613107261130 gnorm: 0.000496374158 xtb: 6.4.1 (unknown)
152167  0     0  0            999 V2000
   -4.5669    1.3122   10.6962 C   0  0  0  0  0  0  0  0  0  0  0  0
   -5.8511    0.8726   10.6223 C   0  0  0  0  0  0  0  0  0  0  0  0
   -6.6648    0.7543    9.3836 C   0  0  0  0  0  0  0  0  0  0  0  0
   -6.3224    0.9412    8.2377 O   0  0  0  0  0  0  0  0  0  0  0  0
   -8.0393    0.4604    9.8418 C   0  0  0  0  0  0  0  0  0  0  0  0
   -9.1675    0.2711    9.0687 C   0  0  0  0  0  0  0  0  0  0  0  0
  -10.3700    0.0054    9.7115 C   0  0  0  0  0  0  0  0  0  0  0  0
  -11.8122   -0.2482    8.8114 Cl  0  0  0  0  0  0  0  0  0  0  0  0
  -10.3997   -0.0546   11.1083 C   0  0  0  0  0  0  0  0  0  0  0  0
  -11.5617   -0.3050   11.7208 F   0  0  0  0  0  0  0  0  0  0  0  0
   -9.2721    0.1369   11.8900 C   0  0  0  0  0  0  0  0  0  0  0  0
   -8.0713    0.3973   11.2453 C   0  0  0  0  0  0  0  0  0  0  0  0
   -6.7280    0.6320   11.7610 C   0  0  0  0  0  0  0  0  0  0  0  0
   -6.3590    0.5627   13.0776 C   0  0  0  0  0  0  0  0  0  0  0  0
   -5.0450    0.7159   13.5709 C   0  0  0  0  0  0  0  0  0  0  0  0
   -4.0085    0.8153   14.0548 N   0  0  0  0  0  0  0  0  0  0  0  0
   -7.2567    0.3040   14.1364 C   0  0  0  0  0  0  0  0  0  0  0  0
   -7.9352    0.1069   15.0404 N   0  0  0  0  0  0  0  0  0  0  0  0
   -3.6072    1.4465    9.6324 C   0  0  0  0  0  0  0  0  0  0  0  0
   -3.5641    0.5631    8.5391 C   0  0  0  0  0  0  0  0  0  0  0  0
   -2.5856    0.7380    7.5922 C   0  0  0  0  0  0  0  0  0  0  0  0
   -2.3373   -0.0416    6.3478 C   0  0  0  0  0  0  0  0  0  0  0  0
   -2.9367   -1.0110    5.9481 O   0  0  0  0  0  0  0  0  0  0  0  0
   -1.2059    0.6657    5.6913 C   0  0  0  0  0  0  0  0  0  0  0  0
   -0.7950    1.7440    6.5007 C   0  0  0  0  0  0  0  0  0  0  0  0
   -1.6449    1.7856    7.6800 C   0  0  0  0  0  0  0  0  0  0  0  0
   -1.6690    2.6442    8.7647 C   0  0  0  0  0  0  0  0  0  0  0  0
   -2.6340    2.4517    9.7375 C   0  0  0  0  0  0  0  0  0  0  0  0
    0.2297    2.5703    6.0807 C   0  0  0  0  0  0  0  0  0  0  0  0
    0.7679    2.3702    4.8194 C   0  0  0  0  0  0  0  0  0  0  0  0
    0.3130    1.3480    3.9828 C   0  0  0  0  0  0  0  0  0  0  0  0
   -0.6493    0.4446    4.4546 C   0  0  0  0  0  0  0  0  0  0  0  0
    0.7478    1.2835    2.6001 C   0  0  0  0  0  0  0  0  0  0  0  0
    0.7734    2.3324    1.6980 C   0  0  0  0  0  0  0  0  0  0  0  0
    0.3446    3.6242    1.9737 N   0  0  0  0  0  0  0  0  0  0  0  0
   -0.7611    3.7954    2.8226 C   0  0  0  0  0  0  0  0  0  0  0  0
   -0.7681    4.7787    3.8117 C   0  0  0  0  0  0  0  0  0  0  0  0
   -1.7866    4.8196    4.7382 C   0  0  0  0  0  0  0  0  0  0  0  0
   -2.8186    3.8837    4.7027 C   0  0  0  0  0  0  0  0  0  0  0  0
   -3.9823    3.9216    6.0286 S   0  0  0  0  0  0  0  0  0  0  0  0
   -5.0440    2.4881    5.7137 C   0  0  0  0  0  0  0  0  0  0  0  0
   -2.8638    2.9654    3.6617 C   0  0  0  0  0  0  0  0  0  0  0  0
   -1.8456    2.9276    2.7320 C   0  0  0  0  0  0  0  0  0  0  0  0
    1.0078    4.7154    1.4103 C   0  0  0  0  0  0  0  0  0  0  0  0
    0.3129    5.8864    1.1010 C   0  0  0  0  0  0  0  0  0  0  0  0
    0.9723    6.9570    0.5435 C   0  0  0  0  0  0  0  0  0  0  0  0
    2.3378    6.8872    0.2691 C   0  0  0  0  0  0  0  0  0  0  0  0
    3.0670    8.3265   -0.4481 S   0  0  0  0  0  0  0  0  0  0  0  0
    4.7953    7.8483   -0.7309 C   0  0  0  0  0  0  0  0  0  0  0  0
    3.0329    5.7258    0.5730 C   0  0  0  0  0  0  0  0  0  0  0  0
    2.3733    4.6543    1.1438 C   0  0  0  0  0  0  0  0  0  0  0  0
    1.1729    1.8842    0.4120 C   0  0  0  0  0  0  0  0  0  0  0  0
    1.3276    2.6420   -1.1388 S   0  0  0  0  0  0  0  0  0  0  0  0
    1.7254    1.1026   -1.8634 C   0  0  0  0  0  0  0  0  0  0  0  0
    1.6920    0.0581   -0.9641 C   0  0  0  0  0  0  0  0  0  0  0  0
    1.7991   -1.2782   -1.3405 N   0  0  0  0  0  0  0  0  0  0  0  0
    1.0531   -1.6926   -2.4598 C   0  0  0  0  0  0  0  0  0  0  0  0
   -0.2470   -1.2245   -2.6281 C   0  0  0  0  0  0  0  0  0  0  0  0
   -0.9704   -1.5279   -3.7638 C   0  0  0  0  0  0  0  0  0  0  0  0
   -0.4000   -2.3125   -4.7568 C   0  0  0  0  0  0  0  0  0  0  0  0
   -1.2017   -2.7185   -6.2727 S   0  0  0  0  0  0  0  0  0  0  0  0
   -2.7510   -1.7709   -6.2235 C   0  0  0  0  0  0  0  0  0  0  0  0
    0.8862   -2.8205   -4.5757 C   0  0  0  0  0  0  0  0  0  0  0  0
    1.6048   -2.5164   -3.4403 C   0  0  0  0  0  0  0  0  0  0  0  0
    2.5549   -2.1633   -0.5791 C   0  0  0  0  0  0  0  0  0  0  0  0
    3.6269   -1.7000    0.1817 C   0  0  0  0  0  0  0  0  0  0  0  0
    4.3740   -2.5650    0.9573 C   0  0  0  0  0  0  0  0  0  0  0  0
    4.0692   -3.9182    0.9787 C   0  0  0  0  0  0  0  0  0  0  0  0
    4.9552   -5.1255    1.9146 S   0  0  0  0  0  0  0  0  0  0  0  0
    6.1507   -4.1492    2.8705 C   0  0  0  0  0  0  0  0  0  0  0  0
    3.0030   -4.3888    0.2131 C   0  0  0  0  0  0  0  0  0  0  0  0
    2.2518   -3.5268   -0.5509 C   0  0  0  0  0  0  0  0  0  0  0  0
    1.3994    0.5199    0.3435 C   0  0  0  0  0  0  0  0  0  0  0  0
    1.1404   -0.2580    1.8630 S   0  0  0  0  0  0  0  0  0  0  0  0
    1.9583    0.9106   -3.2908 C   0  0  0  0  0  0  0  0  0  0  0  0
    0.9300    1.1403   -4.2108 C   0  0  0  0  0  0  0  0  0  0  0  0
    1.0819    0.6544   -5.4886 C   0  0  0  0  0  0  0  0  0  0  0  0
    0.0638    0.5382   -6.5615 C   0  0  0  0  0  0  0  0  0  0  0  0
   -1.0770    0.9405   -6.5468 O   0  0  0  0  0  0  0  0  0  0  0  0
    0.7399   -0.2463   -7.6284 C   0  0  0  0  0  0  0  0  0  0  0  0
    2.0676   -0.5163   -7.2386 C   0  0  0  0  0  0  0  0  0  0  0  0
    2.2692    0.0166   -5.8989 C   0  0  0  0  0  0  0  0  0  0  0  0
    3.3258   -0.1094   -5.0186 C   0  0  0  0  0  0  0  0  0  0  0  0
    3.1480    0.3173   -3.7106 C   0  0  0  0  0  0  0  0  0  0  0  0
    2.9014   -1.2319   -8.0775 C   0  0  0  0  0  0  0  0  0  0  0  0
    2.3786   -1.7473   -9.2521 C   0  0  0  0  0  0  0  0  0  0  0  0
    1.0401   -1.5479   -9.6115 C   0  0  0  0  0  0  0  0  0  0  0  0
    0.2266   -0.7342   -8.8029 C   0  0  0  0  0  0  0  0  0  0  0  0
    0.4601   -2.1117  -10.7995 C   0  0  0  0  0  0  0  0  0  0  0  0
    0.7500   -3.2441  -11.4846 C   0  0  0  0  0  0  0  0  0  0  0  0
    0.1639   -3.3968  -12.8499 C   0  0  0  0  0  0  0  0  0  0  0  0
   -0.7020   -2.7149  -13.3429 O   0  0  0  0  0  0  0  0  0  0  0  0
    0.9011   -4.5172  -13.4681 C   0  0  0  0  0  0  0  0  0  0  0  0
    0.8176   -4.9898  -14.7618 C   0  0  0  0  0  0  0  0  0  0  0  0
    1.6437   -6.0506  -15.1068 C   0  0  0  0  0  0  0  0  0  0  0  0
    1.5733   -6.7488  -16.8714 Br  0  0  0  0  0  0  0  0  0  0  0  0
    2.5282   -6.6105  -14.1929 C   0  0  0  0  0  0  0  0  0  0  0  0
    2.6002   -6.1330  -12.8939 C   0  0  0  0  0  0  0  0  0  0  0  0
    1.7742   -5.0816  -12.5203 C   0  0  0  0  0  0  0  0  0  0  0  0
    1.5937   -4.4007  -11.2381 C   0  0  0  0  0  0  0  0  0  0  0  0
    1.9714   -4.9215  -10.0300 C   0  0  0  0  0  0  0  0  0  0  0  0
    2.7136   -6.1152   -9.8902 C   0  0  0  0  0  0  0  0  0  0  0  0
    3.3294   -7.0671   -9.7122 N   0  0  0  0  0  0  0  0  0  0  0  0
    1.6414   -4.4049   -8.7604 C   0  0  0  0  0  0  0  0  0  0  0  0
    1.4166   -4.0873   -7.6809 N   0  0  0  0  0  0  0  0  0  0  0  0
   -4.2013    1.6236   11.6676 H   0  0  0  0  0  0  0  0  0  0  0  0
   -9.1113    0.3244    7.9931 H   0  0  0  0  0  0  0  0  0  0  0  0
   -9.3661    0.0806   12.9621 H   0  0  0  0  0  0  0  0  0  0  0  0
   -4.2609   -0.2544    8.4524 H   0  0  0  0  0  0  0  0  0  0  0  0
   -0.9525    3.4457    8.8563 H   0  0  0  0  0  0  0  0  0  0  0  0
   -2.6631    3.1120   10.5922 H   0  0  0  0  0  0  0  0  0  0  0  0
    0.5847    3.3786    6.7012 H   0  0  0  0  0  0  0  0  0  0  0  0
    1.5477    3.0269    4.4631 H   0  0  0  0  0  0  0  0  0  0  0  0
   -0.9886   -0.3711    3.8335 H   0  0  0  0  0  0  0  0  0  0  0  0
    0.0445    5.4874    3.8680 H   0  0  0  0  0  0  0  0  0  0  0  0
   -1.7793    5.5591    5.5239 H   0  0  0  0  0  0  0  0  0  0  0  0
   -5.6620    2.3701    6.5979 H   0  0  0  0  0  0  0  0  0  0  0  0
   -5.6670    2.6722    4.8431 H   0  0  0  0  0  0  0  0  0  0  0  0
   -4.4368    1.5975    5.5854 H   0  0  0  0  0  0  0  0  0  0  0  0
   -3.6788    2.2668    3.5686 H   0  0  0  0  0  0  0  0  0  0  0  0
   -1.8779    2.1961    1.9381 H   0  0  0  0  0  0  0  0  0  0  0  0
   -0.7470    5.9446    1.2965 H   0  0  0  0  0  0  0  0  0  0  0  0
    0.4358    7.8619    0.3032 H   0  0  0  0  0  0  0  0  0  0  0  0
    5.2607    8.7063   -1.2058 H   0  0  0  0  0  0  0  0  0  0  0  0
    4.8382    6.9903   -1.3955 H   0  0  0  0  0  0  0  0  0  0  0  0
    5.2857    7.6419    0.2161 H   0  0  0  0  0  0  0  0  0  0  0  0
    4.0903    5.6408    0.3815 H   0  0  0  0  0  0  0  0  0  0  0  0
    2.9292    3.7623    1.3940 H   0  0  0  0  0  0  0  0  0  0  0  0
   -0.6931   -0.6063   -1.8625 H   0  0  0  0  0  0  0  0  0  0  0  0
   -1.9700   -1.1385   -3.8651 H   0  0  0  0  0  0  0  0  0  0  0  0
   -3.2582   -2.0000   -7.1556 H   0  0  0  0  0  0  0  0  0  0  0  0
   -3.3628   -2.0941   -5.3868 H   0  0  0  0  0  0  0  0  0  0  0  0
   -2.5324   -0.7069   -6.1743 H   0  0  0  0  0  0  0  0  0  0  0  0
    1.3146   -3.4366   -5.3500 H   0  0  0  0  0  0  0  0  0  0  0  0
    2.6065   -2.8990   -3.3140 H   0  0  0  0  0  0  0  0  0  0  0  0
    3.8854   -0.6512    0.1615 H   0  0  0  0  0  0  0  0  0  0  0  0
    5.1957   -2.1680    1.5315 H   0  0  0  0  0  0  0  0  0  0  0  0
    6.8572   -3.6641    2.2032 H   0  0  0  0  0  0  0  0  0  0  0  0
    6.6722   -4.8631    3.5005 H   0  0  0  0  0  0  0  0  0  0  0  0
    5.6269   -3.4254    3.4879 H   0  0  0  0  0  0  0  0  0  0  0  0
    2.7669   -5.4416    0.2357 H   0  0  0  0  0  0  0  0  0  0  0  0
    1.4178   -3.9005   -1.1248 H   0  0  0  0  0  0  0  0  0  0  0  0
    0.0100    1.6141   -3.9033 H   0  0  0  0  0  0  0  0  0  0  0  0
    4.2505   -0.5781   -5.3180 H   0  0  0  0  0  0  0  0  0  0  0  0
    3.9344    0.1600   -2.9868 H   0  0  0  0  0  0  0  0  0  0  0  0
    3.9329   -1.4125   -7.8170 H   0  0  0  0  0  0  0  0  0  0  0  0
    3.0235   -2.3011   -9.9195 H   0  0  0  0  0  0  0  0  0  0  0  0
   -0.7997   -0.5415   -9.0768 H   0  0  0  0  0  0  0  0  0  0  0  0
   -0.3340   -1.5213  -11.2501 H   0  0  0  0  0  0  0  0  0  0  0  0
    0.1329   -4.5466  -15.4682 H   0  0  0  0  0  0  0  0  0  0  0  0
    3.1639   -7.4270  -14.4993 H   0  0  0  0  0  0  0  0  0  0  0  0
    3.2982   -6.5783  -12.2042 H   0  0  0  0  0  0  0  0  0  0  0  0
  1  2  2  0  0  0  0
  2  3  1  0  0  0  0
  3  4  2  0  0  0  0
  3  5  1  0  0  0  0
  5  6  2  0  0  0  0
  6  7  1  0  0  0  0
  7  8  1  0  0  0  0
  7  9  2  0  0  0  0
  9 10  1  0  0  0  0
  9 11  1  0  0  0  0
 11 12  2  0  0  0  0
 12 13  1  0  0  0  0
 13 14  2  0  0  0  0
 14 15  1  0  0  0  0
 15 16  3  0  0  0  0
 14 17  1  0  0  0  0
 17 18  3  0  0  0  0
  1 19  1  0  0  0  0
 19 20  2  0  0  0  0
 20 21  1  0  0  0  0
 21 22  1  0  0  0  0
 22 23  2  0  0  0  0
 22 24  1  0  0  0  0
 24 25  2  0  0  0  0
 25 26  1  0  0  0  0
 26 27  1  0  0  0  0
 27 28  2  0  0  0  0
 25 29  1  0  0  0  0
 29 30  2  0  0  0  0
 30 31  1  0  0  0  0
 31 32  2  0  0  0  0
 31 33  1  0  0  0  0
 33 34  2  0  0  0  0
 34 35  1  0  0  0  0
 35 36  1  0  0  0  0
 36 37  2  0  0  0  0
 37 38  1  0  0  0  0
 38 39  2  0  0  0  0
 39 40  1  0  0  0  0
 40 41  1  0  0  0  0
 39 42  1  0  0  0  0
 42 43  2  0  0  0  0
 35 44  1  0  0  0  0
 44 45  2  0  0  0  0
 45 46  1  0  0  0  0
 46 47  2  0  0  0  0
 47 48  1  0  0  0  0
 48 49  1  0  0  0  0
 47 50  1  0  0  0  0
 50 51  2  0  0  0  0
 34 52  1  0  0  0  0
 52 53  1  0  0  0  0
 53 54  1  0  0  0  0
 54 55  2  0  0  0  0
 55 56  1  0  0  0  0
 56 57  1  0  0  0  0
 57 58  2  0  0  0  0
 58 59  1  0  0  0  0
 59 60  2  0  0  0  0
 60 61  1  0  0  0  0
 61 62  1  0  0  0  0
 60 63  1  0  0  0  0
 63 64  2  0  0  0  0
 56 65  1  0  0  0  0
 65 66  2  0  0  0  0
 66 67  1  0  0  0  0
 67 68  2  0  0  0  0
 68 69  1  0  0  0  0
 69 70  1  0  0  0  0
 68 71  1  0  0  0  0
 71 72  2  0  0  0  0
 55 73  1  0  0  0  0
 73 74  1  0  0  0  0
 54 75  1  0  0  0  0
 75 76  2  0  0  0  0
 76 77  1  0  0  0  0
 77 78  1  0  0  0  0
 78 79  2  0  0  0  0
 78 80  1  0  0  0  0
 80 81  2  0  0  0  0
 81 82  1  0  0  0  0
 82 83  1  0  0  0  0
 83 84  2  0  0  0  0
 81 85  1  0  0  0  0
 85 86  2  0  0  0  0
 86 87  1  0  0  0  0
 87 88  2  0  0  0  0
 87 89  1  0  0  0  0
 89 90  2  0  0  0  0
 90 91  1  0  0  0  0
 91 92  2  0  0  0  0
 91 93  1  0  0  0  0
 93 94  2  0  0  0  0
 94 95  1  0  0  0  0
 95 96  1  0  0  0  0
 95 97  2  0  0  0  0
 97 98  1  0  0  0  0
 98 99  2  0  0  0  0
 99100  1  0  0  0  0
100101  2  0  0  0  0
101102  1  0  0  0  0
102103  3  0  0  0  0
101104  1  0  0  0  0
104105  3  0  0  0  0
 13  2  1  0  0  0  0
 28 19  1  0  0  0  0
 74 33  1  0  0  0  0
 84 75  1  0  0  0  0
100 90  1  0  0  0  0
 12  5  1  0  0  0  0
 26 21  2  0  0  0  0
 43 36  1  0  0  0  0
 51 44  1  0  0  0  0
 73 52  2  0  0  0  0
 82 77  2  0  0  0  0
 99 93  1  0  0  0  0
 32 24  1  0  0  0  0
 64 57  1  0  0  0  0
 72 65  1  0  0  0  0
 88 80  1  0  0  0  0
  1106  1  0  0  0  0
  6107  1  0  0  0  0
 11108  1  0  0  0  0
 20109  1  0  0  0  0
 27110  1  0  0  0  0
 28111  1  0  0  0  0
 29112  1  0  0  0  0
 30113  1  0  0  0  0
 32114  1  0  0  0  0
 37115  1  0  0  0  0
 38116  1  0  0  0  0
 41117  1  0  0  0  0
 41118  1  0  0  0  0
 41119  1  0  0  0  0
 42120  1  0  0  0  0
 43121  1  0  0  0  0
 45122  1  0  0  0  0
 46123  1  0  0  0  0
 49124  1  0  0  0  0
 49125  1  0  0  0  0
 49126  1  0  0  0  0
 50127  1  0  0  0  0
 51128  1  0  0  0  0
 58129  1  0  0  0  0
 59130  1  0  0  0  0
 62131  1  0  0  0  0
 62132  1  0  0  0  0
 62133  1  0  0  0  0
 63134  1  0  0  0  0
 64135  1  0  0  0  0
 66136  1  0  0  0  0
 67137  1  0  0  0  0
 70138  1  0  0  0  0
 70139  1  0  0  0  0
 70140  1  0  0  0  0
 71141  1  0  0  0  0
 72142  1  0  0  0  0
 76143  1  0  0  0  0
 83144  1  0  0  0  0
 84145  1  0  0  0  0
 85146  1  0  0  0  0
 86147  1  0  0  0  0
 88148  1  0  0  0  0
 89149  1  0  0  0  0
 94150  1  0  0  0  0
 97151  1  0  0  0  0
 98152  1  0  0  0  0
M  END
