155

C          7.76850       -5.99410       -6.13720
C          7.74630       -7.27480       -6.57240
C          8.93580       -7.89070       -7.22310
O         10.07160       -7.48430       -7.20590
C          8.40010       -9.06670       -7.94930
C          9.06270       -9.91760       -8.81140
C          8.34620      -10.95340       -9.39910
Cl         9.11160      -12.04620      -10.48360
C          6.98830      -11.10420       -9.10190
F          6.30380      -12.09760       -9.68020
C          6.31690      -10.26200       -8.23070
C          7.03400       -9.22830       -7.64780
C          6.64210       -8.21650       -6.67480
C          5.55800       -8.27550       -5.84070
C          5.42150       -7.45710       -4.69790
N          5.32470       -6.87630       -3.71370
C          4.50500       -9.19840       -5.98600
N          3.60340       -9.89990       -6.10310
C          6.61470       -5.16960       -5.86120
C          6.62460       -4.27630       -4.77850
C          5.48270       -3.56230       -4.50770
C          5.18650       -2.65680       -3.36260
O          5.92760       -2.31300       -2.47360
C          3.76300       -2.27720       -3.55860
C          3.28550       -2.83860       -4.75950
C          4.34010       -3.66140       -5.32770
C          4.34880       -4.49400       -6.43140
C          5.48040       -5.25100       -6.67740
C          1.99360       -2.57970       -5.17670
C          1.15590       -1.86200       -4.33830
C          1.58770       -1.41490       -3.08570
C          2.93570       -1.56300       -2.72820
C          0.65750       -0.89440       -2.10760
C         -0.59250       -1.38500       -1.76880
N         -1.22960       -2.47820       -2.33680
C         -2.63070       -2.47820       -2.40540
C         -3.35020       -3.64570       -2.14660
C         -4.72450       -3.63840       -2.20040
C         -5.41650       -2.46700       -2.50730
S         -7.17750       -2.58530       -2.53900
C         -7.72650       -0.87220       -2.78510
C         -4.70580       -1.30600       -2.77410
C         -3.32450       -1.31520       -2.72660
C         -0.50900       -3.56710       -2.84400
C         -0.94340       -4.20600       -4.00370
C         -0.19850       -5.21740       -4.57540
C          1.00280       -5.60770       -3.99990
S          2.07700       -6.81400       -4.71590
C          0.96050       -7.79330       -5.76780
C          1.42040       -5.00520       -2.81520
C          0.66820       -4.00780       -2.23620
C         -1.13080       -0.66540       -0.66790
S         -2.61970       -0.73490        0.20910
C         -2.05930        0.51650        1.30330
C         -0.80620        1.00080        0.96840
N         -0.14340        2.05250        1.58330
C          1.25760        2.02210        1.63470
C          2.00130        3.18730        1.44530
C          3.37620        3.13370        1.41980
C          4.04270        1.91870        1.57370
S          5.80380        1.95470        1.46900
C          6.25040        0.21760        1.18390
C          3.30860        0.76460        1.80910
C          1.92910        0.81990        1.84530
C         -0.85170        3.14210        2.11000
C         -0.45900        3.73170        3.31330
C         -1.22440        4.72410        3.88370
C         -2.39750        5.15610        3.26660
S         -3.34160        6.37160        4.12890
C         -4.86170        6.50610        3.14010
C         -2.75510        4.62060        2.03620
C         -1.98500        3.62890        1.46340
C         -0.28880        0.30700       -0.15770
S          1.19270        0.39080       -1.03840
C         -2.91850        1.01840        2.35450
C         -2.36220        1.35450        3.59970
C         -3.12690        2.06890        4.48630
C         -2.72720        2.66450        5.78940
O         -1.69770        2.49300        6.39500
C         -3.88570        3.51640        6.16690
C         -4.92040        3.34250        5.22500
C         -4.45170        2.44030        4.18350
C         -5.04200        1.99010        3.01730
C         -4.26710        1.27950        2.11250
C         -6.11100        4.03080        5.37610
C         -6.22990        4.92140        6.43000
C         -5.17670        5.15840        7.32270
C         -3.99750        4.40340        7.20860
C         -5.36530        6.15340        8.34910
C         -4.43580        6.98600        8.87770
C         -3.07150        7.25310        8.32850
O         -2.48860        6.67100        7.44380
C         -2.59040        8.44570        9.05310
C         -1.39960        9.12060        8.88150
C         -1.13330       10.23300        9.67670
C          0.15950       10.97070        9.53980
C         -2.08180       10.63350       10.61710
C         -3.28090        9.96180       10.79360
C         -3.54290        8.85040       10.00450
C         -4.68190        7.94610        9.94860
C         -5.75590        7.96000       10.79680
C         -5.93380        8.90360       11.83160
N         -6.14500        9.64140       12.68480
C         -6.82400        7.03740       10.78290
N         -7.72480        6.32800       10.84740
H          8.74510       -5.53200       -6.04280
H         10.11140       -9.77980       -9.02110
H          5.26870      -10.42760       -8.04040
H          7.48940       -4.19840       -4.13760
H          3.48860       -4.57110       -7.07810
H          5.50300       -5.90640       -7.53690
H          1.62840       -2.94680       -6.12350
H          0.14210       -1.65680       -4.64680
H          3.29780       -1.17350       -1.78830
H         -2.81990       -4.55210       -1.89620
H         -5.28360       -4.53800       -1.99420
H         -7.33770       -0.24300       -1.99010
H         -8.81040       -0.90390       -2.73460
H         -7.41550       -0.51430       -3.76230
H         -5.21010       -0.38790       -3.02870
H         -2.77740       -0.40990       -2.94690
H         -1.86250       -3.88900       -4.47470
H         -0.55220       -5.67670       -5.48460
H          0.06920       -8.05060       -5.20480
H          1.51570       -8.69260       -6.01940
H          0.71120       -7.24710       -6.67300
H          2.34310       -5.33030       -2.35990
H          0.99590       -3.55550       -1.31270
H          1.49070        4.12730        1.29920
H          3.95360        4.03070        1.25770
H          7.30570        0.22490        0.93000
H          5.67660       -0.17830        0.35160
H          6.09660       -0.36680        2.08650
H          3.79800       -0.18260        1.96870
H          1.36500       -0.08160        2.03660
H          0.42980        3.38230        3.81600
H         -0.94160        5.15750        4.83040
H         -4.64580        6.95450        2.17460
H         -5.52120        7.15610        3.70650
H         -5.31480        5.52570        3.02950
H         -3.63130        4.96460        1.51120
H         -2.27510        3.21410        0.50920
H         -1.34960        1.07730        3.84740
H         -6.07190        2.21950        2.78660
H         -4.69390        0.96560        1.17050
H         -6.93050        3.88940        4.68680
H         -7.14720        5.48070        6.54910
H         -3.19780        4.50080        7.92300
H         -6.38990        6.26340        8.68560
H         -0.69270        8.77970        8.14000
H          0.90480       10.53190       10.20420
H          0.04320       12.01700        9.81140
H          0.53770       10.90410        8.52270
H         -1.87560       11.49950       11.22930
H         -3.98770       10.31170       11.52820
