
  xtb     02112205133D
 energy: -280.247597947302 gnorm: 0.000667367242 xtb: 6.4.1 (unknown)
154167  0     0  0            999 V2000
   -4.9984   -5.1151    3.0804 C   0  0  0  0  0  0  0  0  0  0  0  0
   -6.3112   -4.9084    2.7832 C   0  0  0  0  0  0  0  0  0  0  0  0
   -6.8606   -3.6557    2.2062 C   0  0  0  0  0  0  0  0  0  0  0  0
   -6.2850   -2.6136    1.9792 O   0  0  0  0  0  0  0  0  0  0  0  0
   -8.3241   -3.8710    2.1340 C   0  0  0  0  0  0  0  0  0  0  0  0
   -9.2892   -3.0127    1.6478 C   0  0  0  0  0  0  0  0  0  0  0  0
  -10.6196   -3.4100    1.7104 C   0  0  0  0  0  0  0  0  0  0  0  0
  -11.8698   -2.3917    1.1131 Cl  0  0  0  0  0  0  0  0  0  0  0  0
  -10.9374   -4.6506    2.2687 C   0  0  0  0  0  0  0  0  0  0  0  0
  -12.2210   -5.0235    2.3337 F   0  0  0  0  0  0  0  0  0  0  0  0
   -9.9747   -5.5152    2.7650 C   0  0  0  0  0  0  0  0  0  0  0  0
   -8.6476   -5.1189    2.6944 C   0  0  0  0  0  0  0  0  0  0  0  0
   -7.4176   -5.7859    3.1092 C   0  0  0  0  0  0  0  0  0  0  0  0
   -7.3313   -7.0489    3.6359 C   0  0  0  0  0  0  0  0  0  0  0  0
   -6.1302   -7.7127    3.9606 C   0  0  0  0  0  0  0  0  0  0  0  0
   -5.1989   -8.3255    4.2385 N   0  0  0  0  0  0  0  0  0  0  0  0
   -8.4462   -7.8661    3.9182 C   0  0  0  0  0  0  0  0  0  0  0  0
   -9.3118   -8.5725    4.1811 N   0  0  0  0  0  0  0  0  0  0  0  0
   -3.9039   -4.3863    2.5216 C   0  0  0  0  0  0  0  0  0  0  0  0
   -3.9334   -3.9527    1.1655 C   0  0  0  0  0  0  0  0  0  0  0  0
   -4.9681   -4.2977    0.3680 N   0  0  0  0  0  0  0  0  0  0  0  0
   -4.9745   -3.8710   -0.8540 C   0  0  0  0  0  0  0  0  0  0  0  0
   -3.9208   -3.0584   -1.3702 C   0  0  0  0  0  0  0  0  0  0  0  0
   -4.0206   -2.6458   -2.6243 O   0  0  0  0  0  0  0  0  0  0  0  0
   -2.9274   -1.8949   -3.1478 C   0  0  0  0  0  0  0  0  0  0  0  0
   -3.2835   -1.4692   -4.5595 C   0  0  0  0  0  0  0  0  0  0  0  0
   -2.8665   -2.7834   -0.6401 N   0  0  0  0  0  0  0  0  0  0  0  0
   -2.8409   -3.2349    0.6308 C   0  0  0  0  0  0  0  0  0  0  0  0
   -1.6783   -2.9999    1.4163 C   0  0  0  0  0  0  0  0  0  0  0  0
   -1.6840   -3.4379    2.7390 C   0  0  0  0  0  0  0  0  0  0  0  0
   -2.7567   -4.1317    3.2655 C   0  0  0  0  0  0  0  0  0  0  0  0
   -0.5757   -2.2813    0.8600 C   0  0  0  0  0  0  0  0  0  0  0  0
    0.7697   -2.3469    1.2218 C   0  0  0  0  0  0  0  0  0  0  0  0
    1.3254   -3.3670    1.9665 N   0  0  0  0  0  0  0  0  0  0  0  0
    2.4388   -3.1243    2.7778 C   0  0  0  0  0  0  0  0  0  0  0  0
    3.4389   -4.0883    2.9143 C   0  0  0  0  0  0  0  0  0  0  0  0
    4.5413   -3.8341    3.6965 C   0  0  0  0  0  0  0  0  0  0  0  0
    4.6777   -2.6128    4.3570 C   0  0  0  0  0  0  0  0  0  0  0  0
    6.1423   -2.3970    5.3152 S   0  0  0  0  0  0  0  0  0  0  0  0
    6.0983   -0.6449    5.7883 C   0  0  0  0  0  0  0  0  0  0  0  0
    3.6751   -1.6600    4.2410 C   0  0  0  0  0  0  0  0  0  0  0  0
    2.5642   -1.9178    3.4618 C   0  0  0  0  0  0  0  0  0  0  0  0
    0.7578   -4.6523    1.8921 C   0  0  0  0  0  0  0  0  0  0  0  0
    0.2844   -5.1450    0.6754 C   0  0  0  0  0  0  0  0  0  0  0  0
   -0.4142   -6.3279    0.6310 C   0  0  0  0  0  0  0  0  0  0  0  0
   -0.6489   -7.0582    1.7970 C   0  0  0  0  0  0  0  0  0  0  0  0
   -1.6442   -8.5017    1.6366 S   0  0  0  0  0  0  0  0  0  0  0  0
   -2.0453   -8.9438    3.3494 C   0  0  0  0  0  0  0  0  0  0  0  0
   -0.1012   -6.6163    2.9938 C   0  0  0  0  0  0  0  0  0  0  0  0
    0.5921   -5.4218    3.0396 C   0  0  0  0  0  0  0  0  0  0  0  0
    1.4945   -1.2869    0.6264 C   0  0  0  0  0  0  0  0  0  0  0  0
    3.1347   -0.7596    0.6933 S   0  0  0  0  0  0  0  0  0  0  0  0
    2.7682    0.6343   -0.3320 C   0  0  0  0  0  0  0  0  0  0  0  0
    1.4444    0.6278   -0.7667 C   0  0  0  0  0  0  0  0  0  0  0  0
    0.8056    1.4980   -1.6296 N   0  0  0  0  0  0  0  0  0  0  0  0
    1.4106    2.1730   -2.6899 C   0  0  0  0  0  0  0  0  0  0  0  0
    0.8420    3.3649   -3.1514 C   0  0  0  0  0  0  0  0  0  0  0  0
    1.4101    4.0546   -4.1947 C   0  0  0  0  0  0  0  0  0  0  0  0
    2.5627    3.5769   -4.8188 C   0  0  0  0  0  0  0  0  0  0  0  0
    3.1749    4.5423   -6.1554 S   0  0  0  0  0  0  0  0  0  0  0  0
    4.6328    3.6385   -6.7337 C   0  0  0  0  0  0  0  0  0  0  0  0
    3.1269    2.3889   -4.3750 C   0  0  0  0  0  0  0  0  0  0  0  0
    2.5524    1.6943   -3.3275 C   0  0  0  0  0  0  0  0  0  0  0  0
   -0.5799    1.6550   -1.4240 C   0  0  0  0  0  0  0  0  0  0  0  0
   -1.4841    1.5130   -2.4754 C   0  0  0  0  0  0  0  0  0  0  0  0
   -2.8380    1.4699   -2.2186 C   0  0  0  0  0  0  0  0  0  0  0  0
   -3.3066    1.5461   -0.9102 C   0  0  0  0  0  0  0  0  0  0  0  0
   -5.0161    1.2099   -0.6040 S   0  0  0  0  0  0  0  0  0  0  0  0
   -4.8931    0.2652    0.9460 C   0  0  0  0  0  0  0  0  0  0  0  0
   -2.4177    1.8218    0.1215 C   0  0  0  0  0  0  0  0  0  0  0  0
   -1.0639    1.8849   -0.1375 C   0  0  0  0  0  0  0  0  0  0  0  0
    0.7377   -0.4712   -0.1992 C   0  0  0  0  0  0  0  0  0  0  0  0
   -0.8837   -1.0725   -0.3610 S   0  0  0  0  0  0  0  0  0  0  0  0
    3.8610    1.5404   -0.5466 C   0  0  0  0  0  0  0  0  0  0  0  0
    3.6747    2.9337   -0.7838 C   0  0  0  0  0  0  0  0  0  0  0  0
    2.4683    3.5020   -0.6132 N   0  0  0  0  0  0  0  0  0  0  0  0
    2.3122    4.7651   -0.8852 C   0  0  0  0  0  0  0  0  0  0  0  0
    3.3778    5.5503   -1.4003 C   0  0  0  0  0  0  0  0  0  0  0  0
    3.2928    6.8080   -1.8380 O   0  0  0  0  0  0  0  0  0  0  0  0
    2.0301    7.4563   -1.9141 C   0  0  0  0  0  0  0  0  0  0  0  0
    1.6266    8.0946   -0.5903 C   0  0  0  0  0  0  0  0  0  0  0  0
    4.5842    5.0358   -1.4569 N   0  0  0  0  0  0  0  0  0  0  0  0
    4.7823    3.7475   -1.1321 C   0  0  0  0  0  0  0  0  0  0  0  0
    6.1072    3.2213   -1.0955 C   0  0  0  0  0  0  0  0  0  0  0  0
    6.2629    1.8986   -0.7137 C   0  0  0  0  0  0  0  0  0  0  0  0
    5.1717    1.0765   -0.4818 C   0  0  0  0  0  0  0  0  0  0  0  0
    7.2119    4.1169   -1.3180 C   0  0  0  0  0  0  0  0  0  0  0  0
    7.0992    5.1514   -2.1839 C   0  0  0  0  0  0  0  0  0  0  0  0
    6.0114    5.2104   -3.2077 C   0  0  0  0  0  0  0  0  0  0  0  0
    5.5355    4.2700   -3.8108 O   0  0  0  0  0  0  0  0  0  0  0  0
    5.9204    6.6402   -3.5793 C   0  0  0  0  0  0  0  0  0  0  0  0
    4.9799    7.2685   -4.3675 C   0  0  0  0  0  0  0  0  0  0  0  0
    5.1106    8.6345   -4.5805 C   0  0  0  0  0  0  0  0  0  0  0  0
    3.9452    9.4874   -5.5168 Cl  0  0  0  0  0  0  0  0  0  0  0  0
    6.1951    9.3180   -4.0261 C   0  0  0  0  0  0  0  0  0  0  0  0
    6.3118   10.6361   -4.2399 F   0  0  0  0  0  0  0  0  0  0  0  0
    7.1611    8.6867   -3.2607 C   0  0  0  0  0  0  0  0  0  0  0  0
    7.0175    7.3261   -3.0276 C   0  0  0  0  0  0  0  0  0  0  0  0
    7.8302    6.4004   -2.2422 C   0  0  0  0  0  0  0  0  0  0  0  0
    9.0281    6.6794   -1.6399 C   0  0  0  0  0  0  0  0  0  0  0  0
    9.7714    5.7331   -0.9043 C   0  0  0  0  0  0  0  0  0  0  0  0
   10.4154    5.0001   -0.2994 N   0  0  0  0  0  0  0  0  0  0  0  0
    9.6758    7.9300   -1.7022 C   0  0  0  0  0  0  0  0  0  0  0  0
   10.2488    8.9244   -1.7233 N   0  0  0  0  0  0  0  0  0  0  0  0
   -4.7349   -5.8944    3.7838 H   0  0  0  0  0  0  0  0  0  0  0  0
   -9.0153   -2.0588    1.2259 H   0  0  0  0  0  0  0  0  0  0  0  0
  -10.2878   -6.4555    3.1888 H   0  0  0  0  0  0  0  0  0  0  0  0
   -5.7936   -4.1668   -1.4932 H   0  0  0  0  0  0  0  0  0  0  0  0
   -2.7473   -1.0280   -2.5043 H   0  0  0  0  0  0  0  0  0  0  0  0
   -2.0276   -2.5210   -3.1324 H   0  0  0  0  0  0  0  0  0  0  0  0
   -2.4726   -0.8811   -4.9788 H   0  0  0  0  0  0  0  0  0  0  0  0
   -3.4521   -2.3412   -5.1855 H   0  0  0  0  0  0  0  0  0  0  0  0
   -4.1908   -0.8715   -4.5491 H   0  0  0  0  0  0  0  0  0  0  0  0
   -0.8519   -3.1927    3.3795 H   0  0  0  0  0  0  0  0  0  0  0  0
   -2.7272   -4.4408    4.3002 H   0  0  0  0  0  0  0  0  0  0  0  0
    3.3463   -5.0289    2.3927 H   0  0  0  0  0  0  0  0  0  0  0  0
    5.3205   -4.5736    3.7977 H   0  0  0  0  0  0  0  0  0  0  0  0
    7.0463   -0.4519    6.2804 H   0  0  0  0  0  0  0  0  0  0  0  0
    5.2822   -0.4625    6.4814 H   0  0  0  0  0  0  0  0  0  0  0  0
    6.0098   -0.0273    4.8996 H   0  0  0  0  0  0  0  0  0  0  0  0
    3.7393   -0.7160    4.7570 H   0  0  0  0  0  0  0  0  0  0  0  0
    1.7800   -1.1783    3.3910 H   0  0  0  0  0  0  0  0  0  0  0  0
    0.4461   -4.5803   -0.2304 H   0  0  0  0  0  0  0  0  0  0  0  0
   -0.7998   -6.6999   -0.3056 H   0  0  0  0  0  0  0  0  0  0  0  0
   -1.1642   -9.3252    3.8573 H   0  0  0  0  0  0  0  0  0  0  0  0
   -2.4625   -8.0827    3.8610 H   0  0  0  0  0  0  0  0  0  0  0  0
   -2.7996   -9.7211    3.2830 H   0  0  0  0  0  0  0  0  0  0  0  0
   -0.2253   -7.1825    3.9025 H   0  0  0  0  0  0  0  0  0  0  0  0
    0.9906   -5.0708    3.9805 H   0  0  0  0  0  0  0  0  0  0  0  0
   -0.0427    3.7533   -2.6695 H   0  0  0  0  0  0  0  0  0  0  0  0
    0.9683    4.9756   -4.5460 H   0  0  0  0  0  0  0  0  0  0  0  0
    5.0473    4.2330   -7.5420 H   0  0  0  0  0  0  0  0  0  0  0  0
    4.3363    2.6618   -7.1051 H   0  0  0  0  0  0  0  0  0  0  0  0
    5.3430    3.5640   -5.9165 H   0  0  0  0  0  0  0  0  0  0  0  0
    4.0189    1.9953   -4.8318 H   0  0  0  0  0  0  0  0  0  0  0  0
    2.9976    0.7644   -3.0077 H   0  0  0  0  0  0  0  0  0  0  0  0
   -1.1169    1.3872   -3.4829 H   0  0  0  0  0  0  0  0  0  0  0  0
   -3.5432    1.3281   -3.0226 H   0  0  0  0  0  0  0  0  0  0  0  0
   -5.7546   -0.3932    0.9920 H   0  0  0  0  0  0  0  0  0  0  0  0
   -4.8970    0.9354    1.8008 H   0  0  0  0  0  0  0  0  0  0  0  0
   -3.9842   -0.3287    0.9225 H   0  0  0  0  0  0  0  0  0  0  0  0
   -2.7767    1.9636    1.1287 H   0  0  0  0  0  0  0  0  0  0  0  0
   -0.3626    2.0689    0.6628 H   0  0  0  0  0  0  0  0  0  0  0  0
    1.3316    5.1713   -0.6853 H   0  0  0  0  0  0  0  0  0  0  0  0
    1.2647    6.7579   -2.2701 H   0  0  0  0  0  0  0  0  0  0  0  0
    2.1752    8.2316   -2.6710 H   0  0  0  0  0  0  0  0  0  0  0  0
    0.6931    8.6352   -0.7177 H   0  0  0  0  0  0  0  0  0  0  0  0
    2.3961    8.7916   -0.2688 H   0  0  0  0  0  0  0  0  0  0  0  0
    1.4957    7.3449    0.1866 H   0  0  0  0  0  0  0  0  0  0  0  0
    7.2586    1.4847   -0.6550 H   0  0  0  0  0  0  0  0  0  0  0  0
    5.3434    0.0323   -0.2636 H   0  0  0  0  0  0  0  0  0  0  0  0
    8.0811    3.9972   -0.6856 H   0  0  0  0  0  0  0  0  0  0  0  0
    4.1599    6.7150   -4.7980 H   0  0  0  0  0  0  0  0  0  0  0  0
    7.9797    9.2679   -2.8678 H   0  0  0  0  0  0  0  0  0  0  0  0
  1  2  2  0  0  0  0
  2  3  1  0  0  0  0
  3  4  2  0  0  0  0
  3  5  1  0  0  0  0
  5  6  2  0  0  0  0
  6  7  1  0  0  0  0
  7  8  1  0  0  0  0
  7  9  2  0  0  0  0
  9 10  1  0  0  0  0
  9 11  1  0  0  0  0
 11 12  2  0  0  0  0
 12 13  1  0  0  0  0
 13 14  2  0  0  0  0
 14 15  1  0  0  0  0
 15 16  3  0  0  0  0
 14 17  1  0  0  0  0
 17 18  3  0  0  0  0
  1 19  1  0  0  0  0
 19 20  1  0  0  0  0
 20 21  2  0  0  0  0
 21 22  1  0  0  0  0
 22 23  2  0  0  0  0
 23 24  1  0  0  0  0
 24 25  1  0  0  0  0
 25 26  1  0  0  0  0
 23 27  1  0  0  0  0
 27 28  2  0  0  0  0
 28 29  1  0  0  0  0
 29 30  2  0  0  0  0
 30 31  1  0  0  0  0
 29 32  1  0  0  0  0
 32 33  2  0  0  0  0
 33 34  1  0  0  0  0
 34 35  1  0  0  0  0
 35 36  2  0  0  0  0
 36 37  1  0  0  0  0
 37 38  2  0  0  0  0
 38 39  1  0  0  0  0
 39 40  1  0  0  0  0
 38 41  1  0  0  0  0
 41 42  2  0  0  0  0
 34 43  1  0  0  0  0
 43 44  2  0  0  0  0
 44 45  1  0  0  0  0
 45 46  2  0  0  0  0
 46 47  1  0  0  0  0
 47 48  1  0  0  0  0
 46 49  1  0  0  0  0
 49 50  2  0  0  0  0
 33 51  1  0  0  0  0
 51 52  1  0  0  0  0
 52 53  1  0  0  0  0
 53 54  2  0  0  0  0
 54 55  1  0  0  0  0
 55 56  1  0  0  0  0
 56 57  2  0  0  0  0
 57 58  1  0  0  0  0
 58 59  2  0  0  0  0
 59 60  1  0  0  0  0
 60 61  1  0  0  0  0
 59 62  1  0  0  0  0
 62 63  2  0  0  0  0
 55 64  1  0  0  0  0
 64 65  2  0  0  0  0
 65 66  1  0  0  0  0
 66 67  2  0  0  0  0
 67 68  1  0  0  0  0
 68 69  1  0  0  0  0
 67 70  1  0  0  0  0
 70 71  2  0  0  0  0
 54 72  1  0  0  0  0
 72 73  1  0  0  0  0
 53 74  1  0  0  0  0
 74 75  1  0  0  0  0
 75 76  2  0  0  0  0
 76 77  1  0  0  0  0
 77 78  2  0  0  0  0
 78 79  1  0  0  0  0
 79 80  1  0  0  0  0
 80 81  1  0  0  0  0
 78 82  1  0  0  0  0
 82 83  2  0  0  0  0
 83 84  1  0  0  0  0
 84 85  2  0  0  0  0
 85 86  1  0  0  0  0
 84 87  1  0  0  0  0
 87 88  2  0  0  0  0
 88 89  1  0  0  0  0
 89 90  2  0  0  0  0
 89 91  1  0  0  0  0
 91 92  2  0  0  0  0
 92 93  1  0  0  0  0
 93 94  1  0  0  0  0
 93 95  2  0  0  0  0
 95 96  1  0  0  0  0
 95 97  1  0  0  0  0
 97 98  2  0  0  0  0
 98 99  1  0  0  0  0
 99100  2  0  0  0  0
100101  1  0  0  0  0
101102  3  0  0  0  0
100103  1  0  0  0  0
103104  3  0  0  0  0
 13  2  1  0  0  0  0
 31 19  2  0  0  0  0
 73 32  1  0  0  0  0
 86 74  2  0  0  0  0
 99 88  1  0  0  0  0
 12  5  1  0  0  0  0
 28 20  1  0  0  0  0
 42 35  1  0  0  0  0
 50 43  1  0  0  0  0
 72 51  2  0  0  0  0
 83 75  1  0  0  0  0
 98 91  1  0  0  0  0
 63 56  1  0  0  0  0
 71 64  1  0  0  0  0
  1105  1  0  0  0  0
  6106  1  0  0  0  0
 11107  1  0  0  0  0
 22108  1  0  0  0  0
 25109  1  0  0  0  0
 25110  1  0  0  0  0
 26111  1  0  0  0  0
 26112  1  0  0  0  0
 26113  1  0  0  0  0
 30114  1  0  0  0  0
 31115  1  0  0  0  0
 36116  1  0  0  0  0
 37117  1  0  0  0  0
 40118  1  0  0  0  0
 40119  1  0  0  0  0
 40120  1  0  0  0  0
 41121  1  0  0  0  0
 42122  1  0  0  0  0
 44123  1  0  0  0  0
 45124  1  0  0  0  0
 48125  1  0  0  0  0
 48126  1  0  0  0  0
 48127  1  0  0  0  0
 49128  1  0  0  0  0
 50129  1  0  0  0  0
 57130  1  0  0  0  0
 58131  1  0  0  0  0
 61132  1  0  0  0  0
 61133  1  0  0  0  0
 61134  1  0  0  0  0
 62135  1  0  0  0  0
 63136  1  0  0  0  0
 65137  1  0  0  0  0
 66138  1  0  0  0  0
 69139  1  0  0  0  0
 69140  1  0  0  0  0
 69141  1  0  0  0  0
 70142  1  0  0  0  0
 71143  1  0  0  0  0
 77144  1  0  0  0  0
 80145  1  0  0  0  0
 80146  1  0  0  0  0
 81147  1  0  0  0  0
 81148  1  0  0  0  0
 81149  1  0  0  0  0
 85150  1  0  0  0  0
 86151  1  0  0  0  0
 87152  1  0  0  0  0
 92153  1  0  0  0  0
 97154  1  0  0  0  0
M  END
