172

C          3.28790        8.87070       -3.06390
C          3.69020        9.17720       -4.33780
C          3.95230        8.17800       -5.39680
O          3.86470        6.97070       -5.33410
C          4.51980        8.94820       -6.52980
C          4.92110        8.47960       -7.76340
C          5.45320        9.38680       -8.67230
Cl         5.96300        8.86960      -10.23230
C          5.57420       10.72890       -8.30890
F          6.09470       11.59650       -9.18700
C          5.17970       11.20510       -7.06790
C          4.64330       10.29930       -6.16650
C          4.13330       10.46940       -4.80750
C          4.03220       11.66540       -4.14220
C          3.46110       11.84080       -2.86690
N          3.00000       12.08630       -1.84350
C          4.47820       12.89860       -4.66060
N          4.82670       13.93050       -5.02370
C          2.64500        7.67560       -2.66400
C          1.75810        6.93020       -3.47330
C          1.10170        5.72620       -3.00800
N          0.33100        5.18420       -3.95510
S          0.39550        6.10780       -5.26580
N          1.37950        7.24200       -4.71130
C          1.29640        5.20650       -1.71190
C          2.22790        5.91720       -0.92480
N          2.58340        5.60380        0.32200
S          3.57130        6.73500        0.88810
N          3.59960        7.68630       -0.41020
C          2.83100        7.15520       -1.36200
C          0.61380        4.07620       -1.18890
C         -0.70920        3.66420       -1.40060
N         -1.69070        4.43210       -1.98010
C         -2.77330        3.81840       -2.61570
C         -4.05490        4.36230       -2.51140
C         -5.12250        3.73170       -3.10650
C         -4.93980        2.54320       -3.81420
S         -6.38320        1.81000       -4.50880
C         -5.84230        0.12990       -4.93650
C         -3.66060        2.01810       -3.94850
C         -2.58740        2.65340       -3.35660
C         -1.59950        5.83120       -1.92270
C         -1.94370        6.61790       -3.02210
C         -1.65930        7.96550       -3.02360
C         -1.03570        8.56190       -1.92730
S         -0.55720       10.24490       -2.08910
C          0.52190       10.51530       -0.65730
C         -0.81520        7.80330       -0.78130
C         -1.10060        6.45490       -0.78080
C         -0.95030        2.43040       -0.74670
S         -2.29840        1.34640       -0.65070
C         -1.40860        0.30540        0.44800
C         -0.11620        0.75330        0.68550
N          0.86000        0.09760        1.41350
C          1.79830        0.88250        2.10260
C          3.15060        0.55890        2.08380
C          4.07710        1.37890        2.69810
C          3.66420        2.54160        3.33560
S          4.75510        3.69580        4.10340
C          6.41080        3.07470        3.69340
C          2.30590        2.84690        3.39180
C          1.38220        2.02450        2.78870
C          0.94930       -1.29950        1.41880
C          0.60520       -2.03790        0.28920
C          0.52620       -3.41570        0.34140
C          0.81170       -4.08240        1.52480
S          0.63310       -5.82380        1.74380
C         -0.06920       -6.39270        0.17110
C          1.25240       -3.35400        2.62960
C          1.31950       -1.98030        2.58110
C          0.12160        1.97320        0.00430
S          1.47580        3.04190       -0.06720
C         -1.98810       -0.91730        0.91270
C         -2.63670       -1.85780        0.16920
C         -2.84860       -3.07100        0.86520
C         -3.33110       -4.28320        0.34000
C         -3.70560       -4.40680       -1.06010
S         -2.56730       -4.01910       -2.32080
C         -3.67900       -4.46290       -3.57150
C         -3.32290       -4.31010       -5.00910
C         -3.61390       -2.88860       -5.49610
C         -4.85810       -4.87550       -3.02850
Cl        -6.21120       -5.37900       -3.95540
C         -4.87350       -4.85690       -1.60580
Cl        -6.25450       -5.29530       -0.69090
C         -3.35090       -5.37490        1.19580
C         -2.86550       -5.32070        2.53100
C         -2.33780       -4.11300        3.04870
C         -1.66120       -4.06950        4.32010
C         -0.87910       -5.03650        4.90050
C         -0.26890       -4.61020        6.09240
C         -0.58030       -3.32920        6.43990
C         -0.08010       -2.52720        7.59000
C          0.92540       -1.47310        7.11920
S         -1.64440       -2.61330        5.27840
C         -2.39340       -3.00760        2.20480
S         -1.76840       -1.42550        2.57170
C         -2.94840       -6.57150        3.17000
C         -3.41440       -7.58190        2.36320
S         -3.85240       -6.97990        0.76570
C         -3.61810       -8.95560        2.61600
C         -3.02930       -9.74830        3.56320
C         -1.82800       -9.42270        4.36720
O         -1.28150       -8.35070        4.51910
C         -1.36660      -10.70920        4.92560
C         -0.25450      -10.95150        5.67860
C          0.00750      -12.27110        6.10850
C          1.14100      -12.57760        6.88600
C          1.37410      -13.86390        7.28460
F          2.45430      -14.15430        8.02290
C          0.48560      -14.89690        6.92480
F          0.73980      -16.14830        7.32970
C         -0.62310      -14.63020        6.17150
C         -0.89230      -13.31440        5.74420
C         -2.03690      -13.03030        4.96410
C         -2.27260      -11.74220        4.56110
C         -3.34300      -11.15210        3.76380
C         -4.47810      -11.80010        3.35300
C         -5.55880      -11.19620        2.67490
N         -6.48580      -10.77440        2.14480
C         -4.73480      -13.16550        3.59660
N         -4.99290      -14.27220        3.75880
H          3.51590        9.56120       -2.26060
H          4.82000        7.43580       -8.01440
H          5.30690       12.25250       -6.84790
H         -4.20560        5.27010       -1.94710
H         -6.11670        4.14150       -3.01880
H         -6.74650       -0.40960       -5.20050
H         -5.16790        0.15320       -5.78760
H         -5.37390       -0.32990       -4.07150
H         -3.48550        1.12200       -4.52160
H         -1.59050        2.25970       -3.48370
H         -2.38400        6.15350       -3.89150
H         -1.88100        8.56890       -3.89020
H         -0.06840       10.57920        0.25230
H          1.02840       11.45770       -0.84320
H          1.25730        9.71830       -0.60170
H         -0.41710        8.25320        0.11360
H         -0.90760        5.87160        0.10760
H          3.47810       -0.33300        1.57030
H          5.11900        1.10570        2.65680
H          7.10490        3.80690        4.09410
H          6.52340        3.00990        2.61530
H          6.57880        2.11240        4.16830
H          1.98910        3.73880        3.90940
H          0.33010        2.26300        2.83670
H          0.37230       -1.52910       -0.63420
H          0.22730       -3.94920       -0.54630
H          0.65660       -6.27570       -0.62830
H         -0.29140       -7.44550        0.31610
H         -0.98330       -5.84810       -0.04570
H          1.50540       -3.88070        3.53670
H          1.61550       -1.41940        3.45450
H         -2.88110       -1.70910       -0.86660
H         -2.26340       -4.53220       -5.14690
H         -3.90950       -5.02230       -5.59180
H         -3.04120       -2.16800       -4.91620
H         -3.34120       -2.78990       -6.54330
H         -4.67230       -2.66490       -5.38820
H         -0.69500       -6.00010        4.46350
H          0.38550       -5.23510        6.67370
H          0.39540       -3.19660        8.30950
H         -0.91620       -2.02750        8.08470
H          1.29000       -0.89480        7.96410
H          1.77300       -1.95050        6.63220
H          0.45510       -0.79560        6.40970
H         -2.71830       -6.72080        4.20600
H         -4.28610       -9.44040        1.91300
H          0.41630      -10.14720        5.94010
H          1.83070      -11.79780        7.16870
H         -1.29340      -15.43280        5.90610
H         -2.69420      -13.84240        4.69890
