162

C          1.85460       -7.40760        9.79060
C          2.94980       -6.70310       10.13590
C          3.32140       -5.41380        9.47570
O          2.63670       -4.74610        8.73830
C          4.65470       -5.07650       10.00980
C          5.47970       -4.03390        9.63690
C          6.70440       -3.90350       10.27860
Cl         7.78770       -2.63830        9.85770
C          7.05530       -4.81750       11.27880
F          8.23600       -4.68330       11.89240
C          6.23130       -5.86280       11.66060
C          5.01020       -5.99740       11.01290
C          3.94580       -6.98110       11.16720
C          3.89420       -7.97260       12.10610
C          2.83390       -8.89550       12.24000
N          2.00050       -9.66660       12.40560
C          4.88780       -8.18780       13.08660
N          5.66140       -8.41100       13.90360
C          1.07470       -7.04290        8.60970
C          1.68960       -7.08760        7.35080
C          0.97970       -6.65250        6.25900
C          1.39710       -6.56940        4.83510
O          2.42200       -6.97470        4.33590
C          0.28650       -5.84620        4.16760
C         -0.72720       -5.57850        5.10680
C         -0.31810       -6.12330        6.39720
C         -0.94330       -6.13330        7.62660
C         -0.24450       -6.61870        8.72560
C         -1.81820       -4.81370        4.75030
C         -1.83930       -4.25080        3.48150
C         -0.82000       -4.48450        2.56200
C          0.23310       -5.34320        2.88730
C         -0.78440       -3.65700        1.35440
C         -0.49590       -2.31200        1.40500
N         -0.09880       -1.64430        2.55790
C         -0.44800       -0.29980        2.70530
C         -1.70400        0.14370        2.28460
C         -2.01630        1.48380        2.31430
C         -1.08960        2.41380        2.77900
S         -1.57200        4.11220        2.69990
C         -0.04340        5.01450        3.07990
C          0.13350        1.97120        3.26440
C          0.45150        0.62770        3.22430
C          0.86190       -2.24430        3.39340
C          1.95070       -2.91590        2.84580
C          2.88240       -3.53550        3.65510
C          2.73530       -3.49680        5.03490
S          3.87290       -4.22910        6.16390
C          4.95190       -5.23920        5.10700
C          1.64990       -2.81940        5.58990
C          0.72620       -2.19510        4.78000
C         -0.62360       -1.71910        0.12570
S         -0.42130       -0.11810       -0.46750
C         -0.87800       -0.63510       -2.09410
C         -1.09960       -2.00800       -2.16340
N         -1.38560       -2.74560       -3.29500
C         -2.21710       -3.87200       -3.15970
C         -3.38150       -3.79680       -2.39540
C         -4.18210       -4.90590       -2.24270
C         -3.84370       -6.11210       -2.85420
S         -4.94460       -7.46180       -2.58080
C         -4.18210       -8.84360       -3.47710
C         -2.69210       -6.18580       -3.62750
C         -1.88550       -5.07460       -3.77480
C         -0.82960       -2.43590       -4.53890
C         -1.55320       -2.68480       -5.70600
C         -1.05680       -2.28470       -6.92860
C          0.16320       -1.63020       -7.00220
S          0.73510       -1.00450       -8.56910
C          0.57480        0.77380       -8.20900
C          0.92170       -1.44460       -5.85580
C          0.43330       -1.85020       -4.63160
C         -0.97530       -2.60400       -0.87780
S         -1.13850       -4.21910       -0.26020
C         -1.01280        0.42570       -3.03330
C         -0.58090        1.70640       -2.79600
C         -0.90860        2.62730       -3.81040
C         -0.64810        4.00580       -3.87070
O          0.02200        4.68070       -2.88700
C         -0.66330        4.85380       -1.65220
C         -1.83040        5.82550       -1.77320
C         -1.03610        4.67310       -5.02090
C         -1.65810        4.02410       -6.12440
C         -1.96450        2.64600       -6.04060
O         -2.52860        1.94210       -7.07140
C         -3.89760        2.21280       -7.35200
C         -4.81950        1.67780       -6.26330
C         -1.59770        1.99620       -4.88140
S         -1.87420        0.30490       -4.55600
C         -1.87670        4.92240       -7.17660
C         -1.48560        6.22490       -6.89960
S         -0.79980        6.37210       -5.29270
C         -1.65220        7.25330       -7.84590
C         -1.39320        8.59630       -7.76520
C         -0.85850        9.31090       -6.59480
O         -0.54760        8.85540       -5.51360
C         -0.77870       10.73290       -6.99310
C         -0.34440       11.80540       -6.24140
C         -0.36090       13.06690       -6.82380
Cl         0.16440       14.44830       -5.94480
C         -0.81200       13.20610       -8.13850
F         -0.82740       14.42380       -8.69360
C         -1.24860       12.13220       -8.89850
C         -1.23180       10.87420       -8.31540
C         -1.62280        9.56110       -8.82520
C         -2.11770        9.32310      -10.08190
C         -2.30610       10.32480      -11.05820
N         -2.49070       11.08870      -11.89500
C         -2.51570        8.07110      -10.59560
N         -2.86420        7.09730      -11.09600
H          1.53200       -8.27040       10.35810
H          5.17560       -3.35320        8.85760
H          6.56360       -6.53270       12.43690
H          2.70240       -7.44650        7.24560
H         -1.94740       -5.75610        7.74630
H         -0.70870       -6.61070        9.70080
H         -2.61350       -4.60990        5.45070
H         -2.64830       -3.59080        3.20430
H          1.01710       -5.55360        2.17610
H         -2.42730       -0.57000        1.91890
H         -2.97890        1.82830        1.96890
H         -0.27460        6.06290        2.91910
H          0.23930        4.85660        4.11670
H          0.74510        4.70040        2.40250
H          0.85890        2.66350        3.66020
H          1.41600        0.29470        3.57790
H          2.07110       -2.94630        1.77240
H          3.71530       -4.04440        3.19860
H          4.34780       -5.94890        4.54830
H          5.53910       -4.60420        4.45050
H          5.61160       -5.76950        5.78720
H          1.54240       -2.80480        6.66360
H         -0.11290       -1.67080        5.21240
H         -3.65310       -2.86200       -1.92770
H         -5.08350       -4.85260       -1.65190
H         -3.19680       -9.05120       -3.07000
H         -4.13440       -8.61910       -4.53870
H         -4.83580       -9.69410       -3.31050
H         -2.40450       -7.10330       -4.11420
H         -0.98600       -5.13900       -4.36890
H         -2.52270       -3.15500       -5.64150
H         -1.62610       -2.44900       -7.83000
H          0.87260        1.29770       -9.11110
H         -0.46050        0.99610       -7.96690
H          1.22860        1.04520       -7.38530
H          1.89280       -0.97740       -5.92180
H          1.02150       -1.69750       -3.73890
H         -0.00910        1.96880       -1.92350
H         -1.01790        3.89130       -1.26360
H          0.09710        5.25230       -0.97700
H         -2.26250        5.99850       -0.79140
H         -2.59790        5.41630       -2.42770
H         -1.48770        6.77000       -2.18850
H         -4.05820        3.28920       -7.48330
H         -4.08510        1.70390       -8.30000
H         -5.85520        1.82290       -6.55720
H         -4.64330        2.20150       -5.32550
H         -4.63690        0.61720       -6.10800
H         -2.29240        4.64200       -8.12900
H         -2.06420        6.89660       -8.78230
H         -0.00240       11.66350       -5.22870
H         -1.58360       12.31250       -9.90670
