108

C        -10.50810        0.87200       -1.82680
C        -10.44830        1.20350       -3.14050
C         -9.30300        0.90380       -4.04840
O         -8.22570        0.43580       -3.76730
C         -9.79750        1.20710       -5.40940
C         -9.11950        1.07030       -6.60450
C         -9.77800        1.41200       -7.77910
Cl        -8.99300        1.27360       -9.30100
C        -11.09700        1.87340       -7.71370
F        -11.72700        2.19470       -8.84830
C        -11.78390        2.01030       -6.51870
C        -11.12190        1.67270       -5.34670
C        -11.54930        1.70620       -3.95310
C        -12.74450        2.18890       -3.49640
C        -13.76790        2.68610       -4.33340
N        -14.63710        3.09630       -4.95970
C        -13.12130        2.27860       -2.13820
N        -13.49650        2.39500       -1.05970
C         -9.39950        0.45780       -1.00070
C         -8.13250        1.05560       -1.11280
C         -7.11780        0.59720       -0.31040
C         -5.69960        1.04810       -0.24480
O         -5.18410        1.96640       -0.83410
C         -5.06870        0.12230        0.73240
C         -6.04200       -0.75570        1.24870
C         -7.31600       -0.45730        0.60500
C         -8.57260       -1.01590        0.75160
C         -9.60610       -0.53810       -0.03870
C         -5.68170       -1.71000        2.18000
C         -4.35050       -1.79420        2.56980
C         -3.38170       -0.94180        2.04430
C         -3.75170        0.03950        1.11510
C         -1.96640       -1.06760        2.40810
C         -1.32140       -2.28390        2.46560
F         -1.99850       -3.42600        2.25380
C          0.06280       -2.38570        2.68210
F          0.59710       -3.61850        2.70200
C          0.86290       -1.27980        2.86900
C          0.21940       -0.01360        2.87720
N          0.95190        1.10180        3.05840
C          0.36630        2.27000        3.03910
C          1.22850        3.48120        3.22990
C          2.69970        3.13400        3.41290
C         -1.04800        2.36970        2.85890
N         -1.77010        1.29630        2.67470
C         -1.17620        0.08860        2.64880
C         -1.78460        3.67290        2.82550
C         -1.87260        4.19460        1.38810
C          2.32430       -1.37920        2.96420
C          3.01850       -2.16140        2.03310
C          4.39280       -2.18040        2.08460
C          5.35140       -2.88970        1.19570
O          5.10540       -3.63340        0.27920
C          6.69090       -2.47510        1.70110
C          6.52940       -1.63280        2.82010
C          5.10240       -1.44130        3.05110
C          4.41540       -0.68720        3.98330
C          3.02810       -0.66150        3.92860
C          7.64210       -1.15340        3.48780
C          8.89830       -1.49790        3.01450
C          9.06500       -2.27680        1.86280
C          7.93210       -2.79640        1.21280
C         10.39960       -2.56770        1.39930
C         10.79670       -2.65050        0.10440
C         10.02080       -2.13860       -1.06160
O          8.91120       -1.66170       -1.07380
C         10.94440       -2.23230       -2.21370
C         10.70390       -1.86240       -3.52310
C         11.72770       -2.03800       -4.43870
F         11.54080       -1.69850       -5.71800
C         12.95750       -2.56570       -4.03770
F         13.92970       -2.71790       -4.94180
C         13.19950       -2.93350       -2.72350
C         12.17680       -2.76480       -1.80070
C         12.11410       -3.05260       -0.37040
C         13.09710       -3.65480        0.36440
C         13.00500       -3.98330        1.73530
N         13.00650       -4.28940        2.84140
C         14.34920       -4.04790       -0.15870
N         15.38380       -4.38350       -0.52290
H        -11.47400        0.87530       -1.33580
H         -8.10320        0.71010       -6.61940
H        -12.80070        2.36710       -6.54020
H         -7.96030        1.87470       -1.79180
H         -8.75210       -1.80750        1.46300
H        -10.59190       -0.97010        0.05830
H         -6.41060       -2.38870        2.59600
H         -4.06440       -2.53690        3.29900
H         -3.01610        0.70170        0.68930
H          0.86790        4.03360        4.10280
H          1.10570        4.13490        2.36230
H          3.05930        2.55370        2.56810
H          3.28980        4.04310        3.49730
H          2.83860        2.54020        4.31140
H         -1.29150        4.41030        3.45920
H         -2.79530        3.50050        3.19720
H         -0.88220        4.32430        0.95710
H         -2.43110        3.49650        0.77020
H         -2.38450        5.15310        1.37260
H          2.49740       -2.72220        1.27240
H          4.93980       -0.11960        4.73700
H          2.47560       -0.07700        4.64630
H          7.54230       -0.52610        4.36050
H          9.77720       -1.12720        3.52230
H          8.02790       -3.45920        0.36830
H         11.14110       -2.70050        2.17800
H          9.75240       -1.45480       -3.82550
H         14.16720       -3.33110       -2.46510
