158

C         -2.93950       -1.10780      -11.95060
C         -1.91320       -0.89530      -12.81260
C         -2.23100       -0.36980      -14.17280
O         -3.31970       -0.31980      -14.69230
C         -0.94200        0.11640      -14.71110
C         -0.70290        0.80610      -15.88290
C          0.60250        1.18780      -16.16870
Cl         0.96930        2.04980      -17.61030
C          1.62410        0.86660      -15.27020
F          2.87470        1.25050      -15.54700
C          1.39450        0.16530      -14.09710
C          0.09190       -0.21670      -13.81730
C         -0.46870       -0.97930      -12.70510
C          0.24300       -1.81930      -11.89140
C          1.64840       -1.94130      -11.92040
N          2.78780       -2.07270      -11.90650
C         -0.35850       -2.73250      -11.00350
N         -0.80260       -3.52830      -10.30590
C         -2.96180       -1.24800      -10.52160
C         -1.93330       -0.75080       -9.69940
C         -2.07290       -0.83990       -8.33770
C         -1.12550       -0.41640       -7.26900
O         -0.03640        0.08660       -7.41030
C         -1.82270       -0.76240       -6.00360
C         -3.08580       -1.31630       -6.30110
C         -3.22300       -1.40350       -7.74490
C         -4.23170       -1.91100       -8.54600
C         -4.09450       -1.81750       -9.91960
C         -3.95640       -1.63510       -5.27500
C         -3.52670       -1.48340       -3.96760
C         -2.22800       -1.05350       -3.66590
C         -1.38830       -0.62900       -4.70670
C         -1.73090       -1.09520       -2.30920
C         -1.94420       -2.06960       -1.34520
N         -2.65280       -3.24820       -1.50700
C         -2.74660       -3.87510       -2.75700
C         -1.66700       -3.89320       -3.63590
C         -1.81100       -4.37190       -4.92240
C         -3.03940       -4.86080       -5.34910
S         -3.38010       -5.38680       -6.99550
C         -1.86540       -4.99240       -7.90250
C         -4.09550       -4.93320       -4.44200
C         -3.95490       -4.44480       -3.16400
C         -3.32970       -3.79300       -0.40560
C         -3.34760       -5.17010       -0.20520
C         -4.01010       -5.71710        0.87550
C         -4.66310       -4.89180        1.78200
S         -5.53630       -5.46830        3.20230
C         -5.35970       -7.27320        3.12630
C         -4.65100       -3.51260        1.58280
C         -3.99800       -2.96830        0.50020
C         -1.25690       -1.74740       -0.14500
S         -1.07420       -2.53300        1.38450
C         -0.04010       -1.23490        1.95260
C          0.20330       -0.28090        0.97920
N          1.08170        0.78640        1.08240
C          2.22390        0.70120        1.89000
C          2.62470        1.78910        2.66140
C          3.66480        1.67270        3.56230
C          4.31790        0.45800        3.71490
S          5.56230        0.14380        4.92790
C          5.74790        1.73160        5.78530
C          3.97520       -0.61000        2.88700
C          2.95090       -0.48790        1.97710
C          0.77790        1.98460        0.41940
C          1.79090        2.73000       -0.18510
C          1.49050        3.89930       -0.84430
C          0.17340        4.35130       -0.92340
S         -0.08310        5.86160       -1.79950
C         -1.88330        6.09100       -1.76180
C         -0.83640        3.61600       -0.31990
C         -0.53310        2.44580        0.34960
C         -0.51710       -0.57960       -0.20750
S         -0.63070        0.16230       -1.76300
C          0.52510       -1.28850        3.28510
C          0.65730       -0.10940        4.03770
C          1.38260       -0.15380        5.20290
C          1.76210        0.95940        6.10780
O          1.47640        2.13090        6.01560
C          2.61820        0.31720        7.14000
C          2.73810       -1.05890        6.86140
C          1.95790       -1.35360        5.66790
C          1.73290       -2.53350        4.98640
C          1.01560       -2.48850        3.79990
C          3.54030       -1.85490        7.65670
C          4.20200       -1.27360        8.72650
C          4.04350        0.07830        9.04360
C          3.24670        0.88840        8.21830
C          4.73560        0.63570       10.18170
C          4.33570        1.64350       10.98510
C          5.32470        2.33150       11.86990
O          6.42940        1.92190       12.14880
C          4.68000        3.59810       12.25430
C          3.36680        3.61620       11.78020
C          2.54980        4.73670       11.98300
C          3.06140        5.80870       12.66590
C          4.37860        5.81500       13.17630
C          4.89060        6.91690       13.89070
C          6.17020        6.90050       14.37460
C          6.99700        5.78510       14.16570
C          6.53720        4.69730       13.47600
C          5.22210        4.68490       12.96870
C          3.07050        2.34520       11.12890
C          1.82360        1.81990       10.93300
C          0.62360        2.50980       11.20820
N         -0.38060        3.02530       11.41160
C          1.58350        0.48790       10.53150
N          1.32210       -0.59790       10.26820
H         -3.91750       -1.08330      -12.42430
H         -1.51070        1.04140      -16.55730
H          2.22380       -0.04870      -13.44260
H         -1.07010       -0.25790      -10.11980
H         -5.10850       -2.36680       -8.11280
H         -4.87660       -2.20340      -10.55680
H         -4.95010       -2.00170       -5.48090
H         -4.20640       -1.70160       -3.15860
H         -0.40450       -0.23810       -4.49300
H         -0.71140       -3.50410       -3.31750
H         -0.96080       -4.34830       -5.58430
H         -1.63820       -3.93500       -7.80440
H         -2.07090       -5.21820       -8.94340
H         -1.04510       -5.60960       -7.54800
H         -5.03650       -5.34970       -4.76680
H         -4.79060       -4.46970       -2.48040
H         -2.83480       -5.81480       -0.90360
H         -4.00090       -6.78750        1.00160
H         -4.31140       -7.54810        3.19650
H         -5.89830       -7.65420        3.98830
H         -5.80960       -7.65330        2.21380
H         -5.16700       -2.87660        2.28530
H         -4.00730       -1.89930        0.34560
H          2.09490        2.72640        2.58380
H          3.92790        2.53050        4.15860
H          6.12400        2.48250        5.09650
H          6.47430        1.55520        6.57280
H          4.79850        2.03090        6.21910
H          4.51770       -1.53840        2.97750
H          2.69030       -1.32290        1.34440
H          2.81080        2.37920       -0.13550
H          2.27100        4.47540       -1.31690
H         -2.22250        6.21800       -0.73800
H         -2.07270        6.99870       -2.32630
H         -2.37390        5.24900       -2.24140
H         -1.86280        3.94320       -0.35270
H         -1.32370        1.88820        0.83060
H          0.20640        0.81340        3.70720
H          2.13080       -3.47000        5.34570
H          0.86640       -3.39480        3.23050
H          3.66050       -2.90660        7.44930
H          4.83160       -1.88240        9.35840
H          3.15440        1.94900        8.40630
H          5.72450        0.23840       10.38940
H          1.54340        4.76210       11.59800
H          2.44750        6.68320       12.82600
H          4.25260        7.77410       14.05010
H          6.55430        7.74880       14.92130
H          8.00390        5.79340       14.55570
H          7.16360        3.83510       13.30900
