
  xtb     02112201533D
 energy: -341.781806356055 gnorm: 0.000440347105 xtb: 6.4.1 (unknown)
182199  0     0  0            999 V2000
   -3.6438    5.6250  -11.1174 C   0  0  0  0  0  0  0  0  0  0  0  0
   -2.8928    6.7524  -11.1973 C   0  0  0  0  0  0  0  0  0  0  0  0
   -1.9958    7.2694  -10.1233 C   0  0  0  0  0  0  0  0  0  0  0  0
   -1.6780    6.7378   -9.0870 O   0  0  0  0  0  0  0  0  0  0  0  0
   -1.6347    8.6406  -10.5488 C   0  0  0  0  0  0  0  0  0  0  0  0
   -0.8455    9.5528   -9.8770 C   0  0  0  0  0  0  0  0  0  0  0  0
   -0.6326   10.7957  -10.4598 C   0  0  0  0  0  0  0  0  0  0  0  0
    0.3438   11.9770   -9.6826 Cl  0  0  0  0  0  0  0  0  0  0  0  0
   -1.2237   11.0823  -11.6945 C   0  0  0  0  0  0  0  0  0  0  0  0
   -1.0201   12.2831  -12.2467 F   0  0  0  0  0  0  0  0  0  0  0  0
   -2.0182   10.1727  -12.3730 C   0  0  0  0  0  0  0  0  0  0  0  0
   -2.2257    8.9305  -11.7901 C   0  0  0  0  0  0  0  0  0  0  0  0
   -2.9899    7.7712  -12.2346 C   0  0  0  0  0  0  0  0  0  0  0  0
   -3.6221    7.6473  -13.4415 C   0  0  0  0  0  0  0  0  0  0  0  0
   -4.3026    6.4943  -13.8906 C   0  0  0  0  0  0  0  0  0  0  0  0
   -4.8669    5.5972  -14.3317 N   0  0  0  0  0  0  0  0  0  0  0  0
   -3.6623    8.6644  -14.4204 C   0  0  0  0  0  0  0  0  0  0  0  0
   -3.7366    9.4539  -15.2496 N   0  0  0  0  0  0  0  0  0  0  0  0
   -3.5100    4.5685  -10.1460 C   0  0  0  0  0  0  0  0  0  0  0  0
   -2.2544    4.1398   -9.6818 C   0  0  0  0  0  0  0  0  0  0  0  0
   -2.2098    3.1492   -8.7334 C   0  0  0  0  0  0  0  0  0  0  0  0
   -1.0247    2.5522   -8.0575 C   0  0  0  0  0  0  0  0  0  0  0  0
    0.1418    2.7534   -8.2886 O   0  0  0  0  0  0  0  0  0  0  0  0
   -1.6099    1.6547   -7.0246 C   0  0  0  0  0  0  0  0  0  0  0  0
   -3.0136    1.6523   -7.1472 C   0  0  0  0  0  0  0  0  0  0  0  0
   -3.3847    2.5688   -8.2136 C   0  0  0  0  0  0  0  0  0  0  0  0
   -4.6191    2.9460   -8.7107 C   0  0  0  0  0  0  0  0  0  0  0  0
   -4.6676    3.9289   -9.6847 C   0  0  0  0  0  0  0  0  0  0  0  0
   -3.7830    0.9103   -6.2710 C   0  0  0  0  0  0  0  0  0  0  0  0
   -3.1526    0.2759   -5.2135 C   0  0  0  0  0  0  0  0  0  0  0  0
   -1.7688    0.3547   -5.0336 C   0  0  0  0  0  0  0  0  0  0  0  0
   -0.9790    0.9935   -5.9983 C   0  0  0  0  0  0  0  0  0  0  0  0
   -1.1799   -0.0807   -3.7814 C   0  0  0  0  0  0  0  0  0  0  0  0
   -1.6400    0.2593   -2.5225 C   0  0  0  0  0  0  0  0  0  0  0  0
   -2.7486    1.0395   -2.2288 N   0  0  0  0  0  0  0  0  0  0  0  0
   -3.3874    0.8012   -1.0006 C   0  0  0  0  0  0  0  0  0  0  0  0
   -3.6558   -0.5096   -0.6022 C   0  0  0  0  0  0  0  0  0  0  0  0
   -4.1276   -0.7701    0.6654 C   0  0  0  0  0  0  0  0  0  0  0  0
   -4.3484    0.2763    1.5561 C   0  0  0  0  0  0  0  0  0  0  0  0
   -4.8389   -0.1542    3.1973 S   0  0  0  0  0  0  0  0  0  0  0  0
   -4.2754    1.2755    4.1688 C   0  0  0  0  0  0  0  0  0  0  0  0
   -4.1725    1.5877    1.1322 C   0  0  0  0  0  0  0  0  0  0  0  0
   -3.6931    1.8481   -0.1360 C   0  0  0  0  0  0  0  0  0  0  0  0
   -3.1098    2.1236   -3.0368 C   0  0  0  0  0  0  0  0  0  0  0  0
   -4.4530    2.4280   -3.2353 C   0  0  0  0  0  0  0  0  0  0  0  0
   -4.8293    3.4184   -4.1229 C   0  0  0  0  0  0  0  0  0  0  0  0
   -3.8650    4.1186   -4.8345 C   0  0  0  0  0  0  0  0  0  0  0  0
   -4.2102    5.3363   -6.0645 S   0  0  0  0  0  0  0  0  0  0  0  0
   -6.0237    5.3295   -6.1797 C   0  0  0  0  0  0  0  0  0  0  0  0
   -2.5166    3.8627   -4.5877 C   0  0  0  0  0  0  0  0  0  0  0  0
   -2.1427    2.8876   -3.6933 C   0  0  0  0  0  0  0  0  0  0  0  0
   -0.7808   -0.2560   -1.5205 C   0  0  0  0  0  0  0  0  0  0  0  0
   -0.7705   -0.1599    0.1976 S   0  0  0  0  0  0  0  0  0  0  0  0
    0.7087   -1.1157    0.2725 C   0  0  0  0  0  0  0  0  0  0  0  0
    1.1838   -1.4483   -0.9890 C   0  0  0  0  0  0  0  0  0  0  0  0
    2.2739   -2.2434   -1.2852 N   0  0  0  0  0  0  0  0  0  0  0  0
    2.1478   -3.1955   -2.3077 C   0  0  0  0  0  0  0  0  0  0  0  0
    0.9554   -3.8932   -2.4790 C   0  0  0  0  0  0  0  0  0  0  0  0
    0.8177   -4.8208   -3.4930 C   0  0  0  0  0  0  0  0  0  0  0  0
    1.8795   -5.0754   -4.3499 C   0  0  0  0  0  0  0  0  0  0  0  0
    1.8319   -6.2380   -5.6750 S   0  0  0  0  0  0  0  0  0  0  0  0
    0.1344   -6.8805   -5.6366 C   0  0  0  0  0  0  0  0  0  0  0  0
    3.0798   -4.3873   -4.1736 C   0  0  0  0  0  0  0  0  0  0  0  0
    3.2137   -3.4567   -3.1695 C   0  0  0  0  0  0  0  0  0  0  0  0
    3.5079   -2.0891   -0.6384 C   0  0  0  0  0  0  0  0  0  0  0  0
    4.0347   -0.8240   -0.3923 C   0  0  0  0  0  0  0  0  0  0  0  0
    5.2631   -0.6840    0.2277 C   0  0  0  0  0  0  0  0  0  0  0  0
    5.9796   -1.8096    0.6103 C   0  0  0  0  0  0  0  0  0  0  0  0
    7.5477   -1.7545    1.4148 S   0  0  0  0  0  0  0  0  0  0  0  0
    8.1768   -0.0998    1.0114 C   0  0  0  0  0  0  0  0  0  0  0  0
    5.4511   -3.0774    0.3671 C   0  0  0  0  0  0  0  0  0  0  0  0
    4.2341   -3.2182   -0.2560 C   0  0  0  0  0  0  0  0  0  0  0  0
    0.3130   -0.9515   -1.9995 C   0  0  0  0  0  0  0  0  0  0  0  0
    0.3298   -0.9732   -3.7316 S   0  0  0  0  0  0  0  0  0  0  0  0
    1.0953   -1.4471    1.6083 C   0  0  0  0  0  0  0  0  0  0  0  0
    0.1851   -1.6539    2.6121 C   0  0  0  0  0  0  0  0  0  0  0  0
    0.7605   -1.8601    3.8838 C   0  0  0  0  0  0  0  0  0  0  0  0
    0.1096   -2.1087    5.1069 C   0  0  0  0  0  0  0  0  0  0  0  0
   -1.3426   -2.3181    5.1608 C   0  0  0  0  0  0  0  0  0  0  0  0
   -2.1410   -1.6789    6.0986 C   0  0  0  0  0  0  0  0  0  0  0  0
   -3.5015   -1.9204    6.1558 C   0  0  0  0  0  0  0  0  0  0  0  0
   -4.1943   -1.2273    7.0942 F   0  0  0  0  0  0  0  0  0  0  0  0
   -4.1509   -2.8118    5.2981 C   0  0  0  0  0  0  0  0  0  0  0  0
   -5.4366   -3.1973    5.2639 O   0  0  0  0  0  0  0  0  0  0  0  0
   -6.4016   -2.7146    6.1868 C   0  0  0  0  0  0  0  0  0  0  0  0
   -6.9694   -1.3595    5.7857 C   0  0  0  0  0  0  0  0  0  0  0  0
   -3.3101   -3.4198    4.3480 C   0  0  0  0  0  0  0  0  0  0  0  0
   -3.8719   -4.2803    3.4773 F   0  0  0  0  0  0  0  0  0  0  0  0
   -1.9574   -3.1961    4.2682 C   0  0  0  0  0  0  0  0  0  0  0  0
    0.9165   -2.1764    6.2335 C   0  0  0  0  0  0  0  0  0  0  0  0
    2.3325   -2.0312    6.1804 C   0  0  0  0  0  0  0  0  0  0  0  0
    2.9807   -1.8126    4.9480 C   0  0  0  0  0  0  0  0  0  0  0  0
    4.4299   -1.5988    4.8694 C   0  0  0  0  0  0  0  0  0  0  0  0
    5.3368   -2.5133    5.3834 C   0  0  0  0  0  0  0  0  0  0  0  0
    6.6962   -2.2728    5.3159 C   0  0  0  0  0  0  0  0  0  0  0  0
    7.2292   -1.0982    4.7765 C   0  0  0  0  0  0  0  0  0  0  0  0
    8.5142   -0.7187    4.6520 O   0  0  0  0  0  0  0  0  0  0  0  0
    9.5558   -1.4041    5.3317 C   0  0  0  0  0  0  0  0  0  0  0  0
    9.5213   -1.1639    6.8363 C   0  0  0  0  0  0  0  0  0  0  0  0
    6.2743   -0.2013    4.2695 C   0  0  0  0  0  0  0  0  0  0  0  0
    4.9210   -0.4331    4.2864 C   0  0  0  0  0  0  0  0  0  0  0  0
    6.7199    0.9576    3.7414 F   0  0  0  0  0  0  0  0  0  0  0  0
    7.5034   -3.2394    5.8109 F   0  0  0  0  0  0  0  0  0  0  0  0
    2.1730   -1.7368    3.8324 C   0  0  0  0  0  0  0  0  0  0  0  0
    2.7420   -1.4931    2.2014 S   0  0  0  0  0  0  0  0  0  0  0  0
    2.9325   -2.0967    7.4483 C   0  0  0  0  0  0  0  0  0  0  0  0
    2.0424   -2.3107    8.4745 C   0  0  0  0  0  0  0  0  0  0  0  0
    0.3868   -2.4476    7.8665 S   0  0  0  0  0  0  0  0  0  0  0  0
    2.2131   -2.4245    9.8689 C   0  0  0  0  0  0  0  0  0  0  0  0
    3.3219   -2.2959   10.6650 C   0  0  0  0  0  0  0  0  0  0  0  0
    4.7072   -1.9430   10.2824 C   0  0  0  0  0  0  0  0  0  0  0  0
    5.1896   -1.7842    9.1799 O   0  0  0  0  0  0  0  0  0  0  0  0
    5.4502   -1.8062   11.5539 C   0  0  0  0  0  0  0  0  0  0  0  0
    6.7734   -1.4527   11.7241 C   0  0  0  0  0  0  0  0  0  0  0  0
    7.2717   -1.3732   13.0182 C   0  0  0  0  0  0  0  0  0  0  0  0
    8.9096   -0.9350   13.3051 Cl  0  0  0  0  0  0  0  0  0  0  0  0
    6.4247   -1.6524   14.0936 C   0  0  0  0  0  0  0  0  0  0  0  0
    6.9086   -1.5699   15.3385 F   0  0  0  0  0  0  0  0  0  0  0  0
    5.0964   -2.0120   13.9277 C   0  0  0  0  0  0  0  0  0  0  0  0
    4.6014   -2.0905   12.6345 C   0  0  0  0  0  0  0  0  0  0  0  0
    3.2799   -2.4337   12.1147 C   0  0  0  0  0  0  0  0  0  0  0  0
    2.2241   -2.8394   12.8885 C   0  0  0  0  0  0  0  0  0  0  0  0
    2.2748   -2.9449   14.2959 C   0  0  0  0  0  0  0  0  0  0  0  0
    2.2413   -3.0499   15.4382 N   0  0  0  0  0  0  0  0  0  0  0  0
    0.9450   -3.2339   12.4387 C   0  0  0  0  0  0  0  0  0  0  0  0
   -0.1193   -3.5817   12.1828 N   0  0  0  0  0  0  0  0  0  0  0  0
   -4.4605    5.5027  -11.8192 H   0  0  0  0  0  0  0  0  0  0  0  0
   -0.4058    9.2996   -8.9254 H   0  0  0  0  0  0  0  0  0  0  0  0
   -2.4472   10.4596  -13.3191 H   0  0  0  0  0  0  0  0  0  0  0  0
   -1.3418    4.5573  -10.0738 H   0  0  0  0  0  0  0  0  0  0  0  0
   -5.5284    2.4894   -8.3490 H   0  0  0  0  0  0  0  0  0  0  0  0
   -5.6251    4.2448  -10.0741 H   0  0  0  0  0  0  0  0  0  0  0  0
   -4.8559    0.8560   -6.3751 H   0  0  0  0  0  0  0  0  0  0  0  0
   -3.7419   -0.2726   -4.4938 H   0  0  0  0  0  0  0  0  0  0  0  0
    0.0953    1.0286   -5.8944 H   0  0  0  0  0  0  0  0  0  0  0  0
   -3.4570   -1.3239   -1.2837 H   0  0  0  0  0  0  0  0  0  0  0  0
   -4.3083   -1.7843    0.9870 H   0  0  0  0  0  0  0  0  0  0  0  0
   -4.9629    2.1088    4.0560 H   0  0  0  0  0  0  0  0  0  0  0  0
   -3.2722    1.5468    3.8549 H   0  0  0  0  0  0  0  0  0  0  0  0
   -4.2631    0.9518    5.2048 H   0  0  0  0  0  0  0  0  0  0  0  0
   -4.3846    2.4136    1.7924 H   0  0  0  0  0  0  0  0  0  0  0  0
   -3.5236    2.8666   -0.4529 H   0  0  0  0  0  0  0  0  0  0  0  0
   -5.2088    1.8687   -2.7033 H   0  0  0  0  0  0  0  0  0  0  0  0
   -5.8792    3.6191   -4.2613 H   0  0  0  0  0  0  0  0  0  0  0  0
   -6.3743    4.3384   -6.4506 H   0  0  0  0  0  0  0  0  0  0  0  0
   -6.4607    5.6609   -5.2424 H   0  0  0  0  0  0  0  0  0  0  0  0
   -6.2672    6.0352   -6.9675 H   0  0  0  0  0  0  0  0  0  0  0  0
   -1.7700    4.4371   -5.1144 H   0  0  0  0  0  0  0  0  0  0  0  0
   -1.0960    2.7010   -3.5076 H   0  0  0  0  0  0  0  0  0  0  0  0
    0.1285   -3.7138   -1.8070 H   0  0  0  0  0  0  0  0  0  0  0  0
   -0.1201   -5.3423   -3.5946 H   0  0  0  0  0  0  0  0  0  0  0  0
   -0.0476   -7.3995   -4.7000 H   0  0  0  0  0  0  0  0  0  0  0  0
   -0.5724   -6.0693   -5.7854 H   0  0  0  0  0  0  0  0  0  0  0  0
    0.0700   -7.5814   -6.4631 H   0  0  0  0  0  0  0  0  0  0  0  0
    3.9014   -4.5880   -4.8435 H   0  0  0  0  0  0  0  0  0  0  0  0
    4.1424   -2.9204   -3.0477 H   0  0  0  0  0  0  0  0  0  0  0  0
    3.4779    0.0525   -0.6899 H   0  0  0  0  0  0  0  0  0  0  0  0
    5.6489    0.3058    0.4114 H   0  0  0  0  0  0  0  0  0  0  0  0
    7.6354    0.6617    1.5618 H   0  0  0  0  0  0  0  0  0  0  0  0
    8.1074    0.0585   -0.0605 H   0  0  0  0  0  0  0  0  0  0  0  0
    9.2162   -0.1007    1.3237 H   0  0  0  0  0  0  0  0  0  0  0  0
    6.0126   -3.9462    0.6737 H   0  0  0  0  0  0  0  0  0  0  0  0
    3.8296   -4.2002   -0.4495 H   0  0  0  0  0  0  0  0  0  0  0  0
   -0.8757   -1.6475    2.4367 H   0  0  0  0  0  0  0  0  0  0  0  0
   -1.7238   -0.9700    6.7962 H   0  0  0  0  0  0  0  0  0  0  0  0
   -7.1907   -3.4710    6.1482 H   0  0  0  0  0  0  0  0  0  0  0  0
   -5.9952   -2.6872    7.2020 H   0  0  0  0  0  0  0  0  0  0  0  0
   -7.2973   -1.3899    4.7500 H   0  0  0  0  0  0  0  0  0  0  0  0
   -7.8154   -1.1207    6.4236 H   0  0  0  0  0  0  0  0  0  0  0  0
   -6.2242   -0.5768    5.8899 H   0  0  0  0  0  0  0  0  0  0  0  0
   -1.3822   -3.7342    3.5319 H   0  0  0  0  0  0  0  0  0  0  0  0
    5.0041   -3.4403    5.8228 H   0  0  0  0  0  0  0  0  0  0  0  0
    9.5366   -2.4731    5.1022 H   0  0  0  0  0  0  0  0  0  0  0  0
   10.4648   -0.9729    4.9039 H   0  0  0  0  0  0  0  0  0  0  0  0
   10.3938   -1.6211    7.2938 H   0  0  0  0  0  0  0  0  0  0  0  0
    8.6295   -1.5968    7.2824 H   0  0  0  0  0  0  0  0  0  0  0  0
    9.5312   -0.0958    7.0415 H   0  0  0  0  0  0  0  0  0  0  0  0
    4.2555    0.3120    3.8811 H   0  0  0  0  0  0  0  0  0  0  0  0
    3.9871   -1.9771    7.6099 H   0  0  0  0  0  0  0  0  0  0  0  0
    1.2839   -2.6309   10.3864 H   0  0  0  0  0  0  0  0  0  0  0  0
    7.3997   -1.2432   10.8717 H   0  0  0  0  0  0  0  0  0  0  0  0
    4.5011   -2.2124   14.8031 H   0  0  0  0  0  0  0  0  0  0  0  0
  1  2  2  0  0  0  0
  2  3  1  0  0  0  0
  3  4  2  0  0  0  0
  3  5  1  0  0  0  0
  5  6  2  0  0  0  0
  6  7  1  0  0  0  0
  7  8  1  0  0  0  0
  7  9  2  0  0  0  0
  9 10  1  0  0  0  0
  9 11  1  0  0  0  0
 11 12  2  0  0  0  0
 12 13  1  0  0  0  0
 13 14  2  0  0  0  0
 14 15  1  0  0  0  0
 15 16  3  0  0  0  0
 14 17  1  0  0  0  0
 17 18  3  0  0  0  0
  1 19  1  0  0  0  0
 19 20  2  0  0  0  0
 20 21  1  0  0  0  0
 21 22  1  0  0  0  0
 22 23  2  0  0  0  0
 22 24  1  0  0  0  0
 24 25  2  0  0  0  0
 25 26  1  0  0  0  0
 26 27  1  0  0  0  0
 27 28  2  0  0  0  0
 25 29  1  0  0  0  0
 29 30  2  0  0  0  0
 30 31  1  0  0  0  0
 31 32  2  0  0  0  0
 31 33  1  0  0  0  0
 33 34  2  0  0  0  0
 34 35  1  0  0  0  0
 35 36  1  0  0  0  0
 36 37  2  0  0  0  0
 37 38  1  0  0  0  0
 38 39  2  0  0  0  0
 39 40  1  0  0  0  0
 40 41  1  0  0  0  0
 39 42  1  0  0  0  0
 42 43  2  0  0  0  0
 35 44  1  0  0  0  0
 44 45  2  0  0  0  0
 45 46  1  0  0  0  0
 46 47  2  0  0  0  0
 47 48  1  0  0  0  0
 48 49  1  0  0  0  0
 47 50  1  0  0  0  0
 50 51  2  0  0  0  0
 34 52  1  0  0  0  0
 52 53  1  0  0  0  0
 53 54  1  0  0  0  0
 54 55  2  0  0  0  0
 55 56  1  0  0  0  0
 56 57  1  0  0  0  0
 57 58  2  0  0  0  0
 58 59  1  0  0  0  0
 59 60  2  0  0  0  0
 60 61  1  0  0  0  0
 61 62  1  0  0  0  0
 60 63  1  0  0  0  0
 63 64  2  0  0  0  0
 56 65  1  0  0  0  0
 65 66  2  0  0  0  0
 66 67  1  0  0  0  0
 67 68  2  0  0  0  0
 68 69  1  0  0  0  0
 69 70  1  0  0  0  0
 68 71  1  0  0  0  0
 71 72  2  0  0  0  0
 55 73  1  0  0  0  0
 73 74  1  0  0  0  0
 54 75  1  0  0  0  0
 75 76  2  0  0  0  0
 76 77  1  0  0  0  0
 77 78  2  0  0  0  0
 78 79  1  0  0  0  0
 79 80  2  0  0  0  0
 80 81  1  0  0  0  0
 81 82  1  0  0  0  0
 81 83  2  0  0  0  0
 83 84  1  0  0  0  0
 84 85  1  0  0  0  0
 85 86  1  0  0  0  0
 83 87  1  0  0  0  0
 87 88  1  0  0  0  0
 87 89  2  0  0  0  0
 78 90  1  0  0  0  0
 90 91  2  0  0  0  0
 91 92  1  0  0  0  0
 92 93  1  0  0  0  0
 93 94  2  0  0  0  0
 94 95  1  0  0  0  0
 95 96  2  0  0  0  0
 96 97  1  0  0  0  0
 97 98  1  0  0  0  0
 98 99  1  0  0  0  0
 96100  1  0  0  0  0
100101  2  0  0  0  0
100102  1  0  0  0  0
 95103  1  0  0  0  0
 92104  2  0  0  0  0
104105  1  0  0  0  0
 91106  1  0  0  0  0
106107  2  0  0  0  0
107108  1  0  0  0  0
107109  1  0  0  0  0
109110  2  0  0  0  0
110111  1  0  0  0  0
111112  2  0  0  0  0
111113  1  0  0  0  0
113114  2  0  0  0  0
114115  1  0  0  0  0
115116  1  0  0  0  0
115117  2  0  0  0  0
117118  1  0  0  0  0
117119  1  0  0  0  0
119120  2  0  0  0  0
120121  1  0  0  0  0
121122  2  0  0  0  0
122123  1  0  0  0  0
123124  3  0  0  0  0
122125  1  0  0  0  0
125126  3  0  0  0  0
 13  2  1  0  0  0  0
 28 19  1  0  0  0  0
 74 33  1  0  0  0  0
105 75  1  0  0  0  0
121110  1  0  0  0  0
 12  5  1  0  0  0  0
 26 21  2  0  0  0  0
 43 36  1  0  0  0  0
 51 44  1  0  0  0  0
 73 52  2  0  0  0  0
104 77  1  0  0  0  0
120113  1  0  0  0  0
 32 24  1  0  0  0  0
 64 57  1  0  0  0  0
 72 65  1  0  0  0  0
 89 79  1  0  0  0  0
108 90  1  0  0  0  0
101 93  1  0  0  0  0
  1127  1  0  0  0  0
  6128  1  0  0  0  0
 11129  1  0  0  0  0
 20130  1  0  0  0  0
 27131  1  0  0  0  0
 28132  1  0  0  0  0
 29133  1  0  0  0  0
 30134  1  0  0  0  0
 32135  1  0  0  0  0
 37136  1  0  0  0  0
 38137  1  0  0  0  0
 41138  1  0  0  0  0
 41139  1  0  0  0  0
 41140  1  0  0  0  0
 42141  1  0  0  0  0
 43142  1  0  0  0  0
 45143  1  0  0  0  0
 46144  1  0  0  0  0
 49145  1  0  0  0  0
 49146  1  0  0  0  0
 49147  1  0  0  0  0
 50148  1  0  0  0  0
 51149  1  0  0  0  0
 58150  1  0  0  0  0
 59151  1  0  0  0  0
 62152  1  0  0  0  0
 62153  1  0  0  0  0
 62154  1  0  0  0  0
 63155  1  0  0  0  0
 64156  1  0  0  0  0
 66157  1  0  0  0  0
 67158  1  0  0  0  0
 70159  1  0  0  0  0
 70160  1  0  0  0  0
 70161  1  0  0  0  0
 71162  1  0  0  0  0
 72163  1  0  0  0  0
 76164  1  0  0  0  0
 80165  1  0  0  0  0
 85166  1  0  0  0  0
 85167  1  0  0  0  0
 86168  1  0  0  0  0
 86169  1  0  0  0  0
 86170  1  0  0  0  0
 89171  1  0  0  0  0
 94172  1  0  0  0  0
 98173  1  0  0  0  0
 98174  1  0  0  0  0
 99175  1  0  0  0  0
 99176  1  0  0  0  0
 99177  1  0  0  0  0
101178  1  0  0  0  0
106179  1  0  0  0  0
109180  1  0  0  0  0
114181  1  0  0  0  0
119182  1  0  0  0  0
M  END
