135

C         -3.21190       -3.75800        6.24870
C         -2.09720       -4.37470        6.74820
C         -0.72350       -4.16610        6.22950
O         -0.34520       -3.38800        5.37700
C          0.15440       -4.98590        7.08680
C          1.51620       -5.17380        6.96890
C          2.15130       -5.97510        7.90910
Cl         3.84490       -6.26050        7.81810
C          1.39860       -6.55230        8.93490
F          2.01850       -7.31720        9.84190
C          0.02930       -6.36840        9.05570
C         -0.60410       -5.57330        8.11290
C         -2.00710       -5.20120        7.93480
C         -3.04790       -5.62880        8.71680
C         -4.40800       -5.32230        8.49800
N         -5.53490       -5.13490        8.38500
C         -2.89310       -6.44860        9.85450
N         -2.82830       -7.10990       10.79040
C         -3.25490       -3.16290        4.95950
C         -3.99680       -1.99650        4.68420
C         -3.77310       -1.19540        3.48710
N         -4.50480       -0.07040        3.51120
S         -5.38290       -0.05070        4.85220
N         -4.87210       -1.41850        5.50600
C         -2.86340       -1.59730        2.50720
C         -2.34570       -2.89430        2.65830
N         -1.59600       -3.54260        1.75970
S         -1.18360       -4.96710        2.36320
N         -1.91980       -4.85100        3.78180
C         -2.52330       -3.66670        3.86420
C         -2.25880       -0.79500        1.44790
C         -0.98050       -0.28900        1.55170
N         -0.28220       -0.23510        2.76990
C          0.77890       -1.10280        3.02550
C          1.06550       -2.17070        2.17550
C          2.06310       -3.06400        2.49660
C          2.80910       -2.90590        3.66120
S          3.98240       -4.17630        4.03160
C          4.98580       -3.47020        5.37160
C          2.58000       -1.80160        4.46990
C          1.58440       -0.90400        4.14590
C         -1.02370        0.34470        3.80900
C         -1.66520        1.55640        3.55670
C         -2.53720        2.10000        4.47510
C         -2.77140        1.43800        5.67220
S         -4.02630        1.90590        6.82370
C         -4.79960        3.36510        6.06900
C         -2.07500        0.26650        5.96370
C         -1.20750       -0.27860        5.04400
C         -0.52320        0.20760        0.31220
S          0.92530        0.97990       -0.21530
C          0.30600        1.04460       -1.85720
C         -0.99760        0.57220       -1.96160
N         -1.80580        0.68420       -3.07270
C         -2.74950       -0.31640       -3.33840
C         -2.45830       -1.65500       -3.07230
C         -3.39550       -2.62950       -3.32740
C         -4.63900       -2.29470       -3.86230
S         -5.75180       -3.63210       -4.14750
C         -7.20310       -2.84760       -4.90490
C         -4.92670       -0.96420       -4.13990
C         -3.98950        0.01500       -3.87660
C         -1.60120        1.72270       -3.99320
C         -1.66990        1.48620       -5.36680
C         -1.28880        2.46410       -6.25770
C         -0.84810        3.70730       -5.80420
S         -0.23650        4.82540       -7.01970
C          0.42650        6.20460       -6.04600
C         -0.89630        3.98470       -4.44340
C         -1.27100        3.00110       -3.55070
C         -1.44740        0.06910       -0.71310
S         -2.91630       -0.65940       -0.15350
C          1.13060        1.56840       -2.91040
C          1.89680        2.71230       -2.75990
C          2.58090        3.26680       -3.83640
F          3.24130        4.42110       -3.61620
C          2.63970        2.71240       -5.10980
C          1.90690        1.50910       -5.27310
C          1.16940        0.93800       -4.18110
N          0.57830       -0.20550       -4.52320
S          0.88430       -0.50100       -6.07030
N          1.77330        0.79620       -6.38780
C          3.34910        3.34410       -6.18450
C          4.05770        2.68070       -7.13440
C          4.51990        1.27290       -7.00410
O          4.39330        0.52950       -6.05880
C          5.31730        1.01070       -8.22310
C          5.95160       -0.15940       -8.58820
C          6.67280       -0.17650       -9.77580
Cl         7.47860       -1.60350      -10.29500
C          6.74100        0.98440      -10.55100
F          7.44210        0.96290      -11.69050
C          6.11370        2.16490      -10.18640
C          5.38890        2.17720       -9.00350
C          4.62610        3.23660       -8.35010
C          4.44530        4.50280       -8.83790
C          3.67990        5.51660       -8.22510
N          3.08440        6.40180       -7.80040
C          5.01060        4.97540      -10.04250
N          5.44590        5.42380      -11.00480
H         -4.10440       -3.65850        6.85230
H          2.06280       -4.72330        6.15570
H         -0.48930       -6.84460        9.87170
H          0.47930       -2.32140        1.28210
H          2.26170       -3.90880        1.85440
H          5.78810       -4.18200        5.54010
H          4.39550       -3.36520        6.27750
H          5.39720       -2.51600        5.05600
H          3.16210       -1.63150        5.36150
H          1.41670       -0.04680        4.78020
H         -1.50410        2.05540        2.61330
H         -3.03900        3.02320        4.23810
H         -4.08080        4.17680        6.00950
H         -5.19500        3.11160        5.08990
H         -5.61010        3.64170        6.73600
H         -2.26110       -0.23710        6.90060
H         -0.72320       -1.22050        5.24880
H         -1.48670       -1.92200       -2.68690
H         -3.17380       -3.66590       -3.12560
H         -6.91810       -2.35240       -5.82840
H         -7.89260       -3.65810       -5.11990
H         -7.65930       -2.15270       -4.20600
H         -5.87860       -0.67380       -4.55370
H         -4.22000        1.04890       -4.08730
H         -1.97970        0.51580       -5.72500
H         -1.29700        2.26800       -7.31880
H          0.97170        6.82130       -6.75380
H         -0.38480        6.77170       -5.59890
H          1.11040        5.82900       -5.29100
H         -0.63520        4.95940       -4.06510
H         -1.28520        3.21950       -2.49320
H          1.93230        3.22070       -1.80850
H          3.31260        4.42640       -6.20300
H          5.88430       -1.03710       -7.96550
H          6.21270        3.02580      -10.82720
