
  xtb     02112206073D
 energy: -275.407265584395 gnorm: 0.000401223361 xtb: 6.4.1 (unknown)
144159  0     0  0            999 V2000
    1.2982   -0.0371   10.5821 C   0  0  0  0  0  0  0  0  0  0  0  0
    2.5311   -0.4462   10.9719 C   0  0  0  0  0  0  0  0  0  0  0  0
    2.6762   -1.1167   12.2976 C   0  0  0  0  0  0  0  0  0  0  0  0
    1.8556   -1.1539   13.1820 O   0  0  0  0  0  0  0  0  0  0  0  0
    4.0080   -1.7596   12.2619 C   0  0  0  0  0  0  0  0  0  0  0  0
    4.5810   -2.6065   13.1894 C   0  0  0  0  0  0  0  0  0  0  0  0
    5.8478   -3.1140   12.9256 C   0  0  0  0  0  0  0  0  0  0  0  0
    6.6183   -4.1742   14.0377 Cl  0  0  0  0  0  0  0  0  0  0  0  0
    6.4972   -2.7567   11.7399 C   0  0  0  0  0  0  0  0  0  0  0  0
    7.7094   -3.2609   11.4880 F   0  0  0  0  0  0  0  0  0  0  0  0
    5.9336   -1.8995   10.8084 C   0  0  0  0  0  0  0  0  0  0  0  0
    4.6715   -1.3928   11.0767 C   0  0  0  0  0  0  0  0  0  0  0  0
    3.8320   -0.4616   10.3288 C   0  0  0  0  0  0  0  0  0  0  0  0
    4.2828    0.4039    9.3687 C   0  0  0  0  0  0  0  0  0  0  0  0
    5.6009    0.4098    8.8647 C   0  0  0  0  0  0  0  0  0  0  0  0
    6.6527    0.4572    8.4088 N   0  0  0  0  0  0  0  0  0  0  0  0
    3.5173    1.4563    8.8297 C   0  0  0  0  0  0  0  0  0  0  0  0
    2.9721    2.3644    8.3868 N   0  0  0  0  0  0  0  0  0  0  0  0
    0.8007    0.3018    9.2770 C   0  0  0  0  0  0  0  0  0  0  0  0
    1.3773   -0.2191    8.1041 C   0  0  0  0  0  0  0  0  0  0  0  0
    0.8135    0.0933    6.8937 C   0  0  0  0  0  0  0  0  0  0  0  0
    1.2368   -0.3281    5.5319 C   0  0  0  0  0  0  0  0  0  0  0  0
    2.1964   -0.9972    5.2306 O   0  0  0  0  0  0  0  0  0  0  0  0
    0.2218    0.2759    4.6322 C   0  0  0  0  0  0  0  0  0  0  0  0
   -0.7075    1.0134    5.3946 C   0  0  0  0  0  0  0  0  0  0  0  0
   -0.3302    0.9143    6.7963 C   0  0  0  0  0  0  0  0  0  0  0  0
   -0.9039    1.4283    7.9462 C   0  0  0  0  0  0  0  0  0  0  0  0
   -0.3416    1.1075    9.1699 C   0  0  0  0  0  0  0  0  0  0  0  0
   -1.7767    1.6262    4.7668 C   0  0  0  0  0  0  0  0  0  0  0  0
   -1.8911    1.5222    3.3886 C   0  0  0  0  0  0  0  0  0  0  0  0
   -0.9460    0.8353    2.6244 C   0  0  0  0  0  0  0  0  0  0  0  0
    0.1183    0.1803    3.2680 C   0  0  0  0  0  0  0  0  0  0  0  0
   -1.0298    0.7886    1.1827 C   0  0  0  0  0  0  0  0  0  0  0  0
    0.0348    0.8513    0.2946 C   0  0  0  0  0  0  0  0  0  0  0  0
    1.3425    1.1227    0.6477 N   0  0  0  0  0  0  0  0  0  0  0  0
    1.6109    2.0287    1.6870 C   0  0  0  0  0  0  0  0  0  0  0  0
    0.8074    3.1564    1.8606 C   0  0  0  0  0  0  0  0  0  0  0  0
    1.0235    4.0040    2.9203 C   0  0  0  0  0  0  0  0  0  0  0  0
    2.0502    3.7537    3.8314 C   0  0  0  0  0  0  0  0  0  0  0  0
    2.2017    4.9019    5.1569 S   0  0  0  0  0  0  0  0  0  0  0  0
    3.7201    4.4039    6.0095 C   0  0  0  0  0  0  0  0  0  0  0  0
    2.8702    2.6483    3.6455 C   0  0  0  0  0  0  0  0  0  0  0  0
    2.6525    1.7961    2.5794 C   0  0  0  0  0  0  0  0  0  0  0  0
    2.3727    0.5871   -0.1352 C   0  0  0  0  0  0  0  0  0  0  0  0
    3.4897    1.3494   -0.4767 C   0  0  0  0  0  0  0  0  0  0  0  0
    4.4435    0.8319   -1.3230 C   0  0  0  0  0  0  0  0  0  0  0  0
    4.3076   -0.4538   -1.8462 C   0  0  0  0  0  0  0  0  0  0  0  0
    5.5537   -0.9843   -2.9753 S   0  0  0  0  0  0  0  0  0  0  0  0
    4.9065   -2.5527   -3.6210 C   0  0  0  0  0  0  0  0  0  0  0  0
    3.2266   -1.2351   -1.4642 C   0  0  0  0  0  0  0  0  0  0  0  0
    2.2707   -0.7170   -0.6137 C   0  0  0  0  0  0  0  0  0  0  0  0
   -0.4088    0.6956   -1.0415 C   0  0  0  0  0  0  0  0  0  0  0  0
    0.4036    0.5595   -2.5585 S   0  0  0  0  0  0  0  0  0  0  0  0
   -1.1380    0.3923   -3.3939 C   0  0  0  0  0  0  0  0  0  0  0  0
   -2.2240    0.3328   -2.4988 C   0  0  0  0  0  0  0  0  0  0  0  0
   -3.5280   -0.0030   -2.7702 N   0  0  0  0  0  0  0  0  0  0  0  0
   -4.5220    0.5480   -1.9379 C   0  0  0  0  0  0  0  0  0  0  0  0
   -5.5105   -0.2577   -1.3828 C   0  0  0  0  0  0  0  0  0  0  0  0
   -6.4734    0.2839   -0.5544 C   0  0  0  0  0  0  0  0  0  0  0  0
   -6.4598    1.6439   -0.2687 C   0  0  0  0  0  0  0  0  0  0  0  0
   -7.6207    2.4467    0.7837 S   0  0  0  0  0  0  0  0  0  0  0  0
   -8.7969    1.1374    1.2273 C   0  0  0  0  0  0  0  0  0  0  0  0
   -5.4739    2.4545   -0.8325 C   0  0  0  0  0  0  0  0  0  0  0  0
   -4.5156    1.9148   -1.6590 C   0  0  0  0  0  0  0  0  0  0  0  0
   -3.9027   -0.8530   -3.8070 C   0  0  0  0  0  0  0  0  0  0  0  0
   -3.0365   -1.8358   -4.2885 C   0  0  0  0  0  0  0  0  0  0  0  0
   -3.3639   -2.5837   -5.3992 C   0  0  0  0  0  0  0  0  0  0  0  0
   -4.5842   -2.3887   -6.0406 C   0  0  0  0  0  0  0  0  0  0  0  0
   -5.0572   -3.2121   -7.5161 S   0  0  0  0  0  0  0  0  0  0  0  0
   -3.4842   -3.8137   -8.1853 C   0  0  0  0  0  0  0  0  0  0  0  0
   -5.4995   -1.4879   -5.4920 C   0  0  0  0  0  0  0  0  0  0  0  0
   -5.1674   -0.7327   -4.3931 C   0  0  0  0  0  0  0  0  0  0  0  0
   -1.7798    0.5482   -1.1704 C   0  0  0  0  0  0  0  0  0  0  0  0
   -2.5730    0.6220    0.3720 S   0  0  0  0  0  0  0  0  0  0  0  0
   -1.0800    0.3439   -4.8071 C   0  0  0  0  0  0  0  0  0  0  0  0
    0.1268   -0.0301   -5.4519 C   0  0  0  0  0  0  0  0  0  0  0  0
    0.2496   -0.2107   -6.8792 C   0  0  0  0  0  0  0  0  0  0  0  0
    1.4439   -0.6974   -7.2091 N   0  0  0  0  0  0  0  0  0  0  0  0
    2.3469   -0.8318   -5.8923 S   0  0  0  0  0  4  0  0  0  0  0  0
    1.2540   -0.3465   -4.8150 N   0  0  0  0  0  0  0  0  0  0  0  0
   -0.8259    0.0374   -7.7632 C   0  0  0  0  0  0  0  0  0  0  0  0
   -2.0156    0.4677   -7.1277 C   0  0  0  0  0  0  0  0  0  0  0  0
   -3.1209    0.8423   -7.7675 N   0  0  0  0  0  0  0  0  0  0  0  0
   -4.1873    1.3981   -6.7005 S   0  0  0  0  0  0  0  0  0  0  0  0
   -3.3156    1.1791   -5.3675 N   0  0  0  0  0  0  0  0  0  0  0  0
   -2.1348    0.6518   -5.6970 C   0  0  0  0  0  0  0  0  0  0  0  0
   -0.7778   -0.1497   -9.1594 C   0  0  0  0  0  0  0  0  0  0  0  0
    0.3347   -0.0150   -9.9545 C   0  0  0  0  0  0  0  0  0  0  0  0
    1.5043    0.8250   -9.6250 C   0  0  0  0  0  0  0  0  0  0  0  0
    1.7240    1.4538   -8.6125 O   0  0  0  0  0  0  0  0  0  0  0  0
    2.3081    0.8768  -10.8727 C   0  0  0  0  0  0  0  0  0  0  0  0
    3.4941    1.5435  -11.0973 C   0  0  0  0  0  0  0  0  0  0  0  0
    4.0596    1.4740  -12.3658 C   0  0  0  0  0  0  0  0  0  0  0  0
    5.5428    2.2766  -12.7091 Cl  0  0  0  0  0  0  0  0  0  0  0  0
    3.4135    0.7468  -13.3662 C   0  0  0  0  0  0  0  0  0  0  0  0
    3.9607    0.6914  -14.5881 F   0  0  0  0  0  0  0  0  0  0  0  0
    2.2190    0.0766  -13.1484 C   0  0  0  0  0  0  0  0  0  0  0  0
    1.6617    0.1441  -11.8821 C   0  0  0  0  0  0  0  0  0  0  0  0
    0.4495   -0.4485  -11.3235 C   0  0  0  0  0  0  0  0  0  0  0  0
   -0.3667   -1.3559  -11.9541 C   0  0  0  0  0  0  0  0  0  0  0  0
   -0.2167   -1.7547  -13.2966 C   0  0  0  0  0  0  0  0  0  0  0  0
   -0.1480   -2.1074  -14.3873 N   0  0  0  0  0  0  0  0  0  0  0  0
   -1.4125   -2.0500  -11.3160 C   0  0  0  0  0  0  0  0  0  0  0  0
   -2.2413   -2.6939  -10.8480 N   0  0  0  0  0  0  0  0  0  0  0  0
    0.5584   -0.0391   11.3780 H   0  0  0  0  0  0  0  0  0  0  0  0
    4.0567   -2.8662   14.0951 H   0  0  0  0  0  0  0  0  0  0  0  0
    6.4828   -1.6654    9.9107 H   0  0  0  0  0  0  0  0  0  0  0  0
    2.2179   -0.8953    8.1488 H   0  0  0  0  0  0  0  0  0  0  0  0
   -1.7770    2.0606    7.8969 H   0  0  0  0  0  0  0  0  0  0  0  0
   -0.7810    1.5007   10.0751 H   0  0  0  0  0  0  0  0  0  0  0  0
   -2.5092    2.1830    5.3307 H   0  0  0  0  0  0  0  0  0  0  0  0
   -2.7173    1.9998    2.8818 H   0  0  0  0  0  0  0  0  0  0  0  0
    0.8221   -0.4163    2.7094 H   0  0  0  0  0  0  0  0  0  0  0  0
    0.0143    3.3628    1.1576 H   0  0  0  0  0  0  0  0  0  0  0  0
    0.4044    4.8770    3.0577 H   0  0  0  0  0  0  0  0  0  0  0  0
    3.5699    3.4512    6.5098 H   0  0  0  0  0  0  0  0  0  0  0  0
    3.9027    5.1753    6.7512 H   0  0  0  0  0  0  0  0  0  0  0  0
    4.5444    4.3662    5.3037 H   0  0  0  0  0  0  0  0  0  0  0  0
    3.6697    2.4266    4.3336 H   0  0  0  0  0  0  0  0  0  0  0  0
    3.2860    0.9315    2.4491 H   0  0  0  0  0  0  0  0  0  0  0  0
    3.5874    2.3539   -0.0937 H   0  0  0  0  0  0  0  0  0  0  0  0
    5.2979    1.4258   -1.6087 H   0  0  0  0  0  0  0  0  0  0  0  0
    4.9224   -3.3128   -2.8450 H   0  0  0  0  0  0  0  0  0  0  0  0
    5.5769   -2.8379   -4.4257 H   0  0  0  0  0  0  0  0  0  0  0  0
    3.9034   -2.4006   -4.0097 H   0  0  0  0  0  0  0  0  0  0  0  0
    3.1127   -2.2458   -1.8196 H   0  0  0  0  0  0  0  0  0  0  0  0
    1.4307   -1.3292   -0.3192 H   0  0  0  0  0  0  0  0  0  0  0  0
   -5.5180   -1.3162   -1.5962 H   0  0  0  0  0  0  0  0  0  0  0  0
   -7.2211   -0.3671   -0.1321 H   0  0  0  0  0  0  0  0  0  0  0  0
   -9.2560    0.7327    0.3303 H   0  0  0  0  0  0  0  0  0  0  0  0
   -8.2964    0.3635    1.8018 H   0  0  0  0  0  0  0  0  0  0  0  0
   -9.5513    1.6202    1.8408 H   0  0  0  0  0  0  0  0  0  0  0  0
   -5.4779    3.5115   -0.6160 H   0  0  0  0  0  0  0  0  0  0  0  0
   -3.7605    2.5426   -2.1069 H   0  0  0  0  0  0  0  0  0  0  0  0
   -2.0903   -2.0059   -3.7974 H   0  0  0  0  0  0  0  0  0  0  0  0
   -2.6634   -3.3202   -5.7592 H   0  0  0  0  0  0  0  0  0  0  0  0
   -2.7480   -3.0167   -8.1505 H   0  0  0  0  0  0  0  0  0  0  0  0
   -3.1498   -4.6908   -7.6385 H   0  0  0  0  0  0  0  0  0  0  0  0
   -3.6786   -4.0716   -9.2212 H   0  0  0  0  0  0  0  0  0  0  0  0
   -6.4613   -1.3683   -5.9660 H   0  0  0  0  0  0  0  0  0  0  0  0
   -5.8607    0.0037   -4.0183 H   0  0  0  0  0  0  0  0  0  0  0  0
   -1.7315   -0.3643   -9.6279 H   0  0  0  0  0  0  0  0  0  0  0  0
    3.9703    2.1011  -10.3067 H   0  0  0  0  0  0  0  0  0  0  0  0
    1.7654   -0.4632  -13.9638 H   0  0  0  0  0  0  0  0  0  0  0  0
  1  2  2  0  0  0  0
  2  3  1  0  0  0  0
  3  4  2  0  0  0  0
  3  5  1  0  0  0  0
  5  6  2  0  0  0  0
  6  7  1  0  0  0  0
  7  8  1  0  0  0  0
  7  9  2  0  0  0  0
  9 10  1  0  0  0  0
  9 11  1  0  0  0  0
 11 12  2  0  0  0  0
 12 13  1  0  0  0  0
 13 14  2  0  0  0  0
 14 15  1  0  0  0  0
 15 16  3  0  0  0  0
 14 17  1  0  0  0  0
 17 18  3  0  0  0  0
  1 19  1  0  0  0  0
 19 20  2  0  0  0  0
 20 21  1  0  0  0  0
 21 22  1  0  0  0  0
 22 23  2  0  0  0  0
 22 24  1  0  0  0  0
 24 25  2  0  0  0  0
 25 26  1  0  0  0  0
 26 27  1  0  0  0  0
 27 28  2  0  0  0  0
 25 29  1  0  0  0  0
 29 30  2  0  0  0  0
 30 31  1  0  0  0  0
 31 32  2  0  0  0  0
 31 33  1  0  0  0  0
 33 34  2  0  0  0  0
 34 35  1  0  0  0  0
 35 36  1  0  0  0  0
 36 37  2  0  0  0  0
 37 38  1  0  0  0  0
 38 39  2  0  0  0  0
 39 40  1  0  0  0  0
 40 41  1  0  0  0  0
 39 42  1  0  0  0  0
 42 43  2  0  0  0  0
 35 44  1  0  0  0  0
 44 45  2  0  0  0  0
 45 46  1  0  0  0  0
 46 47  2  0  0  0  0
 47 48  1  0  0  0  0
 48 49  1  0  0  0  0
 47 50  1  0  0  0  0
 50 51  2  0  0  0  0
 34 52  1  0  0  0  0
 52 53  1  0  0  0  0
 53 54  1  0  0  0  0
 54 55  2  0  0  0  0
 55 56  1  0  0  0  0
 56 57  1  0  0  0  0
 57 58  2  0  0  0  0
 58 59  1  0  0  0  0
 59 60  2  0  0  0  0
 60 61  1  0  0  0  0
 61 62  1  0  0  0  0
 60 63  1  0  0  0  0
 63 64  2  0  0  0  0
 56 65  1  0  0  0  0
 65 66  2  0  0  0  0
 66 67  1  0  0  0  0
 67 68  2  0  0  0  0
 68 69  1  0  0  0  0
 69 70  1  0  0  0  0
 68 71  1  0  0  0  0
 71 72  2  0  0  0  0
 55 73  1  0  0  0  0
 73 74  1  0  0  0  0
 54 75  1  0  0  0  0
 75 76  2  0  0  0  0
 76 77  1  0  0  0  0
 77 78  1  0  0  0  0
 78 79  2  0  0  0  0
 79 80  2  0  0  0  0
 77 81  2  0  0  0  0
 81 82  1  0  0  0  0
 82 83  2  0  0  0  0
 83 84  1  0  0  0  0
 84 85  1  0  0  0  0
 85 86  2  0  0  0  0
 81 87  1  0  0  0  0
 87 88  2  0  0  0  0
 88 89  1  0  0  0  0
 89 90  2  0  0  0  0
 89 91  1  0  0  0  0
 91 92  2  0  0  0  0
 92 93  1  0  0  0  0
 93 94  1  0  0  0  0
 93 95  2  0  0  0  0
 95 96  1  0  0  0  0
 95 97  1  0  0  0  0
 97 98  2  0  0  0  0
 98 99  1  0  0  0  0
 99100  2  0  0  0  0
100101  1  0  0  0  0
101102  3  0  0  0  0
100103  1  0  0  0  0
103104  3  0  0  0  0
 13  2  1  0  0  0  0
 28 19  1  0  0  0  0
 74 33  1  0  0  0  0
 86 75  1  0  0  0  0
 99 88  1  0  0  0  0
 12  5  1  0  0  0  0
 26 21  2  0  0  0  0
 43 36  1  0  0  0  0
 51 44  1  0  0  0  0
 73 52  2  0  0  0  0
 80 76  1  0  0  0  0
 86 82  1  0  0  0  0
 98 91  1  0  0  0  0
 32 24  1  0  0  0  0
 64 57  1  0  0  0  0
 72 65  1  0  0  0  0
  1105  1  0  0  0  0
  6106  1  0  0  0  0
 11107  1  0  0  0  0
 20108  1  0  0  0  0
 27109  1  0  0  0  0
 28110  1  0  0  0  0
 29111  1  0  0  0  0
 30112  1  0  0  0  0
 32113  1  0  0  0  0
 37114  1  0  0  0  0
 38115  1  0  0  0  0
 41116  1  0  0  0  0
 41117  1  0  0  0  0
 41118  1  0  0  0  0
 42119  1  0  0  0  0
 43120  1  0  0  0  0
 45121  1  0  0  0  0
 46122  1  0  0  0  0
 49123  1  0  0  0  0
 49124  1  0  0  0  0
 49125  1  0  0  0  0
 50126  1  0  0  0  0
 51127  1  0  0  0  0
 58128  1  0  0  0  0
 59129  1  0  0  0  0
 62130  1  0  0  0  0
 62131  1  0  0  0  0
 62132  1  0  0  0  0
 63133  1  0  0  0  0
 64134  1  0  0  0  0
 66135  1  0  0  0  0
 67136  1  0  0  0  0
 70137  1  0  0  0  0
 70138  1  0  0  0  0
 70139  1  0  0  0  0
 71140  1  0  0  0  0
 72141  1  0  0  0  0
 87142  1  0  0  0  0
 92143  1  0  0  0  0
 97144  1  0  0  0  0
M  END
