
  xtb     02102221443D
 energy: -283.524635093725 gnorm: 0.000829332580 xtb: 6.4.1 (unknown)
165180  0     0  0            999 V2000
   -6.6590   -9.7067   -2.9788 C   0  0  0  0  0  0  0  0  0  0  0  0
   -6.1286  -10.9116   -2.6455 C   0  0  0  0  0  0  0  0  0  0  0  0
   -4.6938  -11.2881   -2.7823 C   0  0  0  0  0  0  0  0  0  0  0  0
   -3.7452  -10.5721   -2.9984 O   0  0  0  0  0  0  0  0  0  0  0  0
   -4.6762  -12.7668   -2.6937 C   0  0  0  0  0  0  0  0  0  0  0  0
   -3.5908  -13.6104   -2.8213 C   0  0  0  0  0  0  0  0  0  0  0  0
   -3.8028  -14.9793   -2.7113 C   0  0  0  0  0  0  0  0  0  0  0  0
   -2.4956  -16.0858   -2.8568 Cl  0  0  0  0  0  0  0  0  0  0  0  0
   -5.0970  -15.4560   -2.4807 C   0  0  0  0  0  0  0  0  0  0  0  0
   -5.2937  -16.7754   -2.3846 F   0  0  0  0  0  0  0  0  0  0  0  0
   -6.1909  -14.6161   -2.3496 C   0  0  0  0  0  0  0  0  0  0  0  0
   -5.9751  -13.2500   -2.4572 C   0  0  0  0  0  0  0  0  0  0  0  0
   -6.8872  -12.1191   -2.3581 C   0  0  0  0  0  0  0  0  0  0  0  0
   -8.1948  -12.1665   -1.9554 C   0  0  0  0  0  0  0  0  0  0  0  0
   -8.9923  -11.0253   -1.7217 C   0  0  0  0  0  0  0  0  0  0  0  0
   -9.6761  -10.1363   -1.4766 N   0  0  0  0  0  0  0  0  0  0  0  0
   -8.8889  -13.3613   -1.6702 C   0  0  0  0  0  0  0  0  0  0  0  0
   -9.5006  -14.3035   -1.4364 N   0  0  0  0  0  0  0  0  0  0  0  0
   -5.9468   -8.4692   -3.1612 C   0  0  0  0  0  0  0  0  0  0  0  0
   -4.8636   -8.1183   -2.3370 C   0  0  0  0  0  0  0  0  0  0  0  0
   -4.2773   -6.8897   -2.5113 C   0  0  0  0  0  0  0  0  0  0  0  0
   -3.2038   -6.2461   -1.7078 C   0  0  0  0  0  0  0  0  0  0  0  0
   -2.6351   -6.6924   -0.7400 O   0  0  0  0  0  0  0  0  0  0  0  0
   -3.0375   -4.9071   -2.3284 C   0  0  0  0  0  0  0  0  0  0  0  0
   -3.9183   -4.7801   -3.4216 C   0  0  0  0  0  0  0  0  0  0  0  0
   -4.7061   -5.9987   -3.5176 C   0  0  0  0  0  0  0  0  0  0  0  0
   -5.7726   -6.3401   -4.3308 C   0  0  0  0  0  0  0  0  0  0  0  0
   -6.3988   -7.5568   -4.1243 C   0  0  0  0  0  0  0  0  0  0  0  0
   -3.9316   -3.6126   -4.1617 C   0  0  0  0  0  0  0  0  0  0  0  0
   -3.1466   -2.5498   -3.7403 C   0  0  0  0  0  0  0  0  0  0  0  0
   -2.3601   -2.6330   -2.5910 C   0  0  0  0  0  0  0  0  0  0  0  0
   -2.2523   -3.8606   -1.9153 C   0  0  0  0  0  0  0  0  0  0  0  0
   -1.7353   -1.4559   -2.0271 C   0  0  0  0  0  0  0  0  0  0  0  0
   -1.7230   -1.0929   -0.6914 C   0  0  0  0  0  0  0  0  0  0  0  0
   -2.3387   -1.7679    0.3518 N   0  0  0  0  0  0  0  0  0  0  0  0
   -1.7293   -1.7271    1.6153 C   0  0  0  0  0  0  0  0  0  0  0  0
   -2.4946   -1.5571    2.7690 C   0  0  0  0  0  0  0  0  0  0  0  0
   -1.8800   -1.4459    3.9952 C   0  0  0  0  0  0  0  0  0  0  0  0
   -0.4904   -1.5002    4.1009 C   0  0  0  0  0  0  0  0  0  0  0  0
    0.1847   -1.2895    5.7184 S   0  0  0  0  0  0  0  0  0  0  0  0
    1.9783   -1.2601    5.4363 C   0  0  0  0  0  0  0  0  0  0  0  0
    0.2719   -1.7096    2.9610 C   0  0  0  0  0  0  0  0  0  0  0  0
   -0.3457   -1.8255    1.7308 C   0  0  0  0  0  0  0  0  0  0  0  0
   -3.5111   -2.5081    0.1537 C   0  0  0  0  0  0  0  0  0  0  0  0
   -3.6965   -3.7212    0.8119 C   0  0  0  0  0  0  0  0  0  0  0  0
   -4.7849   -4.5222    0.5269 C   0  0  0  0  0  0  0  0  0  0  0  0
   -5.7074   -4.1255   -0.4308 C   0  0  0  0  0  0  0  0  0  0  0  0
   -7.0625   -5.1158   -0.9813 S   0  0  0  0  0  0  0  0  0  0  0  0
   -6.9882   -6.5936    0.0674 C   0  0  0  0  0  0  0  0  0  0  0  0
   -5.5678   -2.8768   -1.0352 C   0  0  0  0  0  0  0  0  0  0  0  0
   -4.4924   -2.0720   -0.7390 C   0  0  0  0  0  0  0  0  0  0  0  0
   -1.0262    0.1309   -0.5126 C   0  0  0  0  0  0  0  0  0  0  0  0
   -0.5882    1.0711    0.8662 S   0  0  0  0  0  0  0  0  0  0  0  0
    0.2496    2.2318   -0.1537 C   0  0  0  0  0  0  0  0  0  0  0  0
    0.2042    1.8853   -1.4939 C   0  0  0  0  0  0  0  0  0  0  0  0
    0.8475    2.5307   -2.5405 N   0  0  0  0  0  0  0  0  0  0  0  0
    2.0854    3.1591   -2.3590 C   0  0  0  0  0  0  0  0  0  0  0  0
    3.0437    2.6291   -1.4991 C   0  0  0  0  0  0  0  0  0  0  0  0
    4.2057    3.3220   -1.2223 C   0  0  0  0  0  0  0  0  0  0  0  0
    4.4356    4.5594   -1.8089 C   0  0  0  0  0  0  0  0  0  0  0  0
    5.8272    5.5841   -1.4591 S   0  0  0  0  0  0  0  0  0  0  0  0
    6.5723    4.8253    0.0056 C   0  0  0  0  0  0  0  0  0  0  0  0
    3.5169    5.0540   -2.7336 C   0  0  0  0  0  0  0  0  0  0  0  0
    2.3576    4.3668   -3.0058 C   0  0  0  0  0  0  0  0  0  0  0  0
    0.2167    2.5654   -3.7915 C   0  0  0  0  0  0  0  0  0  0  0  0
    0.9603    2.4280   -4.9646 C   0  0  0  0  0  0  0  0  0  0  0  0
    0.3324    2.4448   -6.1882 C   0  0  0  0  0  0  0  0  0  0  0  0
   -1.0519    2.5919   -6.2745 C   0  0  0  0  0  0  0  0  0  0  0  0
   -1.7396    2.5827   -7.9002 S   0  0  0  0  0  0  0  0  0  0  0  0
   -3.5289    2.7131   -7.6214 C   0  0  0  0  0  0  0  0  0  0  0  0
   -1.7947    2.7381   -5.1120 C   0  0  0  0  0  0  0  0  0  0  0  0
   -1.1628    2.7295   -3.8833 C   0  0  0  0  0  0  0  0  0  0  0  0
   -0.5450    0.6920   -1.6816 C   0  0  0  0  0  0  0  0  0  0  0  0
   -0.9718   -0.2603   -3.0614 S   0  0  0  0  0  0  0  0  0  0  0  0
    0.9988    3.2851    0.4958 C   0  0  0  0  0  0  0  0  0  0  0  0
    1.6345    3.0160    1.7127 C   0  0  0  0  0  0  0  0  0  0  0  0
    2.5151    3.9149    2.2654 C   0  0  0  0  0  0  0  0  0  0  0  0
    3.5023    3.8101    3.8750 Si  0  0  0  0  0  4  0  0  0  0  0  0
    4.6685    2.2980    3.9637 C   0  0  0  0  0  0  0  0  0  0  0  0
    5.5495    2.1489    2.7274 C   0  0  0  0  0  0  0  0  0  0  0  0
    2.4059    3.9794    5.4260 C   0  0  0  0  0  0  0  0  0  0  0  0
    1.5747    2.7305    5.7017 C   0  0  0  0  0  0  0  0  0  0  0  0
    4.3934    5.4050    3.3835 C   0  0  0  0  0  0  0  0  0  0  0  0
    3.8703    5.9092    2.1742 C   0  0  0  0  0  0  0  0  0  0  0  0
    2.7931    5.1214    1.5933 C   0  0  0  0  0  0  0  0  0  0  0  0
    2.0644    5.4505    0.4545 C   0  0  0  0  0  0  0  0  0  0  0  0
    1.1635    4.5504   -0.0760 C   0  0  0  0  0  0  0  0  0  0  0  0
    4.4306    7.0509    1.6055 C   0  0  0  0  0  0  0  0  0  0  0  0
    5.5180    7.6571    2.1962 C   0  0  0  0  0  0  0  0  0  0  0  0
    6.0529    7.1628    3.3929 C   0  0  0  0  0  0  0  0  0  0  0  0
    5.4424    6.0485    3.9922 C   0  0  0  0  0  0  0  0  0  0  0  0
    7.1708    7.7767    4.0531 C   0  0  0  0  0  0  0  0  0  0  0  0
    8.2688    8.3281    3.4677 C   0  0  0  0  0  0  0  0  0  0  0  0
    8.6997    8.0938    2.0656 C   0  0  0  0  0  0  0  0  0  0  0  0
    8.1224    7.4804    1.1938 O   0  0  0  0  0  0  0  0  0  0  0  0
   10.0571    8.6659    1.9701 C   0  0  0  0  0  0  0  0  0  0  0  0
   10.9058    8.6892    0.8797 C   0  0  0  0  0  0  0  0  0  0  0  0
   12.1517    9.2788    1.0236 C   0  0  0  0  0  0  0  0  0  0  0  0
   12.5206    9.8190    2.2478 C   0  0  0  0  0  0  0  0  0  0  0  0
   14.4304   10.6985    2.4416 I   0  0  0  0  0  0  0  0  0  0  0  0
   11.6805    9.8002    3.3526 C   0  0  0  0  0  0  0  0  0  0  0  0
   10.4315    9.2173    3.2069 C   0  0  0  0  0  0  0  0  0  0  0  0
    9.3313    9.0446    4.1533 C   0  0  0  0  0  0  0  0  0  0  0  0
    9.2915    9.5394    5.4285 C   0  0  0  0  0  0  0  0  0  0  0  0
    8.1895    9.4361    6.3052 C   0  0  0  0  0  0  0  0  0  0  0  0
    7.3383    9.4035    7.0749 N   0  0  0  0  0  0  0  0  0  0  0  0
   10.3498   10.2479    6.0372 C   0  0  0  0  0  0  0  0  0  0  0  0
   11.1785   10.8199    6.5876 N   0  0  0  0  0  0  0  0  0  0  0  0
   -7.7270   -9.6520   -3.1579 H   0  0  0  0  0  0  0  0  0  0  0  0
   -2.6047  -13.2121   -2.9996 H   0  0  0  0  0  0  0  0  0  0  0  0
   -7.1641  -15.0464   -2.1770 H   0  0  0  0  0  0  0  0  0  0  0  0
   -4.5277   -8.7753   -1.5507 H   0  0  0  0  0  0  0  0  0  0  0  0
   -6.1301   -5.6646   -5.0925 H   0  0  0  0  0  0  0  0  0  0  0  0
   -7.2478   -7.8274   -4.7355 H   0  0  0  0  0  0  0  0  0  0  0  0
   -4.5653   -3.5093   -5.0292 H   0  0  0  0  0  0  0  0  0  0  0  0
   -3.1772   -1.6132   -4.2787 H   0  0  0  0  0  0  0  0  0  0  0  0
   -1.5781   -3.9771   -1.0812 H   0  0  0  0  0  0  0  0  0  0  0  0
   -3.5696   -1.4973    2.6900 H   0  0  0  0  0  0  0  0  0  0  0  0
   -2.4673   -1.2975    4.8883 H   0  0  0  0  0  0  0  0  0  0  0  0
    2.2252   -0.4756    4.7268 H   0  0  0  0  0  0  0  0  0  0  0  0
    2.4222   -1.0403    6.4023 H   0  0  0  0  0  0  0  0  0  0  0  0
    2.3202   -2.2306    5.0883 H   0  0  0  0  0  0  0  0  0  0  0  0
    1.3457   -1.7882    3.0115 H   0  0  0  0  0  0  0  0  0  0  0  0
    0.2536   -1.9900    0.8470 H   0  0  0  0  0  0  0  0  0  0  0  0
   -2.9630   -4.0600    1.5278 H   0  0  0  0  0  0  0  0  0  0  0  0
   -4.8789   -5.4660    1.0381 H   0  0  0  0  0  0  0  0  0  0  0  0
   -6.0417   -7.1054   -0.0802 H   0  0  0  0  0  0  0  0  0  0  0  0
   -7.1311   -6.3145    1.1072 H   0  0  0  0  0  0  0  0  0  0  0  0
   -7.8063   -7.2276   -0.2614 H   0  0  0  0  0  0  0  0  0  0  0  0
   -6.3122   -2.5536   -1.7464 H   0  0  0  0  0  0  0  0  0  0  0  0
   -4.3929   -1.1084   -1.2155 H   0  0  0  0  0  0  0  0  0  0  0  0
    2.8689    1.6729   -1.0286 H   0  0  0  0  0  0  0  0  0  0  0  0
    4.9243    2.8897   -0.5447 H   0  0  0  0  0  0  0  0  0  0  0  0
    5.7994    4.6335    0.7436 H   0  0  0  0  0  0  0  0  0  0  0  0
    7.2696    5.5650    0.3874 H   0  0  0  0  0  0  0  0  0  0  0  0
    7.0982    3.9142   -0.2665 H   0  0  0  0  0  0  0  0  0  0  0  0
    3.7157    6.0001   -3.2130 H   0  0  0  0  0  0  0  0  0  0  0  0
    1.6365    4.7761   -3.6977 H   0  0  0  0  0  0  0  0  0  0  0  0
    2.0308    2.3022   -4.9043 H   0  0  0  0  0  0  0  0  0  0  0  0
    0.9045    2.3333   -7.0964 H   0  0  0  0  0  0  0  0  0  0  0  0
   -3.8722    1.8770   -7.0193 H   0  0  0  0  0  0  0  0  0  0  0  0
   -3.9812    2.6677   -8.6072 H   0  0  0  0  0  0  0  0  0  0  0  0
   -3.7660    3.6635   -7.1520 H   0  0  0  0  0  0  0  0  0  0  0  0
   -2.8644    2.8682   -5.1440 H   0  0  0  0  0  0  0  0  0  0  0  0
   -1.7473    2.8576   -2.9836 H   0  0  0  0  0  0  0  0  0  0  0  0
    1.4591    2.0645    2.1955 H   0  0  0  0  0  0  0  0  0  0  0  0
    4.0755    1.3911    4.0879 H   0  0  0  0  0  0  0  0  0  0  0  0
    5.3016    2.3746    4.8484 H   0  0  0  0  0  0  0  0  0  0  0  0
    4.9352    2.0556    1.8344 H   0  0  0  0  0  0  0  0  0  0  0  0
    6.1937    3.0177    2.6105 H   0  0  0  0  0  0  0  0  0  0  0  0
    6.1802    1.2649    2.8040 H   0  0  0  0  0  0  0  0  0  0  0  0
    1.7383    4.8330    5.3028 H   0  0  0  0  0  0  0  0  0  0  0  0
    3.0268    4.1936    6.2964 H   0  0  0  0  0  0  0  0  0  0  0  0
    2.2190    1.8790    5.9047 H   0  0  0  0  0  0  0  0  0  0  0  0
    0.9317    2.8786    6.5668 H   0  0  0  0  0  0  0  0  0  0  0  0
    0.9432    2.4908    4.8495 H   0  0  0  0  0  0  0  0  0  0  0  0
    2.2010    6.4059   -0.0289 H   0  0  0  0  0  0  0  0  0  0  0  0
    0.5868    4.8198   -0.9471 H   0  0  0  0  0  0  0  0  0  0  0  0
    4.0351    7.4544    0.6861 H   0  0  0  0  0  0  0  0  0  0  0  0
    5.9423    8.5428    1.7509 H   0  0  0  0  0  0  0  0  0  0  0  0
    5.8417    5.6677    4.9217 H   0  0  0  0  0  0  0  0  0  0  0  0
    7.1318    7.7500    5.1361 H   0  0  0  0  0  0  0  0  0  0  0  0
   10.5949    8.2586   -0.0596 H   0  0  0  0  0  0  0  0  0  0  0  0
   12.8341    9.3159    0.1887 H   0  0  0  0  0  0  0  0  0  0  0  0
   12.0029   10.2251    4.2890 H   0  0  0  0  0  0  0  0  0  0  0  0
  1  2  2  0  0  0  0
  2  3  1  0  0  0  0
  3  4  2  0  0  0  0
  3  5  1  0  0  0  0
  5  6  2  0  0  0  0
  6  7  1  0  0  0  0
  7  8  1  0  0  0  0
  7  9  2  0  0  0  0
  9 10  1  0  0  0  0
  9 11  1  0  0  0  0
 11 12  2  0  0  0  0
 12 13  1  0  0  0  0
 13 14  2  0  0  0  0
 14 15  1  0  0  0  0
 15 16  3  0  0  0  0
 14 17  1  0  0  0  0
 17 18  3  0  0  0  0
  1 19  1  0  0  0  0
 19 20  2  0  0  0  0
 20 21  1  0  0  0  0
 21 22  1  0  0  0  0
 22 23  2  0  0  0  0
 22 24  1  0  0  0  0
 24 25  2  0  0  0  0
 25 26  1  0  0  0  0
 26 27  1  0  0  0  0
 27 28  2  0  0  0  0
 25 29  1  0  0  0  0
 29 30  2  0  0  0  0
 30 31  1  0  0  0  0
 31 32  2  0  0  0  0
 31 33  1  0  0  0  0
 33 34  2  0  0  0  0
 34 35  1  0  0  0  0
 35 36  1  0  0  0  0
 36 37  2  0  0  0  0
 37 38  1  0  0  0  0
 38 39  2  0  0  0  0
 39 40  1  0  0  0  0
 40 41  1  0  0  0  0
 39 42  1  0  0  0  0
 42 43  2  0  0  0  0
 35 44  1  0  0  0  0
 44 45  2  0  0  0  0
 45 46  1  0  0  0  0
 46 47  2  0  0  0  0
 47 48  1  0  0  0  0
 48 49  1  0  0  0  0
 47 50  1  0  0  0  0
 50 51  2  0  0  0  0
 34 52  1  0  0  0  0
 52 53  1  0  0  0  0
 53 54  1  0  0  0  0
 54 55  2  0  0  0  0
 55 56  1  0  0  0  0
 56 57  1  0  0  0  0
 57 58  2  0  0  0  0
 58 59  1  0  0  0  0
 59 60  2  0  0  0  0
 60 61  1  0  0  0  0
 61 62  1  0  0  0  0
 60 63  1  0  0  0  0
 63 64  2  0  0  0  0
 56 65  1  0  0  0  0
 65 66  2  0  0  0  0
 66 67  1  0  0  0  0
 67 68  2  0  0  0  0
 68 69  1  0  0  0  0
 69 70  1  0  0  0  0
 68 71  1  0  0  0  0
 71 72  2  0  0  0  0
 55 73  1  0  0  0  0
 73 74  1  0  0  0  0
 54 75  1  0  0  0  0
 75 76  2  0  0  0  0
 76 77  1  0  0  0  0
 77 78  1  0  0  0  0
 78 79  1  0  0  0  0
 79 80  1  0  0  0  0
 78 81  1  0  0  0  0
 81 82  1  0  0  0  0
 78 83  1  0  0  0  0
 83 84  2  0  0  0  0
 84 85  1  0  0  0  0
 85 86  1  0  0  0  0
 86 87  2  0  0  0  0
 84 88  1  0  0  0  0
 88 89  2  0  0  0  0
 89 90  1  0  0  0  0
 90 91  2  0  0  0  0
 90 92  1  0  0  0  0
 92 93  2  0  0  0  0
 93 94  1  0  0  0  0
 94 95  2  0  0  0  0
 94 96  1  0  0  0  0
 96 97  2  0  0  0  0
 97 98  1  0  0  0  0
 98 99  2  0  0  0  0
 99100  1  0  0  0  0
 99101  1  0  0  0  0
101102  2  0  0  0  0
102103  1  0  0  0  0
103104  2  0  0  0  0
104105  1  0  0  0  0
105106  3  0  0  0  0
104107  1  0  0  0  0
107108  3  0  0  0  0
 13  2  1  0  0  0  0
 28 19  1  0  0  0  0
 74 33  1  0  0  0  0
 87 75  1  0  0  0  0
103 93  1  0  0  0  0
 12  5  1  0  0  0  0
 26 21  2  0  0  0  0
 43 36  1  0  0  0  0
 51 44  1  0  0  0  0
 73 52  2  0  0  0  0
 85 77  2  0  0  0  0
102 96  1  0  0  0  0
 32 24  1  0  0  0  0
 64 57  1  0  0  0  0
 72 65  1  0  0  0  0
 91 83  1  0  0  0  0
  1109  1  0  0  0  0
  6110  1  0  0  0  0
 11111  1  0  0  0  0
 20112  1  0  0  0  0
 27113  1  0  0  0  0
 28114  1  0  0  0  0
 29115  1  0  0  0  0
 30116  1  0  0  0  0
 32117  1  0  0  0  0
 37118  1  0  0  0  0
 38119  1  0  0  0  0
 41120  1  0  0  0  0
 41121  1  0  0  0  0
 41122  1  0  0  0  0
 42123  1  0  0  0  0
 43124  1  0  0  0  0
 45125  1  0  0  0  0
 46126  1  0  0  0  0
 49127  1  0  0  0  0
 49128  1  0  0  0  0
 49129  1  0  0  0  0
 50130  1  0  0  0  0
 51131  1  0  0  0  0
 58132  1  0  0  0  0
 59133  1  0  0  0  0
 62134  1  0  0  0  0
 62135  1  0  0  0  0
 62136  1  0  0  0  0
 63137  1  0  0  0  0
 64138  1  0  0  0  0
 66139  1  0  0  0  0
 67140  1  0  0  0  0
 70141  1  0  0  0  0
 70142  1  0  0  0  0
 70143  1  0  0  0  0
 71144  1  0  0  0  0
 72145  1  0  0  0  0
 76146  1  0  0  0  0
 79147  1  0  0  0  0
 79148  1  0  0  0  0
 80149  1  0  0  0  0
 80150  1  0  0  0  0
 80151  1  0  0  0  0
 81152  1  0  0  0  0
 81153  1  0  0  0  0
 82154  1  0  0  0  0
 82155  1  0  0  0  0
 82156  1  0  0  0  0
 86157  1  0  0  0  0
 87158  1  0  0  0  0
 88159  1  0  0  0  0
 89160  1  0  0  0  0
 91161  1  0  0  0  0
 92162  1  0  0  0  0
 97163  1  0  0  0  0
 98164  1  0  0  0  0
101165  1  0  0  0  0
M  END
