141

C          6.90080        2.06420       -4.36730
C          7.73640        1.28410       -5.12030
C          8.35760        0.00960       -4.70740
O          8.34680       -0.51080       -3.61320
C          9.13760       -0.44340       -5.88530
C          9.86010       -1.60900       -6.03400
C         10.52590       -1.82430       -7.23490
Cl        11.43310       -3.26410       -7.49070
C         10.45340       -0.85810       -8.23980
F         11.09830       -1.07080       -9.39450
C          9.73830        0.32040       -8.09290
C          9.06940        0.52950       -6.89690
C          8.23520        1.63780       -6.43350
C          7.94140        2.76620       -7.15510
C          8.43430        3.01760       -8.45280
N          8.80300        3.28040       -9.50800
C          7.12280        3.83730       -6.73520
N          6.48150        4.75870       -6.49170
C          6.10720        1.71320       -3.25320
C          5.62010        0.42690       -2.92360
C          4.63940        0.21280       -1.87330
N          4.27360       -1.06780       -1.78190
S          5.04740       -1.90930       -2.91110
N          5.86180       -0.70270       -3.58590
C          3.98940        1.28300       -1.22870
C          4.52680        2.55750       -1.49230
N          4.15600        3.70070       -0.91020
S          5.03230        4.89950       -1.51970
N          5.91730        4.04440       -2.54940
C          5.57170        2.76070       -2.46450
C          2.74330        1.12570       -0.55630
C          1.60930        1.90650       -0.78530
N          1.49400        2.83790       -1.79970
C          2.12760        2.59830       -3.02950
C          2.18800        1.30080       -3.53720
C          2.90660        1.01940       -4.68000
C          3.57980        2.03570       -5.34760
S          4.56760        1.76680       -6.78260
C          4.89020       -0.02280       -6.76260
C          3.46010        3.34700       -4.89050
C          2.73990        3.62610       -3.74800
C          0.74130        3.99190       -1.57800
C          0.00190        4.57460       -2.60470
C         -0.74710        5.71050       -2.37310
C         -0.77600        6.28130       -1.10590
S         -1.69370        7.72290       -0.68520
C         -2.49810        8.20810       -2.23770
C         -0.03360        5.70030       -0.07680
C          0.71830        4.57300       -0.30770
C          0.52750        1.45670        0.00620
S         -1.11780        1.95820        0.18060
C         -1.44300        0.56150        1.19510
C         -0.30060       -0.19130        1.46360
N         -0.24970       -1.24230        2.35090
C          0.70960       -2.24540        2.14550
C          0.94470       -2.72070        0.85730
C          1.95930       -3.62410        0.61520
C          2.75050       -4.07200        1.66440
S          4.12240       -5.15530        1.42920
C          4.60450       -4.79630       -0.28710
C          2.46650       -3.65980        2.96520
C          1.45840       -2.75360        3.20650
C         -1.05130       -1.24750        3.50640
C         -1.33430       -0.06330        4.18770
C         -2.16870       -0.07560        5.28080
C         -2.73210       -1.26910        5.73280
S         -3.78360       -1.15580        7.13730
C         -4.48680       -2.82110        7.28120
C         -2.41800       -2.45500        5.08290
C         -1.58930       -2.44040        3.97720
C          0.81350        0.32310        0.75550
S          2.44770       -0.20700        0.52990
C         -2.76870        0.23590        1.59470
C         -3.30820       -1.03540        1.65640
C         -4.63560       -1.07330        2.08460
C         -5.44530       -2.28640        2.02830
C         -6.73910       -2.25210        1.51040
C         -7.50090       -3.40310        1.46140
C         -6.98320       -4.60300        1.92400
C         -5.69120       -4.64870        2.41980
C         -4.92190       -3.50130        2.46570
C         -5.12250        0.19620        2.41630
S         -3.92910        1.42960        2.06200
C         -6.35070        0.61610        2.94990
C         -7.21360       -0.10290        3.74320
C         -6.86810       -1.31080        4.50970
O         -5.80690       -1.90120        4.55070
C         -8.06150       -1.61460        5.33080
C         -8.25320       -2.65930        6.21210
C         -9.46550       -2.72600        6.87980
F         -9.69220       -3.72960        7.73800
C        -10.44890       -1.76110        6.66640
F        -11.60780       -1.84690        7.32930
C        -10.25740       -0.71160        5.77940
C         -9.04970       -0.64290        5.10370
C         -8.55520        0.29940        4.10000
C         -9.28640        1.31130        3.53260
C        -10.60120        1.64800        3.91600
N        -11.66800        1.97310        4.18750
C         -8.84820        2.12480        2.46650
N         -8.57770        2.80170        1.57900
H          6.79230        3.10440       -4.64810
H          9.90190       -2.33470       -5.23770
H          9.72900        1.02760       -8.90600
H          1.67720        0.50120       -3.02010
H          2.93560        0.00430       -5.04300
H          3.98420       -0.57350       -6.99810
H          5.29950       -0.31230       -5.79790
H          5.62790       -0.19150       -7.54150
H          3.96560        4.13640       -5.42540
H          2.67330        4.64190       -3.38640
H          0.00850        4.12860       -3.58810
H         -1.31050        6.13450       -3.18810
H         -1.74860        8.43460       -2.99020
H         -3.06600        9.10320       -2.00330
H         -3.17060        7.42260       -2.56930
H         -0.05000        6.15510        0.90150
H          1.31540        4.14420        0.48230
H          0.33120       -2.37110        0.03970
H          2.12710       -3.96740       -0.39240
H          4.57040       -3.72300       -0.44950
H          3.95460       -5.32040       -0.98200
H          5.62140       -5.16090       -0.39260
H          3.06750       -4.03610        3.77830
H          1.26410       -2.40840        4.21070
H         -0.89820        0.86660        3.85460
H         -2.39310        0.84110        5.80420
H         -3.71590       -3.53190        7.56480
H         -4.95010       -3.07890        6.33340
H         -5.23430       -2.75710        8.06620
H         -2.82120       -3.39560        5.41950
H         -1.35250       -3.36500        3.46990
H         -2.76980       -1.90680        1.32970
H         -7.13950       -1.32140        1.13420
H         -8.50210       -3.36610        1.05760
H         -7.58460       -5.49910        1.89210
H         -5.28210       -5.58350        2.77420
H         -3.92510       -3.52590        2.87700
H         -6.60460        1.64990        2.74530
H         -7.49580       -3.40870        6.37620
H        -11.04710        0.01020        5.65000
