
  xtb     02032222483D
 energy: -312.421848859551 gnorm: 0.000576984356 xtb: 6.4.1 (unknown)
176194  0     0  0            999 V2000
  -12.6037    0.8147   -3.9523 C   0  0  0  0  0  0  0  0  0  0  0  0
  -13.6547   -0.0565   -4.0853 C   0  0  0  0  0  0  0  0  0  0  0  0
  -13.7290   -1.4900   -3.7285 C   0  0  0  0  0  0  0  0  0  0  0  0
  -12.9407   -2.1801   -3.1162 O   0  0  0  0  0  0  0  0  0  0  0  0
  -15.0136   -1.9725   -4.2819 C   0  0  0  0  0  0  0  0  0  0  0  0
  -15.5155   -3.2576   -4.2518 C   0  0  0  0  0  0  0  0  0  0  0  0
  -16.7481   -3.4959   -4.8462 C   0  0  0  0  0  0  0  0  0  0  0  0
  -17.4325   -5.0737   -4.8494 Cl  0  0  0  0  0  0  0  0  0  0  0  0
  -17.4320   -2.4365   -5.4474 C   0  0  0  0  0  0  0  0  0  0  0  0
  -18.6166   -2.6733   -6.0237 F   0  0  0  0  0  0  0  0  0  0  0  0
  -16.9349   -1.1428   -5.4748 C   0  0  0  0  0  0  0  0  0  0  0  0
  -15.7043   -0.9078   -4.8803 C   0  0  0  0  0  0  0  0  0  0  0  0
  -14.9094    0.3085   -4.7282 C   0  0  0  0  0  0  0  0  0  0  0  0
  -15.3299    1.5611   -5.0910 C   0  0  0  0  0  0  0  0  0  0  0  0
  -14.6364    2.7748   -4.8905 C   0  0  0  0  0  0  0  0  0  0  0  0
  -14.1669    3.8146   -4.7583 N   0  0  0  0  0  0  0  0  0  0  0  0
  -16.5734    1.8252   -5.7056 C   0  0  0  0  0  0  0  0  0  0  0  0
  -17.5633    2.1123   -6.2103 N   0  0  0  0  0  0  0  0  0  0  0  0
  -11.3228    0.6585   -3.3884 C   0  0  0  0  0  0  0  0  0  0  0  0
  -10.7365   -0.3829   -2.7066 C   0  0  0  0  0  0  0  0  0  0  0  0
   -9.4086   -0.1398   -2.3214 C   0  0  0  0  0  0  0  0  0  0  0  0
   -8.5352   -1.0320   -1.6524 C   0  0  0  0  0  0  0  0  0  0  0  0
   -8.9142   -2.3926   -1.3482 C   0  0  0  0  0  0  0  0  0  0  0  0
   -8.6264   -3.1244   -0.2263 C   0  0  0  0  0  0  0  0  0  0  0  0
   -9.1532   -4.4278   -0.2655 C   0  0  0  0  0  0  0  0  0  0  0  0
   -9.8191   -4.7095   -1.4215 C   0  0  0  0  0  0  0  0  0  0  0  0
  -10.5581   -5.9446   -1.8028 C   0  0  0  0  0  0  0  0  0  0  0  0
  -12.0693   -5.7013   -1.7642 C   0  0  0  0  0  0  0  0  0  0  0  0
   -9.8163   -3.3515   -2.4881 S   0  0  0  0  0  0  0  0  0  0  0  0
   -7.2791   -0.5340   -1.3373 C   0  0  0  0  0  0  0  0  0  0  0  0
   -6.8466    0.7708   -1.6885 C   0  0  0  0  0  0  0  0  0  0  0  0
   -7.6977    1.6462   -2.3976 C   0  0  0  0  0  0  0  0  0  0  0  0
   -7.2655    2.9562   -2.8398 C   0  0  0  0  0  0  0  0  0  0  0  0
   -7.9887    4.1156   -2.8928 C   0  0  0  0  0  0  0  0  0  0  0  0
   -7.2590    5.2095   -3.3985 C   0  0  0  0  0  0  0  0  0  0  0  0
   -5.9838    4.8962   -3.7560 C   0  0  0  0  0  0  0  0  0  0  0  0
   -4.9057    5.7839   -4.2736 C   0  0  0  0  0  0  0  0  0  0  0  0
   -3.8190    6.0038   -3.2186 C   0  0  0  0  0  0  0  0  0  0  0  0
   -5.6567    3.2215   -3.4616 S   0  0  0  0  0  0  0  0  0  0  0  0
   -8.9724    1.1665   -2.6788 C   0  0  0  0  0  0  0  0  0  0  0  0
  -10.2156    2.0256   -3.5356 S   0  0  0  0  0  0  0  0  0  0  0  0
   -5.5192    1.0079   -1.2712 C   0  0  0  0  0  0  0  0  0  0  0  0
   -4.9246   -0.0684   -0.6739 C   0  0  0  0  0  0  0  0  0  0  0  0
   -6.0088   -1.4310   -0.5463 S   0  0  0  0  0  0  0  0  0  0  0  0
   -3.5644   -0.1478   -0.2526 C   0  0  0  0  0  0  0  0  0  0  0  0
   -2.5959    0.7875   -0.4843 C   0  0  0  0  0  0  0  0  0  0  0  0
   -1.3097    0.3927   -0.0498 C   0  0  0  0  0  0  0  0  0  0  0  0
   -0.1101    1.1178   -0.1604 C   0  0  0  0  0  0  0  0  0  0  0  0
   -0.0677    2.4215   -0.8329 C   0  0  0  0  0  0  0  0  0  0  0  0
    0.5197    3.5222   -0.2170 C   0  0  0  0  0  0  0  0  0  0  0  0
    0.5537    4.7535   -0.8422 C   0  0  0  0  0  0  0  0  0  0  0  0
    0.0168    4.9016   -2.1140 C   0  0  0  0  0  0  0  0  0  0  0  0
   -0.0129    6.4289   -3.0018 S   0  0  0  0  0  0  0  0  0  0  0  0
    1.3507    7.4028   -2.2749 C   0  0  0  0  0  0  0  0  0  0  0  0
    2.7055    6.7707   -2.5284 C   0  0  0  0  0  0  0  0  0  0  0  0
   -0.5670    3.8036   -2.7417 C   0  0  0  0  0  0  0  0  0  0  0  0
   -0.6127    2.5816   -2.1073 C   0  0  0  0  0  0  0  0  0  0  0  0
    1.0206    0.5201    0.3702 C   0  0  0  0  0  0  0  0  0  0  0  0
    1.0046   -0.7547    0.9908 C   0  0  0  0  0  0  0  0  0  0  0  0
   -0.1976   -1.4742    1.1126 C   0  0  0  0  0  0  0  0  0  0  0  0
   -0.2355   -2.7763    1.7865 C   0  0  0  0  0  0  0  0  0  0  0  0
   -0.8504   -3.8743    1.1940 C   0  0  0  0  0  0  0  0  0  0  0  0
   -0.8776   -5.1039    1.8240 C   0  0  0  0  0  0  0  0  0  0  0  0
   -0.2927   -5.2552    3.0744 C   0  0  0  0  0  0  0  0  0  0  0  0
   -0.2455   -6.7673    3.9782 S   0  0  0  0  0  0  0  0  0  0  0  0
   -1.2807   -7.9150    2.9945 C   0  0  0  0  0  0  0  0  0  0  0  0
   -1.4108   -9.2264    3.7460 C   0  0  0  0  0  0  0  0  0  0  0  0
    0.3166   -4.1571    3.6811 C   0  0  0  0  0  0  0  0  0  0  0  0
    0.3461   -2.9368    3.0455 C   0  0  0  0  0  0  0  0  0  0  0  0
   -1.3267   -0.8841    0.5661 C   0  0  0  0  0  0  0  0  0  0  0  0
   -2.9345   -1.5641    0.5599 S   0  0  0  0  0  0  0  0  0  0  0  0
    2.3055   -1.1769    1.3569 C   0  0  0  0  0  0  0  0  0  0  0  0
    3.2825   -0.2765    1.0485 C   0  0  0  0  0  0  0  0  0  0  0  0
    2.6397    1.1696    0.2932 S   0  0  0  0  0  0  0  0  0  0  0  0
    4.6825   -0.4238    1.2600 C   0  0  0  0  0  0  0  0  0  0  0  0
    5.6833    0.4312    0.8993 C   0  0  0  0  0  0  0  0  0  0  0  0
    6.9767   -0.0343    1.2329 C   0  0  0  0  0  0  0  0  0  0  0  0
    8.2141    0.5794    0.9545 C   0  0  0  0  0  0  0  0  0  0  0  0
    8.2751    1.9013    0.3654 C   0  0  0  0  0  0  0  0  0  0  0  0
    7.5114    2.9934    0.6740 C   0  0  0  0  0  0  0  0  0  0  0  0
    7.8366    4.1314   -0.0880 C   0  0  0  0  0  0  0  0  0  0  0  0
    8.8420    3.9147   -0.9808 C   0  0  0  0  0  0  0  0  0  0  0  0
    9.4121    4.8607   -1.9804 C   0  0  0  0  0  0  0  0  0  0  0  0
    8.8489    4.5931   -3.3783 C   0  0  0  0  0  0  0  0  0  0  0  0
    9.4179    2.2846   -0.8891 S   0  0  0  0  0  0  0  0  0  0  0  0
    9.3575   -0.1392    1.2882 C   0  0  0  0  0  0  0  0  0  0  0  0
    9.3097   -1.4135    1.9169 C   0  0  0  0  0  0  0  0  0  0  0  0
    8.0651   -2.0323    2.2006 C   0  0  0  0  0  0  0  0  0  0  0  0
    7.9904   -3.3556    2.7759 C   0  0  0  0  0  0  0  0  0  0  0  0
    8.7633   -4.4506    2.4952 C   0  0  0  0  0  0  0  0  0  0  0  0
    8.3822   -5.6000    3.2118 C   0  0  0  0  0  0  0  0  0  0  0  0
    7.3282   -5.3928    4.0498 C   0  0  0  0  0  0  0  0  0  0  0  0
    6.6286   -6.3712    4.9275 C   0  0  0  0  0  0  0  0  0  0  0  0
    5.2352   -6.6981    4.3854 C   0  0  0  0  0  0  0  0  0  0  0  0
    6.7733   -3.7555    3.9568 S   0  0  0  0  0  0  0  0  0  0  0  0
    6.9335   -1.3071    1.8600 C   0  0  0  0  0  0  0  0  0  0  0  0
    5.2901   -1.8617    2.0509 S   0  0  0  0  0  0  0  0  0  0  0  0
   10.5944   -1.8775    2.2220 C   0  0  0  0  0  0  0  0  0  0  0  0
   11.6160   -1.0308    1.8198 C   0  0  0  0  0  0  0  0  0  0  0  0
   10.9903    0.4145    1.0542 S   0  0  0  0  0  0  0  0  0  0  0  0
   12.9670   -1.3708    2.0160 C   0  0  0  0  0  0  0  0  0  0  0  0
   14.1162   -0.7091    1.6728 C   0  0  0  0  0  0  0  0  0  0  0  0
   14.1987    0.6098    1.0250 C   0  0  0  0  0  0  0  0  0  0  0  0
   13.2890    1.3314    0.6720 O   0  0  0  0  0  0  0  0  0  0  0  0
   15.6425    0.9013    0.8895 C   0  0  0  0  0  0  0  0  0  0  0  0
   16.2389    2.0211    0.3472 C   0  0  0  0  0  0  0  0  0  0  0  0
   17.6270    2.0816    0.3240 C   0  0  0  0  0  0  0  0  0  0  0  0
   18.4369    3.4467   -0.3374 Cl  0  0  0  0  0  0  0  0  0  0  0  0
   18.3658    1.0172    0.8460 C   0  0  0  0  0  0  0  0  0  0  0  0
   19.7024    1.0814    0.8214 F   0  0  0  0  0  0  0  0  0  0  0  0
   17.7722   -0.1102    1.3919 C   0  0  0  0  0  0  0  0  0  0  0  0
   16.3869   -0.1688    1.4137 C   0  0  0  0  0  0  0  0  0  0  0  0
   15.4654   -1.1928    1.9024 C   0  0  0  0  0  0  0  0  0  0  0  0
   15.8426   -2.3903    2.4538 C   0  0  0  0  0  0  0  0  0  0  0  0
   14.9754   -3.4065    2.9074 C   0  0  0  0  0  0  0  0  0  0  0  0
   14.3489   -4.2878    3.2958 N   0  0  0  0  0  0  0  0  0  0  0  0
   17.1848   -2.7859    2.6383 C   0  0  0  0  0  0  0  0  0  0  0  0
   18.2521   -3.1680    2.8174 N   0  0  0  0  0  0  0  0  0  0  0  0
  -12.7543    1.8002   -4.3772 H   0  0  0  0  0  0  0  0  0  0  0  0
  -14.9621   -4.0531   -3.7787 H   0  0  0  0  0  0  0  0  0  0  0  0
  -17.5162   -0.3744   -5.9570 H   0  0  0  0  0  0  0  0  0  0  0  0
  -11.2709   -1.2876   -2.4893 H   0  0  0  0  0  0  0  0  0  0  0  0
   -8.0961   -2.7256    0.6196 H   0  0  0  0  0  0  0  0  0  0  0  0
   -9.0436   -5.1342    0.5382 H   0  0  0  0  0  0  0  0  0  0  0  0
  -10.2709   -6.2477   -2.8128 H   0  0  0  0  0  0  0  0  0  0  0  0
  -10.2917   -6.7488   -1.1137 H   0  0  0  0  0  0  0  0  0  0  0  0
  -12.3309   -4.8704   -2.4160 H   0  0  0  0  0  0  0  0  0  0  0  0
  -12.3861   -5.4561   -0.7530 H   0  0  0  0  0  0  0  0  0  0  0  0
  -12.6031   -6.5903   -2.0911 H   0  0  0  0  0  0  0  0  0  0  0  0
   -9.0015    4.1972   -2.5419 H   0  0  0  0  0  0  0  0  0  0  0  0
   -7.6707    6.1984   -3.4941 H   0  0  0  0  0  0  0  0  0  0  0  0
   -4.4541    5.3360   -5.1624 H   0  0  0  0  0  0  0  0  0  0  0  0
   -5.3444    6.7421   -4.5584 H   0  0  0  0  0  0  0  0  0  0  0  0
   -4.2389    6.4808   -2.3359 H   0  0  0  0  0  0  0  0  0  0  0  0
   -3.3820    5.0528   -2.9212 H   0  0  0  0  0  0  0  0  0  0  0  0
   -3.0270    6.6349   -3.6127 H   0  0  0  0  0  0  0  0  0  0  0  0
   -5.0145    1.9455   -1.4004 H   0  0  0  0  0  0  0  0  0  0  0  0
   -2.7908    1.7321   -0.9565 H   0  0  0  0  0  0  0  0  0  0  0  0
    0.9327    3.4214    0.7758 H   0  0  0  0  0  0  0  0  0  0  0  0
    0.9922    5.5906   -0.3224 H   0  0  0  0  0  0  0  0  0  0  0  0
    1.2704    8.3686   -2.7737 H   0  0  0  0  0  0  0  0  0  0  0  0
    1.1505    7.5435   -1.2132 H   0  0  0  0  0  0  0  0  0  0  0  0
    2.8768    6.6649   -3.5972 H   0  0  0  0  0  0  0  0  0  0  0  0
    2.7678    5.7849   -2.0714 H   0  0  0  0  0  0  0  0  0  0  0  0
    3.4896    7.3987   -2.1098 H   0  0  0  0  0  0  0  0  0  0  0  0
   -0.9774    3.9224   -3.7329 H   0  0  0  0  0  0  0  0  0  0  0  0
   -1.0460    1.7318   -2.6139 H   0  0  0  0  0  0  0  0  0  0  0  0
   -1.2924   -3.7765    0.2137 H   0  0  0  0  0  0  0  0  0  0  0  0
   -1.3517   -5.9337    1.3253 H   0  0  0  0  0  0  0  0  0  0  0  0
   -0.7942   -8.0662    2.0304 H   0  0  0  0  0  0  0  0  0  0  0  0
   -2.2548   -7.4456    2.8562 H   0  0  0  0  0  0  0  0  0  0  0  0
   -1.8667   -9.0628    4.7196 H   0  0  0  0  0  0  0  0  0  0  0  0
   -2.0323   -9.9168    3.1797 H   0  0  0  0  0  0  0  0  0  0  0  0
   -0.4329   -9.6779    3.8955 H   0  0  0  0  0  0  0  0  0  0  0  0
    0.7616   -4.2783    4.6570 H   0  0  0  0  0  0  0  0  0  0  0  0
    0.8006   -2.0888    3.5360 H   0  0  0  0  0  0  0  0  0  0  0  0
    2.5204   -2.1305    1.8055 H   0  0  0  0  0  0  0  0  0  0  0  0
    5.4946    1.3510    0.3761 H   0  0  0  0  0  0  0  0  0  0  0  0
    6.7714    2.9928    1.4546 H   0  0  0  0  0  0  0  0  0  0  0  0
    7.3452    5.0815    0.0275 H   0  0  0  0  0  0  0  0  0  0  0  0
    9.1718    5.8822   -1.6779 H   0  0  0  0  0  0  0  0  0  0  0  0
   10.4987    4.7554   -2.0057 H   0  0  0  0  0  0  0  0  0  0  0  0
    7.7674    4.7096   -3.3797 H   0  0  0  0  0  0  0  0  0  0  0  0
    9.0875    3.5793   -3.6911 H   0  0  0  0  0  0  0  0  0  0  0  0
    9.2754    5.2889   -4.0964 H   0  0  0  0  0  0  0  0  0  0  0  0
    9.5458   -4.4468    1.7577 H   0  0  0  0  0  0  0  0  0  0  0  0
    8.8747   -6.5505    3.1085 H   0  0  0  0  0  0  0  0  0  0  0  0
    7.2267   -7.2828    4.9858 H   0  0  0  0  0  0  0  0  0  0  0  0
    6.5319   -5.9592    5.9350 H   0  0  0  0  0  0  0  0  0  0  0  0
    4.7367   -7.4150    5.0326 H   0  0  0  0  0  0  0  0  0  0  0  0
    4.6292   -5.7963    4.3337 H   0  0  0  0  0  0  0  0  0  0  0  0
    5.3077   -7.1221    3.3864 H   0  0  0  0  0  0  0  0  0  0  0  0
   10.7912   -2.7974    2.7429 H   0  0  0  0  0  0  0  0  0  0  0  0
   13.0883   -2.3253    2.5141 H   0  0  0  0  0  0  0  0  0  0  0  0
   15.6394    2.8257   -0.0477 H   0  0  0  0  0  0  0  0  0  0  0  0
   18.4035   -0.8939    1.7771 H   0  0  0  0  0  0  0  0  0  0  0  0
  1  2  2  0  0  0  0
  2  3  1  0  0  0  0
  3  4  2  0  0  0  0
  3  5  1  0  0  0  0
  5  6  2  0  0  0  0
  6  7  1  0  0  0  0
  7  8  1  0  0  0  0
  7  9  2  0  0  0  0
  9 10  1  0  0  0  0
  9 11  1  0  0  0  0
 11 12  2  0  0  0  0
 12 13  1  0  0  0  0
 13 14  2  0  0  0  0
 14 15  1  0  0  0  0
 15 16  3  0  0  0  0
 14 17  1  0  0  0  0
 17 18  3  0  0  0  0
  1 19  1  0  0  0  0
 19 20  2  0  0  0  0
 20 21  1  0  0  0  0
 21 22  2  0  0  0  0
 22 23  1  0  0  0  0
 23 24  2  0  0  0  0
 24 25  1  0  0  0  0
 25 26  2  0  0  0  0
 26 27  1  0  0  0  0
 27 28  1  0  0  0  0
 26 29  1  0  0  0  0
 22 30  1  0  0  0  0
 30 31  2  0  0  0  0
 31 32  1  0  0  0  0
 32 33  1  0  0  0  0
 33 34  2  0  0  0  0
 34 35  1  0  0  0  0
 35 36  2  0  0  0  0
 36 37  1  0  0  0  0
 37 38  1  0  0  0  0
 36 39  1  0  0  0  0
 32 40  2  0  0  0  0
 40 41  1  0  0  0  0
 31 42  1  0  0  0  0
 42 43  2  0  0  0  0
 43 44  1  0  0  0  0
 43 45  1  0  0  0  0
 45 46  2  0  0  0  0
 46 47  1  0  0  0  0
 47 48  2  0  0  0  0
 48 49  1  0  0  0  0
 49 50  2  0  0  0  0
 50 51  1  0  0  0  0
 51 52  2  0  0  0  0
 52 53  1  0  0  0  0
 53 54  1  0  0  0  0
 54 55  1  0  0  0  0
 52 56  1  0  0  0  0
 56 57  2  0  0  0  0
 48 58  1  0  0  0  0
 58 59  2  0  0  0  0
 59 60  1  0  0  0  0
 60 61  1  0  0  0  0
 61 62  2  0  0  0  0
 62 63  1  0  0  0  0
 63 64  2  0  0  0  0
 64 65  1  0  0  0  0
 65 66  1  0  0  0  0
 66 67  1  0  0  0  0
 64 68  1  0  0  0  0
 68 69  2  0  0  0  0
 60 70  2  0  0  0  0
 70 71  1  0  0  0  0
 59 72  1  0  0  0  0
 72 73  2  0  0  0  0
 73 74  1  0  0  0  0
 73 75  1  0  0  0  0
 75 76  2  0  0  0  0
 76 77  1  0  0  0  0
 77 78  2  0  0  0  0
 78 79  1  0  0  0  0
 79 80  2  0  0  0  0
 80 81  1  0  0  0  0
 81 82  2  0  0  0  0
 82 83  1  0  0  0  0
 83 84  1  0  0  0  0
 82 85  1  0  0  0  0
 78 86  1  0  0  0  0
 86 87  2  0  0  0  0
 87 88  1  0  0  0  0
 88 89  1  0  0  0  0
 89 90  2  0  0  0  0
 90 91  1  0  0  0  0
 91 92  2  0  0  0  0
 92 93  1  0  0  0  0
 93 94  1  0  0  0  0
 92 95  1  0  0  0  0
 88 96  2  0  0  0  0
 96 97  1  0  0  0  0
 87 98  1  0  0  0  0
 98 99  2  0  0  0  0
 99100  1  0  0  0  0
 99101  1  0  0  0  0
101102  2  0  0  0  0
102103  1  0  0  0  0
103104  2  0  0  0  0
103105  1  0  0  0  0
105106  2  0  0  0  0
106107  1  0  0  0  0
107108  1  0  0  0  0
107109  2  0  0  0  0
109110  1  0  0  0  0
109111  1  0  0  0  0
111112  2  0  0  0  0
112113  1  0  0  0  0
113114  2  0  0  0  0
114115  1  0  0  0  0
115116  3  0  0  0  0
114117  1  0  0  0  0
117118  3  0  0  0  0
 13  2  1  0  0  0  0
 41 19  1  0  0  0  0
 71 45  1  0  0  0  0
 97 75  1  0  0  0  0
113102  1  0  0  0  0
 12  5  1  0  0  0  0
 40 21  1  0  0  0  0
 70 47  1  0  0  0  0
 96 77  1  0  0  0  0
112105  1  0  0  0  0
 29 23  1  0  0  0  0
 44 30  1  0  0  0  0
 57 49  1  0  0  0  0
 74 58  1  0  0  0  0
 85 79  1  0  0  0  0
100 86  1  0  0  0  0
 39 33  1  0  0  0  0
 69 61  1  0  0  0  0
 95 89  1  0  0  0  0
  1119  1  0  0  0  0
  6120  1  0  0  0  0
 11121  1  0  0  0  0
 20122  1  0  0  0  0
 24123  1  0  0  0  0
 25124  1  0  0  0  0
 27125  1  0  0  0  0
 27126  1  0  0  0  0
 28127  1  0  0  0  0
 28128  1  0  0  0  0
 28129  1  0  0  0  0
 34130  1  0  0  0  0
 35131  1  0  0  0  0
 37132  1  0  0  0  0
 37133  1  0  0  0  0
 38134  1  0  0  0  0
 38135  1  0  0  0  0
 38136  1  0  0  0  0
 42137  1  0  0  0  0
 46138  1  0  0  0  0
 50139  1  0  0  0  0
 51140  1  0  0  0  0
 54141  1  0  0  0  0
 54142  1  0  0  0  0
 55143  1  0  0  0  0
 55144  1  0  0  0  0
 55145  1  0  0  0  0
 56146  1  0  0  0  0
 57147  1  0  0  0  0
 62148  1  0  0  0  0
 63149  1  0  0  0  0
 66150  1  0  0  0  0
 66151  1  0  0  0  0
 67152  1  0  0  0  0
 67153  1  0  0  0  0
 67154  1  0  0  0  0
 68155  1  0  0  0  0
 69156  1  0  0  0  0
 72157  1  0  0  0  0
 76158  1  0  0  0  0
 80159  1  0  0  0  0
 81160  1  0  0  0  0
 83161  1  0  0  0  0
 83162  1  0  0  0  0
 84163  1  0  0  0  0
 84164  1  0  0  0  0
 84165  1  0  0  0  0
 90166  1  0  0  0  0
 91167  1  0  0  0  0
 93168  1  0  0  0  0
 93169  1  0  0  0  0
 94170  1  0  0  0  0
 94171  1  0  0  0  0
 94172  1  0  0  0  0
 98173  1  0  0  0  0
101174  1  0  0  0  0
106175  1  0  0  0  0
111176  1  0  0  0  0
M  END
