
  xtb     02112200213D
 energy: -274.208850579610 gnorm: 0.000835652720 xtb: 6.4.1 (unknown)
155170  0     0  0            999 V2000
    7.7685   -5.9941   -6.1372 C   0  0  0  0  0  0  0  0  0  0  0  0
    7.7463   -7.2748   -6.5724 C   0  0  0  0  0  0  0  0  0  0  0  0
    8.9358   -7.8907   -7.2231 C   0  0  0  0  0  0  0  0  0  0  0  0
   10.0716   -7.4843   -7.2059 O   0  0  0  0  0  0  0  0  0  0  0  0
    8.4001   -9.0667   -7.9493 C   0  0  0  0  0  0  0  0  0  0  0  0
    9.0627   -9.9176   -8.8114 C   0  0  0  0  0  0  0  0  0  0  0  0
    8.3462  -10.9534   -9.3991 C   0  0  0  0  0  0  0  0  0  0  0  0
    9.1116  -12.0462  -10.4836 Cl  0  0  0  0  0  0  0  0  0  0  0  0
    6.9883  -11.1042   -9.1019 C   0  0  0  0  0  0  0  0  0  0  0  0
    6.3038  -12.0976   -9.6802 F   0  0  0  0  0  0  0  0  0  0  0  0
    6.3169  -10.2620   -8.2307 C   0  0  0  0  0  0  0  0  0  0  0  0
    7.0340   -9.2283   -7.6478 C   0  0  0  0  0  0  0  0  0  0  0  0
    6.6421   -8.2165   -6.6748 C   0  0  0  0  0  0  0  0  0  0  0  0
    5.5580   -8.2755   -5.8407 C   0  0  0  0  0  0  0  0  0  0  0  0
    5.4215   -7.4571   -4.6979 C   0  0  0  0  0  0  0  0  0  0  0  0
    5.3247   -6.8763   -3.7137 N   0  0  0  0  0  0  0  0  0  0  0  0
    4.5050   -9.1984   -5.9860 C   0  0  0  0  0  0  0  0  0  0  0  0
    3.6034   -9.8999   -6.1031 N   0  0  0  0  0  0  0  0  0  0  0  0
    6.6147   -5.1696   -5.8612 C   0  0  0  0  0  0  0  0  0  0  0  0
    6.6246   -4.2763   -4.7785 C   0  0  0  0  0  0  0  0  0  0  0  0
    5.4827   -3.5623   -4.5077 C   0  0  0  0  0  0  0  0  0  0  0  0
    5.1865   -2.6568   -3.3626 C   0  0  0  0  0  0  0  0  0  0  0  0
    5.9276   -2.3130   -2.4736 O   0  0  0  0  0  0  0  0  0  0  0  0
    3.7630   -2.2772   -3.5586 C   0  0  0  0  0  0  0  0  0  0  0  0
    3.2855   -2.8386   -4.7595 C   0  0  0  0  0  0  0  0  0  0  0  0
    4.3401   -3.6614   -5.3277 C   0  0  0  0  0  0  0  0  0  0  0  0
    4.3488   -4.4940   -6.4314 C   0  0  0  0  0  0  0  0  0  0  0  0
    5.4804   -5.2510   -6.6774 C   0  0  0  0  0  0  0  0  0  0  0  0
    1.9936   -2.5797   -5.1767 C   0  0  0  0  0  0  0  0  0  0  0  0
    1.1559   -1.8620   -4.3383 C   0  0  0  0  0  0  0  0  0  0  0  0
    1.5877   -1.4149   -3.0857 C   0  0  0  0  0  0  0  0  0  0  0  0
    2.9357   -1.5630   -2.7282 C   0  0  0  0  0  0  0  0  0  0  0  0
    0.6575   -0.8944   -2.1076 C   0  0  0  0  0  0  0  0  0  0  0  0
   -0.5925   -1.3850   -1.7688 C   0  0  0  0  0  0  0  0  0  0  0  0
   -1.2296   -2.4782   -2.3368 N   0  0  0  0  0  0  0  0  0  0  0  0
   -2.6307   -2.4782   -2.4054 C   0  0  0  0  0  0  0  0  0  0  0  0
   -3.3502   -3.6457   -2.1466 C   0  0  0  0  0  0  0  0  0  0  0  0
   -4.7245   -3.6384   -2.2004 C   0  0  0  0  0  0  0  0  0  0  0  0
   -5.4165   -2.4670   -2.5073 C   0  0  0  0  0  0  0  0  0  0  0  0
   -7.1775   -2.5853   -2.5390 S   0  0  0  0  0  0  0  0  0  0  0  0
   -7.7265   -0.8722   -2.7851 C   0  0  0  0  0  0  0  0  0  0  0  0
   -4.7058   -1.3060   -2.7741 C   0  0  0  0  0  0  0  0  0  0  0  0
   -3.3245   -1.3152   -2.7266 C   0  0  0  0  0  0  0  0  0  0  0  0
   -0.5090   -3.5671   -2.8440 C   0  0  0  0  0  0  0  0  0  0  0  0
   -0.9434   -4.2060   -4.0037 C   0  0  0  0  0  0  0  0  0  0  0  0
   -0.1985   -5.2174   -4.5754 C   0  0  0  0  0  0  0  0  0  0  0  0
    1.0028   -5.6077   -3.9999 C   0  0  0  0  0  0  0  0  0  0  0  0
    2.0770   -6.8140   -4.7159 S   0  0  0  0  0  0  0  0  0  0  0  0
    0.9605   -7.7933   -5.7678 C   0  0  0  0  0  0  0  0  0  0  0  0
    1.4204   -5.0052   -2.8152 C   0  0  0  0  0  0  0  0  0  0  0  0
    0.6682   -4.0078   -2.2362 C   0  0  0  0  0  0  0  0  0  0  0  0
   -1.1308   -0.6654   -0.6679 C   0  0  0  0  0  0  0  0  0  0  0  0
   -2.6197   -0.7349    0.2091 S   0  0  0  0  0  0  0  0  0  0  0  0
   -2.0593    0.5165    1.3033 C   0  0  0  0  0  0  0  0  0  0  0  0
   -0.8062    1.0008    0.9684 C   0  0  0  0  0  0  0  0  0  0  0  0
   -0.1434    2.0525    1.5833 N   0  0  0  0  0  0  0  0  0  0  0  0
    1.2576    2.0221    1.6347 C   0  0  0  0  0  0  0  0  0  0  0  0
    2.0013    3.1873    1.4453 C   0  0  0  0  0  0  0  0  0  0  0  0
    3.3762    3.1337    1.4198 C   0  0  0  0  0  0  0  0  0  0  0  0
    4.0427    1.9187    1.5737 C   0  0  0  0  0  0  0  0  0  0  0  0
    5.8038    1.9547    1.4690 S   0  0  0  0  0  0  0  0  0  0  0  0
    6.2504    0.2176    1.1839 C   0  0  0  0  0  0  0  0  0  0  0  0
    3.3086    0.7646    1.8091 C   0  0  0  0  0  0  0  0  0  0  0  0
    1.9291    0.8199    1.8453 C   0  0  0  0  0  0  0  0  0  0  0  0
   -0.8517    3.1421    2.1100 C   0  0  0  0  0  0  0  0  0  0  0  0
   -0.4590    3.7317    3.3133 C   0  0  0  0  0  0  0  0  0  0  0  0
   -1.2244    4.7241    3.8837 C   0  0  0  0  0  0  0  0  0  0  0  0
   -2.3975    5.1561    3.2666 C   0  0  0  0  0  0  0  0  0  0  0  0
   -3.3416    6.3716    4.1289 S   0  0  0  0  0  0  0  0  0  0  0  0
   -4.8617    6.5061    3.1401 C   0  0  0  0  0  0  0  0  0  0  0  0
   -2.7551    4.6206    2.0362 C   0  0  0  0  0  0  0  0  0  0  0  0
   -1.9850    3.6289    1.4634 C   0  0  0  0  0  0  0  0  0  0  0  0
   -0.2888    0.3070   -0.1577 C   0  0  0  0  0  0  0  0  0  0  0  0
    1.1927    0.3908   -1.0384 S   0  0  0  0  0  0  0  0  0  0  0  0
   -2.9185    1.0184    2.3545 C   0  0  0  0  0  0  0  0  0  0  0  0
   -2.3622    1.3545    3.5997 C   0  0  0  0  0  0  0  0  0  0  0  0
   -3.1269    2.0689    4.4863 C   0  0  0  0  0  0  0  0  0  0  0  0
   -2.7272    2.6645    5.7894 C   0  0  0  0  0  0  0  0  0  0  0  0
   -1.6977    2.4930    6.3950 O   0  0  0  0  0  0  0  0  0  0  0  0
   -3.8857    3.5164    6.1669 C   0  0  0  0  0  0  0  0  0  0  0  0
   -4.9204    3.3425    5.2250 C   0  0  0  0  0  0  0  0  0  0  0  0
   -4.4517    2.4403    4.1835 C   0  0  0  0  0  0  0  0  0  0  0  0
   -5.0420    1.9901    3.0173 C   0  0  0  0  0  0  0  0  0  0  0  0
   -4.2671    1.2795    2.1125 C   0  0  0  0  0  0  0  0  0  0  0  0
   -6.1110    4.0308    5.3761 C   0  0  0  0  0  0  0  0  0  0  0  0
   -6.2299    4.9214    6.4300 C   0  0  0  0  0  0  0  0  0  0  0  0
   -5.1767    5.1584    7.3227 C   0  0  0  0  0  0  0  0  0  0  0  0
   -3.9975    4.4034    7.2086 C   0  0  0  0  0  0  0  0  0  0  0  0
   -5.3653    6.1534    8.3491 C   0  0  0  0  0  0  0  0  0  0  0  0
   -4.4358    6.9860    8.8777 C   0  0  0  0  0  0  0  0  0  0  0  0
   -3.0715    7.2531    8.3285 C   0  0  0  0  0  0  0  0  0  0  0  0
   -2.4886    6.6710    7.4438 O   0  0  0  0  0  0  0  0  0  0  0  0
   -2.5904    8.4457    9.0531 C   0  0  0  0  0  0  0  0  0  0  0  0
   -1.3996    9.1206    8.8815 C   0  0  0  0  0  0  0  0  0  0  0  0
   -1.1333   10.2330    9.6767 C   0  0  0  0  0  0  0  0  0  0  0  0
    0.1595   10.9707    9.5398 C   0  0  0  0  0  0  0  0  0  0  0  0
   -2.0818   10.6335   10.6171 C   0  0  0  0  0  0  0  0  0  0  0  0
   -3.2809    9.9618   10.7936 C   0  0  0  0  0  0  0  0  0  0  0  0
   -3.5429    8.8504   10.0045 C   0  0  0  0  0  0  0  0  0  0  0  0
   -4.6819    7.9461    9.9486 C   0  0  0  0  0  0  0  0  0  0  0  0
   -5.7559    7.9600   10.7968 C   0  0  0  0  0  0  0  0  0  0  0  0
   -5.9338    8.9036   11.8316 C   0  0  0  0  0  0  0  0  0  0  0  0
   -6.1450    9.6414   12.6848 N   0  0  0  0  0  0  0  0  0  0  0  0
   -6.8240    7.0374   10.7829 C   0  0  0  0  0  0  0  0  0  0  0  0
   -7.7248    6.3280   10.8474 N   0  0  0  0  0  0  0  0  0  0  0  0
    8.7451   -5.5320   -6.0428 H   0  0  0  0  0  0  0  0  0  0  0  0
   10.1114   -9.7798   -9.0211 H   0  0  0  0  0  0  0  0  0  0  0  0
    5.2687  -10.4276   -8.0404 H   0  0  0  0  0  0  0  0  0  0  0  0
    7.4894   -4.1984   -4.1376 H   0  0  0  0  0  0  0  0  0  0  0  0
    3.4886   -4.5711   -7.0781 H   0  0  0  0  0  0  0  0  0  0  0  0
    5.5030   -5.9064   -7.5369 H   0  0  0  0  0  0  0  0  0  0  0  0
    1.6284   -2.9468   -6.1235 H   0  0  0  0  0  0  0  0  0  0  0  0
    0.1421   -1.6568   -4.6468 H   0  0  0  0  0  0  0  0  0  0  0  0
    3.2978   -1.1735   -1.7883 H   0  0  0  0  0  0  0  0  0  0  0  0
   -2.8199   -4.5521   -1.8962 H   0  0  0  0  0  0  0  0  0  0  0  0
   -5.2836   -4.5380   -1.9942 H   0  0  0  0  0  0  0  0  0  0  0  0
   -7.3377   -0.2430   -1.9901 H   0  0  0  0  0  0  0  0  0  0  0  0
   -8.8104   -0.9039   -2.7346 H   0  0  0  0  0  0  0  0  0  0  0  0
   -7.4155   -0.5143   -3.7623 H   0  0  0  0  0  0  0  0  0  0  0  0
   -5.2101   -0.3879   -3.0287 H   0  0  0  0  0  0  0  0  0  0  0  0
   -2.7774   -0.4099   -2.9469 H   0  0  0  0  0  0  0  0  0  0  0  0
   -1.8625   -3.8890   -4.4747 H   0  0  0  0  0  0  0  0  0  0  0  0
   -0.5522   -5.6767   -5.4846 H   0  0  0  0  0  0  0  0  0  0  0  0
    0.0692   -8.0506   -5.2048 H   0  0  0  0  0  0  0  0  0  0  0  0
    1.5157   -8.6926   -6.0194 H   0  0  0  0  0  0  0  0  0  0  0  0
    0.7112   -7.2471   -6.6730 H   0  0  0  0  0  0  0  0  0  0  0  0
    2.3431   -5.3303   -2.3599 H   0  0  0  0  0  0  0  0  0  0  0  0
    0.9959   -3.5555   -1.3127 H   0  0  0  0  0  0  0  0  0  0  0  0
    1.4907    4.1273    1.2992 H   0  0  0  0  0  0  0  0  0  0  0  0
    3.9536    4.0307    1.2577 H   0  0  0  0  0  0  0  0  0  0  0  0
    7.3057    0.2249    0.9300 H   0  0  0  0  0  0  0  0  0  0  0  0
    5.6766   -0.1783    0.3516 H   0  0  0  0  0  0  0  0  0  0  0  0
    6.0966   -0.3668    2.0865 H   0  0  0  0  0  0  0  0  0  0  0  0
    3.7980   -0.1826    1.9687 H   0  0  0  0  0  0  0  0  0  0  0  0
    1.3650   -0.0816    2.0366 H   0  0  0  0  0  0  0  0  0  0  0  0
    0.4298    3.3823    3.8160 H   0  0  0  0  0  0  0  0  0  0  0  0
   -0.9416    5.1575    4.8304 H   0  0  0  0  0  0  0  0  0  0  0  0
   -4.6458    6.9545    2.1746 H   0  0  0  0  0  0  0  0  0  0  0  0
   -5.5212    7.1561    3.7065 H   0  0  0  0  0  0  0  0  0  0  0  0
   -5.3148    5.5257    3.0295 H   0  0  0  0  0  0  0  0  0  0  0  0
   -3.6313    4.9646    1.5112 H   0  0  0  0  0  0  0  0  0  0  0  0
   -2.2751    3.2141    0.5092 H   0  0  0  0  0  0  0  0  0  0  0  0
   -1.3496    1.0773    3.8474 H   0  0  0  0  0  0  0  0  0  0  0  0
   -6.0719    2.2195    2.7866 H   0  0  0  0  0  0  0  0  0  0  0  0
   -4.6939    0.9656    1.1705 H   0  0  0  0  0  0  0  0  0  0  0  0
   -6.9305    3.8894    4.6868 H   0  0  0  0  0  0  0  0  0  0  0  0
   -7.1472    5.4807    6.5491 H   0  0  0  0  0  0  0  0  0  0  0  0
   -3.1978    4.5008    7.9230 H   0  0  0  0  0  0  0  0  0  0  0  0
   -6.3899    6.2634    8.6856 H   0  0  0  0  0  0  0  0  0  0  0  0
   -0.6927    8.7797    8.1400 H   0  0  0  0  0  0  0  0  0  0  0  0
    0.9048   10.5319   10.2042 H   0  0  0  0  0  0  0  0  0  0  0  0
    0.0432   12.0170    9.8114 H   0  0  0  0  0  0  0  0  0  0  0  0
    0.5377   10.9041    8.5227 H   0  0  0  0  0  0  0  0  0  0  0  0
   -1.8756   11.4995   11.2293 H   0  0  0  0  0  0  0  0  0  0  0  0
   -3.9877   10.3117   11.5282 H   0  0  0  0  0  0  0  0  0  0  0  0
  1  2  2  0  0  0  0
  2  3  1  0  0  0  0
  3  4  2  0  0  0  0
  3  5  1  0  0  0  0
  5  6  2  0  0  0  0
  6  7  1  0  0  0  0
  7  8  1  0  0  0  0
  7  9  2  0  0  0  0
  9 10  1  0  0  0  0
  9 11  1  0  0  0  0
 11 12  2  0  0  0  0
 12 13  1  0  0  0  0
 13 14  2  0  0  0  0
 14 15  1  0  0  0  0
 15 16  3  0  0  0  0
 14 17  1  0  0  0  0
 17 18  3  0  0  0  0
  1 19  1  0  0  0  0
 19 20  2  0  0  0  0
 20 21  1  0  0  0  0
 21 22  1  0  0  0  0
 22 23  2  0  0  0  0
 22 24  1  0  0  0  0
 24 25  2  0  0  0  0
 25 26  1  0  0  0  0
 26 27  1  0  0  0  0
 27 28  2  0  0  0  0
 25 29  1  0  0  0  0
 29 30  2  0  0  0  0
 30 31  1  0  0  0  0
 31 32  2  0  0  0  0
 31 33  1  0  0  0  0
 33 34  2  0  0  0  0
 34 35  1  0  0  0  0
 35 36  1  0  0  0  0
 36 37  2  0  0  0  0
 37 38  1  0  0  0  0
 38 39  2  0  0  0  0
 39 40  1  0  0  0  0
 40 41  1  0  0  0  0
 39 42  1  0  0  0  0
 42 43  2  0  0  0  0
 35 44  1  0  0  0  0
 44 45  2  0  0  0  0
 45 46  1  0  0  0  0
 46 47  2  0  0  0  0
 47 48  1  0  0  0  0
 48 49  1  0  0  0  0
 47 50  1  0  0  0  0
 50 51  2  0  0  0  0
 34 52  1  0  0  0  0
 52 53  1  0  0  0  0
 53 54  1  0  0  0  0
 54 55  2  0  0  0  0
 55 56  1  0  0  0  0
 56 57  1  0  0  0  0
 57 58  2  0  0  0  0
 58 59  1  0  0  0  0
 59 60  2  0  0  0  0
 60 61  1  0  0  0  0
 61 62  1  0  0  0  0
 60 63  1  0  0  0  0
 63 64  2  0  0  0  0
 56 65  1  0  0  0  0
 65 66  2  0  0  0  0
 66 67  1  0  0  0  0
 67 68  2  0  0  0  0
 68 69  1  0  0  0  0
 69 70  1  0  0  0  0
 68 71  1  0  0  0  0
 71 72  2  0  0  0  0
 55 73  1  0  0  0  0
 73 74  1  0  0  0  0
 54 75  1  0  0  0  0
 75 76  2  0  0  0  0
 76 77  1  0  0  0  0
 77 78  1  0  0  0  0
 78 79  2  0  0  0  0
 78 80  1  0  0  0  0
 80 81  2  0  0  0  0
 81 82  1  0  0  0  0
 82 83  1  0  0  0  0
 83 84  2  0  0  0  0
 81 85  1  0  0  0  0
 85 86  2  0  0  0  0
 86 87  1  0  0  0  0
 87 88  2  0  0  0  0
 87 89  1  0  0  0  0
 89 90  2  0  0  0  0
 90 91  1  0  0  0  0
 91 92  2  0  0  0  0
 91 93  1  0  0  0  0
 93 94  2  0  0  0  0
 94 95  1  0  0  0  0
 95 96  1  0  0  0  0
 95 97  2  0  0  0  0
 97 98  1  0  0  0  0
 98 99  2  0  0  0  0
 99100  1  0  0  0  0
100101  2  0  0  0  0
101102  1  0  0  0  0
102103  3  0  0  0  0
101104  1  0  0  0  0
104105  3  0  0  0  0
 13  2  1  0  0  0  0
 28 19  1  0  0  0  0
 74 33  1  0  0  0  0
 84 75  1  0  0  0  0
100 90  1  0  0  0  0
 12  5  1  0  0  0  0
 26 21  2  0  0  0  0
 43 36  1  0  0  0  0
 51 44  1  0  0  0  0
 73 52  2  0  0  0  0
 82 77  2  0  0  0  0
 99 93  1  0  0  0  0
 32 24  1  0  0  0  0
 64 57  1  0  0  0  0
 72 65  1  0  0  0  0
 88 80  1  0  0  0  0
  1106  1  0  0  0  0
  6107  1  0  0  0  0
 11108  1  0  0  0  0
 20109  1  0  0  0  0
 27110  1  0  0  0  0
 28111  1  0  0  0  0
 29112  1  0  0  0  0
 30113  1  0  0  0  0
 32114  1  0  0  0  0
 37115  1  0  0  0  0
 38116  1  0  0  0  0
 41117  1  0  0  0  0
 41118  1  0  0  0  0
 41119  1  0  0  0  0
 42120  1  0  0  0  0
 43121  1  0  0  0  0
 45122  1  0  0  0  0
 46123  1  0  0  0  0
 49124  1  0  0  0  0
 49125  1  0  0  0  0
 49126  1  0  0  0  0
 50127  1  0  0  0  0
 51128  1  0  0  0  0
 58129  1  0  0  0  0
 59130  1  0  0  0  0
 62131  1  0  0  0  0
 62132  1  0  0  0  0
 62133  1  0  0  0  0
 63134  1  0  0  0  0
 64135  1  0  0  0  0
 66136  1  0  0  0  0
 67137  1  0  0  0  0
 70138  1  0  0  0  0
 70139  1  0  0  0  0
 70140  1  0  0  0  0
 71141  1  0  0  0  0
 72142  1  0  0  0  0
 76143  1  0  0  0  0
 83144  1  0  0  0  0
 84145  1  0  0  0  0
 85146  1  0  0  0  0
 86147  1  0  0  0  0
 88148  1  0  0  0  0
 89149  1  0  0  0  0
 94150  1  0  0  0  0
 96151  1  0  0  0  0
 96152  1  0  0  0  0
 96153  1  0  0  0  0
 97154  1  0  0  0  0
 98155  1  0  0  0  0
M  END
