
  xtb     02102221113D
 energy: -205.159084075895 gnorm: 0.000438833112 xtb: 6.4.1 (unknown)
 92103  0     0  0            999 V2000
    2.8672    0.6593   -6.7138 C   0  0  0  0  0  0  0  0  0  0  0  0
    2.5662    1.6939   -7.5478 C   0  0  0  0  0  0  0  0  0  0  0  0
    1.8299    2.9214   -7.1524 C   0  0  0  0  0  0  0  0  0  0  0  0
    1.3971    3.2192   -6.0621 O   0  0  0  0  0  0  0  0  0  0  0  0
    1.8646    3.7983   -8.3452 C   0  0  0  0  0  0  0  0  0  0  0  0
    1.3056    5.0511   -8.4960 C   0  0  0  0  0  0  0  0  0  0  0  0
    1.4799    5.7105   -9.7067 C   0  0  0  0  0  0  0  0  0  0  0  0
    0.8016    7.2693   -9.9645 Cl  0  0  0  0  0  0  0  0  0  0  0  0
    2.2173    5.0944  -10.7212 C   0  0  0  0  0  0  0  0  0  0  0  0
    2.3866    5.7374  -11.8823 F   0  0  0  0  0  0  0  0  0  0  0  0
    2.7874    3.8399  -10.5743 C   0  0  0  0  0  0  0  0  0  0  0  0
    2.6066    3.1818   -9.3669 C   0  0  0  0  0  0  0  0  0  0  0  0
    3.0578    1.8734   -8.9022 C   0  0  0  0  0  0  0  0  0  0  0  0
    3.7571    0.9610   -9.6457 C   0  0  0  0  0  0  0  0  0  0  0  0
    4.1985    1.1913  -10.9667 C   0  0  0  0  0  0  0  0  0  0  0  0
    4.5899    1.3213  -12.0376 N   0  0  0  0  0  0  0  0  0  0  0  0
    4.1249   -0.3334   -9.2176 C   0  0  0  0  0  0  0  0  0  0  0  0
    4.4500   -1.4044   -8.9625 N   0  0  0  0  0  0  0  0  0  0  0  0
    2.2403    0.3795   -5.4661 C   0  0  0  0  0  0  0  0  0  0  0  0
    0.8803    0.6058   -5.1830 C   0  0  0  0  0  0  0  0  0  0  0  0
    0.3078    0.3328   -3.8775 C   0  0  0  0  0  0  0  0  0  0  0  0
   -0.9883    0.6686   -3.8321 N   0  0  0  0  0  0  0  0  0  0  0  0
   -1.4392    1.1920   -5.2673 S   0  0  0  0  0  4  0  0  0  0  0  0
   -0.0442    1.0538   -6.0358 N   0  0  0  0  0  0  0  0  0  0  0  0
    1.0563   -0.2030   -2.8212 C   0  0  0  0  0  0  0  0  0  0  0  0
    2.3938   -0.4974   -3.1190 C   0  0  0  0  0  0  0  0  0  0  0  0
    3.2861   -1.0688   -2.2996 N   0  0  0  0  0  0  0  0  0  0  0  0
    4.6778   -1.2148   -3.0676 S   0  0  0  0  0  0  0  0  0  0  0  0
    4.2550   -0.5806   -4.4770 N   0  0  0  0  0  0  0  0  0  0  0  0
    2.9687   -0.2267   -4.4223 C   0  0  0  0  0  0  0  0  0  0  0  0
    0.4886   -0.4104   -1.4983 C   0  0  0  0  0  0  0  0  0  0  0  0
   -0.7199   -1.0490   -1.3080 C   0  0  0  0  0  0  0  0  0  0  0  0
   -1.3774   -1.5770   -2.3483 F   0  0  0  0  0  0  0  0  0  0  0  0
   -1.2554   -1.2566   -0.0274 C   0  0  0  0  0  0  0  0  0  0  0  0
   -2.3885   -1.9623    0.0644 F   0  0  0  0  0  0  0  0  0  0  0  0
   -0.6033   -0.8327    1.1129 C   0  0  0  0  0  0  0  0  0  0  0  0
    0.6389   -0.1579    0.9508 C   0  0  0  0  0  0  0  0  0  0  0  0
    1.2851    0.3214    2.0235 N   0  0  0  0  0  0  0  0  0  0  0  0
    2.4498    0.8970    1.8817 C   0  0  0  0  0  0  0  0  0  0  0  0
    3.0801    1.4368    3.1291 C   0  0  0  0  0  0  0  0  0  0  0  0
    2.6810    2.9003    3.3373 C   0  0  0  0  0  0  0  0  0  0  0  0
    3.0179    1.0604    0.5838 C   0  0  0  0  0  0  0  0  0  0  0  0
    2.3609    0.6714   -0.4768 N   0  0  0  0  0  0  0  0  0  0  0  0
    1.1843    0.0424   -0.3434 C   0  0  0  0  0  0  0  0  0  0  0  0
    4.3766    1.6411    0.3408 C   0  0  0  0  0  0  0  0  0  0  0  0
    5.4273    0.5310    0.4381 C   0  0  0  0  0  0  0  0  0  0  0  0
   -1.1449   -1.0542    2.4430 C   0  0  0  0  0  0  0  0  0  0  0  0
   -2.4742   -0.7511    2.7671 C   0  0  0  0  0  0  0  0  0  0  0  0
   -3.0210   -0.9489    4.0967 C   0  0  0  0  0  0  0  0  0  0  0  0
   -4.2761   -0.5022    4.1780 N   0  0  0  0  0  0  0  0  0  0  0  0
   -4.7285    0.0494    2.7467 S   0  0  0  0  0  4  0  0  0  0  0  0
   -3.3719   -0.1916    1.9456 N   0  0  0  0  0  0  0  0  0  0  0  0
   -2.2514   -1.4752    5.1524 C   0  0  0  0  0  0  0  0  0  0  0  0
   -0.8991   -1.7164    4.8352 C   0  0  0  0  0  0  0  0  0  0  0  0
    0.0220   -2.1923    5.6768 N   0  0  0  0  0  0  0  0  0  0  0  0
    1.3998   -2.3878    4.8811 S   0  0  0  0  0  0  0  0  0  0  0  0
    0.9257   -1.8997    3.4374 N   0  0  0  0  0  0  0  0  0  0  0  0
   -0.3599   -1.5297    3.5023 C   0  0  0  0  0  0  0  0  0  0  0  0
   -2.7330   -1.6807    6.4758 C   0  0  0  0  0  0  0  0  0  0  0  0
   -4.0013   -2.0441    6.8170 C   0  0  0  0  0  0  0  0  0  0  0  0
   -4.9740   -2.6931    5.9006 C   0  0  0  0  0  0  0  0  0  0  0  0
   -4.8203   -3.0034    4.7418 O   0  0  0  0  0  0  0  0  0  0  0  0
   -6.1419   -3.0285    6.7477 C   0  0  0  0  0  0  0  0  0  0  0  0
   -7.3212   -3.6361    6.3677 C   0  0  0  0  0  0  0  0  0  0  0  0
   -8.2858   -3.8713    7.3400 C   0  0  0  0  0  0  0  0  0  0  0  0
   -9.7822   -4.6131    6.9325 Cl  0  0  0  0  0  0  0  0  0  0  0  0
   -8.0297   -3.4983    8.6622 C   0  0  0  0  0  0  0  0  0  0  0  0
   -8.9606   -3.7325    9.5944 F   0  0  0  0  0  0  0  0  0  0  0  0
   -6.8446   -2.8951    9.0524 C   0  0  0  0  0  0  0  0  0  0  0  0
   -5.8870   -2.6555    8.0784 C   0  0  0  0  0  0  0  0  0  0  0  0
   -4.5667   -2.0371    8.1529 C   0  0  0  0  0  0  0  0  0  0  0  0
   -4.0098   -1.4740    9.2702 C   0  0  0  0  0  0  0  0  0  0  0  0
   -4.6203   -1.4735   10.5427 C   0  0  0  0  0  0  0  0  0  0  0  0
   -5.0611   -1.4481   11.6019 N   0  0  0  0  0  0  0  0  0  0  0  0
   -2.7716   -0.7969    9.3083 C   0  0  0  0  0  0  0  0  0  0  0  0
   -1.7911   -0.2111    9.4233 N   0  0  0  0  0  0  0  0  0  0  0  0
    3.6780   -0.0120   -6.9685 H   0  0  0  0  0  0  0  0  0  0  0  0
    0.7449    5.5024   -7.6931 H   0  0  0  0  0  0  0  0  0  0  0  0
    3.3494    3.4242  -11.3946 H   0  0  0  0  0  0  0  0  0  0  0  0
    4.1652    1.3504    3.0802 H   0  0  0  0  0  0  0  0  0  0  0  0
    2.7160    0.8471    3.9709 H   0  0  0  0  0  0  0  0  0  0  0  0
    1.6004    2.9822    3.4223 H   0  0  0  0  0  0  0  0  0  0  0  0
    3.0071    3.5177    2.5031 H   0  0  0  0  0  0  0  0  0  0  0  0
    3.1317    3.2831    4.2493 H   0  0  0  0  0  0  0  0  0  0  0  0
    4.3897    2.0583   -0.6667 H   0  0  0  0  0  0  0  0  0  0  0  0
    4.6014    2.4321    1.0552 H   0  0  0  0  0  0  0  0  0  0  0  0
    6.4126    0.9274    0.2069 H   0  0  0  0  0  0  0  0  0  0  0  0
    5.1915   -0.2625   -0.2669 H   0  0  0  0  0  0  0  0  0  0  0  0
    5.4505    0.1038    1.4382 H   0  0  0  0  0  0  0  0  0  0  0  0
   -1.9862   -1.5559    7.2501 H   0  0  0  0  0  0  0  0  0  0  0  0
   -7.4878   -3.9164    5.3398 H   0  0  0  0  0  0  0  0  0  0  0  0
   -6.7076   -2.6384   10.0902 H   0  0  0  0  0  0  0  0  0  0  0  0
  1  2  2  0  0  0  0
  2  3  1  0  0  0  0
  3  4  2  0  0  0  0
  3  5  1  0  0  0  0
  5  6  2  0  0  0  0
  6  7  1  0  0  0  0
  7  8  1  0  0  0  0
  7  9  2  0  0  0  0
  9 10  1  0  0  0  0
  9 11  1  0  0  0  0
 11 12  2  0  0  0  0
 12 13  1  0  0  0  0
 13 14  2  0  0  0  0
 14 15  1  0  0  0  0
 15 16  3  0  0  0  0
 14 17  1  0  0  0  0
 17 18  3  0  0  0  0
  1 19  1  0  0  0  0
 19 20  2  0  0  0  0
 20 21  1  0  0  0  0
 21 22  1  0  0  0  0
 22 23  2  0  0  0  0
 23 24  2  0  0  0  0
 21 25  2  0  0  0  0
 25 26  1  0  0  0  0
 26 27  2  0  0  0  0
 27 28  1  0  0  0  0
 28 29  1  0  0  0  0
 29 30  2  0  0  0  0
 25 31  1  0  0  0  0
 31 32  2  0  0  0  0
 32 33  1  0  0  0  0
 32 34  1  0  0  0  0
 34 35  1  0  0  0  0
 34 36  2  0  0  0  0
 36 37  1  0  0  0  0
 37 38  2  0  0  0  0
 38 39  1  0  0  0  0
 39 40  1  0  0  0  0
 40 41  1  0  0  0  0
 39 42  2  0  0  0  0
 42 43  1  0  0  0  0
 43 44  2  0  0  0  0
 42 45  1  0  0  0  0
 45 46  1  0  0  0  0
 36 47  1  0  0  0  0
 47 48  2  0  0  0  0
 48 49  1  0  0  0  0
 49 50  1  0  0  0  0
 50 51  2  0  0  0  0
 51 52  2  0  0  0  0
 49 53  2  0  0  0  0
 53 54  1  0  0  0  0
 54 55  2  0  0  0  0
 55 56  1  0  0  0  0
 56 57  1  0  0  0  0
 57 58  2  0  0  0  0
 53 59  1  0  0  0  0
 59 60  2  0  0  0  0
 60 61  1  0  0  0  0
 61 62  2  0  0  0  0
 61 63  1  0  0  0  0
 63 64  2  0  0  0  0
 64 65  1  0  0  0  0
 65 66  1  0  0  0  0
 65 67  2  0  0  0  0
 67 68  1  0  0  0  0
 67 69  1  0  0  0  0
 69 70  2  0  0  0  0
 70 71  1  0  0  0  0
 71 72  2  0  0  0  0
 72 73  1  0  0  0  0
 73 74  3  0  0  0  0
 72 75  1  0  0  0  0
 75 76  3  0  0  0  0
 13  2  1  0  0  0  0
 30 19  1  0  0  0  0
 44 31  1  0  0  0  0
 58 47  1  0  0  0  0
 71 60  1  0  0  0  0
 12  5  1  0  0  0  0
 24 20  1  0  0  0  0
 30 26  1  0  0  0  0
 44 37  1  0  0  0  0
 52 48  1  0  0  0  0
 58 54  1  0  0  0  0
 70 63  1  0  0  0  0
  1 77  1  0  0  0  0
  6 78  1  0  0  0  0
 11 79  1  0  0  0  0
 40 80  1  0  0  0  0
 40 81  1  0  0  0  0
 41 82  1  0  0  0  0
 41 83  1  0  0  0  0
 41 84  1  0  0  0  0
 45 85  1  0  0  0  0
 45 86  1  0  0  0  0
 46 87  1  0  0  0  0
 46 88  1  0  0  0  0
 46 89  1  0  0  0  0
 59 90  1  0  0  0  0
 64 91  1  0  0  0  0
 69 92  1  0  0  0  0
M  END
