
  xtb     02062205163D
 energy: -357.524899131842 gnorm: 0.000512607585 xtb: 6.4.1 (unknown)
206222  0     0  0            999 V2000
   -4.7877    7.8547    2.3240 C   0  0  0  0  0  0  0  0  0  0  0  0
   -6.0616    7.8327    2.8037 C   0  0  0  0  0  0  0  0  0  0  0  0
   -6.6541    9.0689    3.3771 C   0  0  0  0  0  0  0  0  0  0  0  0
   -6.2305   10.1965    3.2830 O   0  0  0  0  0  0  0  0  0  0  0  0
   -7.8475    8.6103    4.1294 C   0  0  0  0  0  0  0  0  0  0  0  0
   -8.6869    9.3421    4.9441 C   0  0  0  0  0  0  0  0  0  0  0  0
   -9.7379    8.6828    5.5718 C   0  0  0  0  0  0  0  0  0  0  0  0
  -10.8174    9.5364    6.6038 Cl  0  0  0  0  0  0  0  0  0  0  0  0
   -9.9140    7.3134    5.3600 C   0  0  0  0  0  0  0  0  0  0  0  0
  -10.9200    6.6839    5.9794 F   0  0  0  0  0  0  0  0  0  0  0  0
   -9.0836    6.5731    4.5330 C   0  0  0  0  0  0  0  0  0  0  0  0
   -8.0364    7.2335    3.9111 C   0  0  0  0  0  0  0  0  0  0  0  0
   -7.0225    6.7635    2.9710 C   0  0  0  0  0  0  0  0  0  0  0  0
   -7.1217    5.6357    2.1957 C   0  0  0  0  0  0  0  0  0  0  0  0
   -6.2893    5.4067    1.0848 C   0  0  0  0  0  0  0  0  0  0  0  0
   -5.6863    5.2377    0.1225 N   0  0  0  0  0  0  0  0  0  0  0  0
   -8.1186    4.6536    2.3563 C   0  0  0  0  0  0  0  0  0  0  0  0
   -8.8993    3.8202    2.4727 N   0  0  0  0  0  0  0  0  0  0  0  0
   -3.8859    6.7675    2.1040 C   0  0  0  0  0  0  0  0  0  0  0  0
   -2.8267    6.9221    1.1806 C   0  0  0  0  0  0  0  0  0  0  0  0
   -2.7320    8.0966    0.4847 O   0  0  0  0  0  0  0  0  0  0  0  0
   -2.8724    8.0122   -0.9335 C   0  0  0  0  0  0  0  0  0  0  0  0
   -4.3340    7.9101   -1.3466 C   0  0  0  0  0  0  0  0  0  0  0  0
   -1.8932    5.9037    1.0139 C   0  0  0  0  0  0  0  0  0  0  0  0
   -0.8594    6.0316    0.1080 O   0  0  0  0  0  0  0  0  0  0  0  0
    0.1068    7.0390    0.3886 C   0  0  0  0  0  0  0  0  0  0  0  0
    0.8653    6.7867    1.6842 C   0  0  0  0  0  0  0  0  0  0  0  0
   -1.9936    4.6942    1.7340 C   0  0  0  0  0  0  0  0  0  0  0  0
   -3.0684    4.5501    2.6262 C   0  0  0  0  0  0  0  0  0  0  0  0
   -3.9723    5.5598    2.8123 C   0  0  0  0  0  0  0  0  0  0  0  0
   -1.0604    3.6362    1.4928 C   0  0  0  0  0  0  0  0  0  0  0  0
   -0.8607    2.4534    2.2095 C   0  0  0  0  0  0  0  0  0  0  0  0
   -1.2294    2.2269    3.5188 N   0  0  0  0  0  0  0  0  0  0  0  0
   -1.3965    0.8836    3.9393 C   0  0  0  0  0  0  0  0  0  0  0  0
   -0.5020    0.3012    4.8353 C   0  0  0  0  0  0  0  0  0  0  0  0
   -0.6558   -1.0183    5.1955 C   0  0  0  0  0  0  0  0  0  0  0  0
   -1.7127   -1.7738    4.6853 C   0  0  0  0  0  0  0  0  0  0  0  0
   -1.7815   -3.4616    5.1864 S   0  0  0  0  0  0  0  0  0  0  0  0
   -3.2375   -4.1246    4.3341 C   0  0  0  0  0  0  0  0  0  0  0  0
   -2.6300   -1.1760    3.8322 C   0  0  0  0  0  0  0  0  0  0  0  0
   -2.4644    0.1433    3.4555 C   0  0  0  0  0  0  0  0  0  0  0  0
   -1.1249    3.2139    4.5051 C   0  0  0  0  0  0  0  0  0  0  0  0
   -0.2554    4.2975    4.3799 C   0  0  0  0  0  0  0  0  0  0  0  0
   -0.1857    5.2518    5.3681 C   0  0  0  0  0  0  0  0  0  0  0  0
   -0.9742    5.1494    6.5130 C   0  0  0  0  0  0  0  0  0  0  0  0
   -0.8018    6.4432    7.7000 S   0  0  0  0  0  0  0  0  0  0  0  0
   -1.8781    5.9320    9.0689 C   0  0  0  0  0  0  0  0  0  0  0  0
   -1.8260    4.0624    6.6532 C   0  0  0  0  0  0  0  0  0  0  0  0
   -1.8993    3.1075    5.6584 C   0  0  0  0  0  0  0  0  0  0  0  0
   -0.1093    1.5273    1.4473 C   0  0  0  0  0  0  0  0  0  0  0  0
    0.3109   -0.1375    1.6367 S   0  0  0  0  0  0  0  0  0  0  0  0
    1.1541   -0.1264    0.0842 C   0  0  0  0  0  0  0  0  0  0  0  0
    1.2176    1.1471   -0.4615 C   0  0  0  0  0  0  0  0  0  0  0  0
    1.9373    1.5170   -1.5917 N   0  0  0  0  0  0  0  0  0  0  0  0
    1.3769    2.5833   -2.3437 C   0  0  0  0  0  0  0  0  0  0  0  0
    0.2287    2.3593   -3.0959 C   0  0  0  0  0  0  0  0  0  0  0  0
   -0.4073    3.4107   -3.7187 C   0  0  0  0  0  0  0  0  0  0  0  0
    0.1034    4.7032   -3.6157 C   0  0  0  0  0  0  0  0  0  0  0  0
   -0.8369    5.9779   -4.3893 S   0  0  0  0  0  0  0  0  0  0  0  0
   -0.0341    7.5101   -3.8383 C   0  0  0  0  0  0  0  0  0  0  0  0
    1.2946    4.9149   -2.9339 C   0  0  0  0  0  0  0  0  0  0  0  0
    1.9231    3.8613   -2.2987 C   0  0  0  0  0  0  0  0  0  0  0  0
    3.3167    1.3165   -1.6696 C   0  0  0  0  0  0  0  0  0  0  0  0
    3.9576    1.5369   -2.8891 C   0  0  0  0  0  0  0  0  0  0  0  0
    5.3262    1.4225   -2.9973 C   0  0  0  0  0  0  0  0  0  0  0  0
    6.0830    1.0749   -1.8865 C   0  0  0  0  0  0  0  0  0  0  0  0
    7.8487    0.9569   -1.9485 S   0  0  0  0  0  0  0  0  0  0  0  0
    8.2655    2.3223   -3.0800 C   0  0  0  0  0  0  0  0  0  0  0  0
    5.4509    0.8121   -0.6790 C   0  0  0  0  0  0  0  0  0  0  0  0
    4.0819    0.9373   -0.5659 C   0  0  0  0  0  0  0  0  0  0  0  0
    0.4109    2.0488    0.2741 C   0  0  0  0  0  0  0  0  0  0  0  0
   -0.0921    3.6824    0.0265 S   0  0  0  0  0  0  0  0  0  0  0  0
    1.4963   -1.3949   -0.4788 C   0  0  0  0  0  0  0  0  0  0  0  0
    0.6355   -2.4886   -0.4891 C   0  0  0  0  0  0  0  0  0  0  0  0
   -0.6920   -2.5237   -0.0882 N   0  0  0  0  0  0  0  0  0  0  0  0
   -1.0620   -3.6970    0.6091 C   0  0  0  0  0  0  0  0  0  0  0  0
   -2.0941   -4.5080    0.1506 C   0  0  0  0  0  0  0  0  0  0  0  0
   -2.3701   -5.6992    0.7897 C   0  0  0  0  0  0  0  0  0  0  0  0
   -1.6127   -6.0904    1.8867 C   0  0  0  0  0  0  0  0  0  0  0  0
   -1.8913   -7.6363    2.6994 S   0  0  0  0  0  0  0  0  0  0  0  0
   -2.2143   -8.7073    1.2648 C   0  0  0  0  0  0  0  0  0  0  0  0
   -0.6122   -5.2588    2.3759 C   0  0  0  0  0  0  0  0  0  0  0  0
   -0.3383   -4.0672    1.7395 C   0  0  0  0  0  0  0  0  0  0  0  0
   -1.6020   -1.4907   -0.2766 C   0  0  0  0  0  0  0  0  0  0  0  0
   -2.7556   -1.4244    0.5083 C   0  0  0  0  0  0  0  0  0  0  0  0
   -3.5852   -0.3293    0.4451 C   0  0  0  0  0  0  0  0  0  0  0  0
   -3.2722    0.7504   -0.3781 C   0  0  0  0  0  0  0  0  0  0  0  0
   -4.2549    2.2077   -0.1962 S   0  0  0  0  0  0  0  0  0  0  0  0
   -3.6058    3.3436   -1.4483 C   0  0  0  0  0  0  0  0  0  0  0  0
   -2.2024    0.6326   -1.2529 C   0  0  0  0  0  0  0  0  0  0  0  0
   -1.3933   -0.4867   -1.2219 C   0  0  0  0  0  0  0  0  0  0  0  0
    1.2728   -3.6418   -0.9990 C   0  0  0  0  0  0  0  0  0  0  0  0
    0.7757   -5.2875   -1.1541 S   0  0  0  0  0  0  0  0  0  0  0  0
    2.3421   -5.6999   -1.8539 C   0  0  0  0  0  0  0  0  0  0  0  0
    3.2322   -4.5866   -1.8550 C   0  0  0  0  0  0  0  0  0  0  0  0
    4.5540   -4.6470   -2.2006 N   0  0  0  0  0  0  0  0  0  0  0  0
    5.3384   -5.7718   -1.8780 C   0  0  0  0  0  0  0  0  0  0  0  0
    6.3257   -6.2226   -2.7550 C   0  0  0  0  0  0  0  0  0  0  0  0
    7.0802   -7.3280   -2.4330 C   0  0  0  0  0  0  0  0  0  0  0  0
    6.8674   -8.0105   -1.2361 C   0  0  0  0  0  0  0  0  0  0  0  0
    7.8823   -9.4219   -0.9499 S   0  0  0  0  0  0  0  0  0  0  0  0
    7.3118  -10.0626    0.6504 C   0  0  0  0  0  0  0  0  0  0  0  0
    5.8972   -7.5511   -0.3529 C   0  0  0  0  0  0  0  0  0  0  0  0
    5.1459   -6.4376   -0.6702 C   0  0  0  0  0  0  0  0  0  0  0  0
    5.1688   -3.5600   -2.8426 C   0  0  0  0  0  0  0  0  0  0  0  0
    4.4901   -2.8414   -3.8265 C   0  0  0  0  0  0  0  0  0  0  0  0
    5.1410   -1.8565   -4.5353 C   0  0  0  0  0  0  0  0  0  0  0  0
    6.4820   -1.5774   -4.2846 C   0  0  0  0  0  0  0  0  0  0  0  0
    7.2669   -0.3920   -5.3269 S   0  0  0  0  0  0  0  0  0  0  0  0
    9.0356   -0.7070   -5.0604 C   0  0  0  0  0  0  0  0  0  0  0  0
    7.1415   -2.2437   -3.2601 C   0  0  0  0  0  0  0  0  0  0  0  0
    6.4863   -3.2229   -2.5439 C   0  0  0  0  0  0  0  0  0  0  0  0
    2.5821   -3.4254   -1.4107 C   0  0  0  0  0  0  0  0  0  0  0  0
    3.0571   -1.7658   -1.2065 S   0  0  0  0  0  0  0  0  0  0  0  0
    2.6331   -6.9089   -2.4680 C   0  0  0  0  0  0  0  0  0  0  0  0
    1.8862   -8.0698   -2.5745 C   0  0  0  0  0  0  0  0  0  0  0  0
    0.6403   -8.3707   -1.8801 C   0  0  0  0  0  0  0  0  0  0  0  0
   -0.0143   -7.6494   -1.1428 O   0  0  0  0  0  0  0  0  0  0  0  0
    0.3172   -9.7773   -2.2146 C   0  0  0  0  0  0  0  0  0  0  0  0
   -0.7603  -10.5357   -1.8081 C   0  0  0  0  0  0  0  0  0  0  0  0
   -0.8466  -11.8510   -2.2507 C   0  0  0  0  0  0  0  0  0  0  0  0
   -2.1680  -12.8472   -1.7746 Cl  0  0  0  0  0  0  0  0  0  0  0  0
    0.1474  -12.3586   -3.0860 C   0  0  0  0  0  0  0  0  0  0  0  0
    0.0605  -13.6274   -3.5067 F   0  0  0  0  0  0  0  0  0  0  0  0
    1.2302  -11.5986   -3.5049 C   0  0  0  0  0  0  0  0  0  0  0  0
    1.3143  -10.2895   -3.0619 C   0  0  0  0  0  0  0  0  0  0  0  0
    2.2901   -9.2315   -3.3270 C   0  0  0  0  0  0  0  0  0  0  0  0
    3.3587   -9.3468   -4.1850 C   0  0  0  0  0  0  0  0  0  0  0  0
    3.7095  -10.5386   -4.8502 C   0  0  0  0  0  0  0  0  0  0  0  0
    4.0550  -11.4785   -5.4124 N   0  0  0  0  0  0  0  0  0  0  0  0
    4.2283   -8.3048   -4.5573 C   0  0  0  0  0  0  0  0  0  0  0  0
    4.9631   -7.5073   -4.9399 N   0  0  0  0  0  0  0  0  0  0  0  0
   -4.3776    8.8440    2.1480 H   0  0  0  0  0  0  0  0  0  0  0  0
   -8.5300   10.3991    5.0888 H   0  0  0  0  0  0  0  0  0  0  0  0
   -9.2700    5.5186    4.4077 H   0  0  0  0  0  0  0  0  0  0  0  0
   -2.4322    8.9403   -1.3095 H   0  0  0  0  0  0  0  0  0  0  0  0
   -2.3115    7.1590   -1.3281 H   0  0  0  0  0  0  0  0  0  0  0  0
   -4.7746    6.9924   -0.9623 H   0  0  0  0  0  0  0  0  0  0  0  0
   -4.4038    7.9074   -2.4309 H   0  0  0  0  0  0  0  0  0  0  0  0
   -4.8953    8.7560   -0.9564 H   0  0  0  0  0  0  0  0  0  0  0  0
   -0.3736    8.0230    0.4234 H   0  0  0  0  0  0  0  0  0  0  0  0
    0.7891    6.9967   -0.4642 H   0  0  0  0  0  0  0  0  0  0  0  0
    0.1808    6.7942    2.5304 H   0  0  0  0  0  0  0  0  0  0  0  0
    1.6081    7.5666    1.8272 H   0  0  0  0  0  0  0  0  0  0  0  0
    1.3691    5.8238    1.6424 H   0  0  0  0  0  0  0  0  0  0  0  0
   -3.1988    3.6227    3.1556 H   0  0  0  0  0  0  0  0  0  0  0  0
   -4.7569    5.4374    3.5436 H   0  0  0  0  0  0  0  0  0  0  0  0
    0.3156    0.8861    5.2299 H   0  0  0  0  0  0  0  0  0  0  0  0
    0.0429   -1.4865    5.8714 H   0  0  0  0  0  0  0  0  0  0  0  0
   -3.2620   -5.1813    4.5826 H   0  0  0  0  0  0  0  0  0  0  0  0
   -4.1369   -3.6360    4.6977 H   0  0  0  0  0  0  0  0  0  0  0  0
   -3.1230   -4.0082    3.2606 H   0  0  0  0  0  0  0  0  0  0  0  0
   -3.4810   -1.7216    3.4602 H   0  0  0  0  0  0  0  0  0  0  0  0
   -3.1646    0.6102    2.7806 H   0  0  0  0  0  0  0  0  0  0  0  0
    0.3811    4.3790    3.5133 H   0  0  0  0  0  0  0  0  0  0  0  0
    0.4928    6.0859    5.2731 H   0  0  0  0  0  0  0  0  0  0  0  0
   -1.5530    4.9710    9.4568 H   0  0  0  0  0  0  0  0  0  0  0  0
   -1.7615    6.6958    9.8314 H   0  0  0  0  0  0  0  0  0  0  0  0
   -2.9121    5.8973    8.7383 H   0  0  0  0  0  0  0  0  0  0  0  0
   -2.4437    3.9467    7.5289 H   0  0  0  0  0  0  0  0  0  0  0  0
   -2.5666    2.2662    5.7752 H   0  0  0  0  0  0  0  0  0  0  0  0
   -0.1563    1.3557   -3.1833 H   0  0  0  0  0  0  0  0  0  0  0  0
   -1.3103    3.2485   -4.2876 H   0  0  0  0  0  0  0  0  0  0  0  0
    0.9617    7.5892   -4.2654 H   0  0  0  0  0  0  0  0  0  0  0  0
   -0.6577    8.3164   -4.2121 H   0  0  0  0  0  0  0  0  0  0  0  0
   -0.0064    7.5368   -2.7531 H   0  0  0  0  0  0  0  0  0  0  0  0
    1.7354    5.8968   -2.8752 H   0  0  0  0  0  0  0  0  0  0  0  0
    2.8345    4.0318   -1.7444 H   0  0  0  0  0  0  0  0  0  0  0  0
    3.3732    1.8110   -3.7546 H   0  0  0  0  0  0  0  0  0  0  0  0
    5.7955    1.6001   -3.9512 H   0  0  0  0  0  0  0  0  0  0  0  0
    7.7051    3.2047   -2.7883 H   0  0  0  0  0  0  0  0  0  0  0  0
    8.0473    2.0461   -4.1073 H   0  0  0  0  0  0  0  0  0  0  0  0
    9.3299    2.4995   -2.9615 H   0  0  0  0  0  0  0  0  0  0  0  0
    6.0423    0.5312    0.1789 H   0  0  0  0  0  0  0  0  0  0  0  0
    3.6090    0.7709    0.3900 H   0  0  0  0  0  0  0  0  0  0  0  0
   -2.6640   -4.2075   -0.7157 H   0  0  0  0  0  0  0  0  0  0  0  0
   -3.1652   -6.3274    0.4213 H   0  0  0  0  0  0  0  0  0  0  0  0
   -1.5654   -8.3829    0.4556 H   0  0  0  0  0  0  0  0  0  0  0  0
   -3.2618   -8.6560    0.9800 H   0  0  0  0  0  0  0  0  0  0  0  0
   -1.9673   -9.7177    1.5764 H   0  0  0  0  0  0  0  0  0  0  0  0
   -0.0523   -5.5577    3.2480 H   0  0  0  0  0  0  0  0  0  0  0  0
    0.4457   -3.4183    2.1023 H   0  0  0  0  0  0  0  0  0  0  0  0
   -2.9803   -2.2315    1.1864 H   0  0  0  0  0  0  0  0  0  0  0  0
   -4.4763   -0.2840    1.0526 H   0  0  0  0  0  0  0  0  0  0  0  0
   -3.7415    2.9192   -2.4387 H   0  0  0  0  0  0  0  0  0  0  0  0
   -4.2048    4.2417   -1.3404 H   0  0  0  0  0  0  0  0  0  0  0  0
   -2.5604    3.5678   -1.2531 H   0  0  0  0  0  0  0  0  0  0  0  0
   -1.9880    1.4188   -1.9570 H   0  0  0  0  0  0  0  0  0  0  0  0
   -0.5778   -0.5783   -1.9234 H   0  0  0  0  0  0  0  0  0  0  0  0
    6.4839   -5.7159   -3.6931 H   0  0  0  0  0  0  0  0  0  0  0  0
    7.8339   -7.6870   -3.1157 H   0  0  0  0  0  0  0  0  0  0  0  0
    7.4856   -9.3276    1.4309 H   0  0  0  0  0  0  0  0  0  0  0  0
    6.2626  -10.3366    0.5895 H   0  0  0  0  0  0  0  0  0  0  0  0
    7.9123  -10.9472    0.8387 H   0  0  0  0  0  0  0  0  0  0  0  0
    5.7211   -8.0441    0.5893 H   0  0  0  0  0  0  0  0  0  0  0  0
    4.3986   -6.0831    0.0244 H   0  0  0  0  0  0  0  0  0  0  0  0
    3.4657   -3.0884   -4.0611 H   0  0  0  0  0  0  0  0  0  0  0  0
    4.6266   -1.3172   -5.3157 H   0  0  0  0  0  0  0  0  0  0  0  0
    9.5571   -0.1208   -5.8109 H   0  0  0  0  0  0  0  0  0  0  0  0
    9.2378   -1.7634   -5.2074 H   0  0  0  0  0  0  0  0  0  0  0  0
    9.3298   -0.3829   -4.0661 H   0  0  0  0  0  0  0  0  0  0  0  0
    8.1612   -2.0064   -3.0068 H   0  0  0  0  0  0  0  0  0  0  0  0
    7.0057   -3.7437   -1.7538 H   0  0  0  0  0  0  0  0  0  0  0  0
    3.5980   -6.9349   -2.9573 H   0  0  0  0  0  0  0  0  0  0  0  0
   -1.5213  -10.1225   -1.1662 H   0  0  0  0  0  0  0  0  0  0  0  0
    1.9623  -12.0507   -4.1537 H   0  0  0  0  0  0  0  0  0  0  0  0
  1  2  2  0  0  0  0
  2  3  1  0  0  0  0
  3  4  2  0  0  0  0
  3  5  1  0  0  0  0
  5  6  2  0  0  0  0
  6  7  1  0  0  0  0
  7  8  1  0  0  0  0
  7  9  2  0  0  0  0
  9 10  1  0  0  0  0
  9 11  1  0  0  0  0
 11 12  2  0  0  0  0
 12 13  1  0  0  0  0
 13 14  2  0  0  0  0
 14 15  1  0  0  0  0
 15 16  3  0  0  0  0
 14 17  1  0  0  0  0
 17 18  3  0  0  0  0
  1 19  1  0  0  0  0
 19 20  2  0  0  0  0
 20 21  1  0  0  0  0
 21 22  1  0  0  0  0
 22 23  1  0  0  0  0
 20 24  1  0  0  0  0
 24 25  1  0  0  0  0
 25 26  1  0  0  0  0
 26 27  1  0  0  0  0
 24 28  2  0  0  0  0
 28 29  1  0  0  0  0
 29 30  2  0  0  0  0
 28 31  1  0  0  0  0
 31 32  2  0  0  0  0
 32 33  1  0  0  0  0
 33 34  1  0  0  0  0
 34 35  2  0  0  0  0
 35 36  1  0  0  0  0
 36 37  2  0  0  0  0
 37 38  1  0  0  0  0
 38 39  1  0  0  0  0
 37 40  1  0  0  0  0
 40 41  2  0  0  0  0
 33 42  1  0  0  0  0
 42 43  2  0  0  0  0
 43 44  1  0  0  0  0
 44 45  2  0  0  0  0
 45 46  1  0  0  0  0
 46 47  1  0  0  0  0
 45 48  1  0  0  0  0
 48 49  2  0  0  0  0
 32 50  1  0  0  0  0
 50 51  1  0  0  0  0
 51 52  1  0  0  0  0
 52 53  2  0  0  0  0
 53 54  1  0  0  0  0
 54 55  1  0  0  0  0
 55 56  2  0  0  0  0
 56 57  1  0  0  0  0
 57 58  2  0  0  0  0
 58 59  1  0  0  0  0
 59 60  1  0  0  0  0
 58 61  1  0  0  0  0
 61 62  2  0  0  0  0
 54 63  1  0  0  0  0
 63 64  2  0  0  0  0
 64 65  1  0  0  0  0
 65 66  2  0  0  0  0
 66 67  1  0  0  0  0
 67 68  1  0  0  0  0
 66 69  1  0  0  0  0
 69 70  2  0  0  0  0
 53 71  1  0  0  0  0
 71 72  1  0  0  0  0
 52 73  1  0  0  0  0
 73 74  2  0  0  0  0
 74 75  1  0  0  0  0
 75 76  1  0  0  0  0
 76 77  2  0  0  0  0
 77 78  1  0  0  0  0
 78 79  2  0  0  0  0
 79 80  1  0  0  0  0
 80 81  1  0  0  0  0
 79 82  1  0  0  0  0
 82 83  2  0  0  0  0
 75 84  1  0  0  0  0
 84 85  2  0  0  0  0
 85 86  1  0  0  0  0
 86 87  2  0  0  0  0
 87 88  1  0  0  0  0
 88 89  1  0  0  0  0
 87 90  1  0  0  0  0
 90 91  2  0  0  0  0
 74 92  1  0  0  0  0
 92 93  1  0  0  0  0
 93 94  1  0  0  0  0
 94 95  2  0  0  0  0
 95 96  1  0  0  0  0
 96 97  1  0  0  0  0
 97 98  2  0  0  0  0
 98 99  1  0  0  0  0
 99100  2  0  0  0  0
100101  1  0  0  0  0
101102  1  0  0  0  0
100103  1  0  0  0  0
103104  2  0  0  0  0
 96105  1  0  0  0  0
105106  2  0  0  0  0
106107  1  0  0  0  0
107108  2  0  0  0  0
108109  1  0  0  0  0
109110  1  0  0  0  0
108111  1  0  0  0  0
111112  2  0  0  0  0
 95113  1  0  0  0  0
113114  1  0  0  0  0
 94115  1  0  0  0  0
115116  2  0  0  0  0
116117  1  0  0  0  0
117118  2  0  0  0  0
117119  1  0  0  0  0
119120  2  0  0  0  0
120121  1  0  0  0  0
121122  1  0  0  0  0
121123  2  0  0  0  0
123124  1  0  0  0  0
123125  1  0  0  0  0
125126  2  0  0  0  0
126127  1  0  0  0  0
127128  2  0  0  0  0
128129  1  0  0  0  0
129130  3  0  0  0  0
128131  1  0  0  0  0
131132  3  0  0  0  0
 13  2  1  0  0  0  0
 30 19  1  0  0  0  0
 72 31  1  0  0  0  0
114 73  1  0  0  0  0
127116  1  0  0  0  0
 12  5  1  0  0  0  0
 41 34  1  0  0  0  0
 49 42  1  0  0  0  0
 71 50  2  0  0  0  0
 83 76  1  0  0  0  0
 91 84  1  0  0  0  0
113 92  2  0  0  0  0
126119  1  0  0  0  0
 62 55  1  0  0  0  0
 70 63  1  0  0  0  0
104 97  1  0  0  0  0
112105  1  0  0  0  0
  1133  1  0  0  0  0
  6134  1  0  0  0  0
 11135  1  0  0  0  0
 22136  1  0  0  0  0
 22137  1  0  0  0  0
 23138  1  0  0  0  0
 23139  1  0  0  0  0
 23140  1  0  0  0  0
 26141  1  0  0  0  0
 26142  1  0  0  0  0
 27143  1  0  0  0  0
 27144  1  0  0  0  0
 27145  1  0  0  0  0
 29146  1  0  0  0  0
 30147  1  0  0  0  0
 35148  1  0  0  0  0
 36149  1  0  0  0  0
 39150  1  0  0  0  0
 39151  1  0  0  0  0
 39152  1  0  0  0  0
 40153  1  0  0  0  0
 41154  1  0  0  0  0
 43155  1  0  0  0  0
 44156  1  0  0  0  0
 47157  1  0  0  0  0
 47158  1  0  0  0  0
 47159  1  0  0  0  0
 48160  1  0  0  0  0
 49161  1  0  0  0  0
 56162  1  0  0  0  0
 57163  1  0  0  0  0
 60164  1  0  0  0  0
 60165  1  0  0  0  0
 60166  1  0  0  0  0
 61167  1  0  0  0  0
 62168  1  0  0  0  0
 64169  1  0  0  0  0
 65170  1  0  0  0  0
 68171  1  0  0  0  0
 68172  1  0  0  0  0
 68173  1  0  0  0  0
 69174  1  0  0  0  0
 70175  1  0  0  0  0
 77176  1  0  0  0  0
 78177  1  0  0  0  0
 81178  1  0  0  0  0
 81179  1  0  0  0  0
 81180  1  0  0  0  0
 82181  1  0  0  0  0
 83182  1  0  0  0  0
 85183  1  0  0  0  0
 86184  1  0  0  0  0
 89185  1  0  0  0  0
 89186  1  0  0  0  0
 89187  1  0  0  0  0
 90188  1  0  0  0  0
 91189  1  0  0  0  0
 98190  1  0  0  0  0
 99191  1  0  0  0  0
102192  1  0  0  0  0
102193  1  0  0  0  0
102194  1  0  0  0  0
103195  1  0  0  0  0
104196  1  0  0  0  0
106197  1  0  0  0  0
107198  1  0  0  0  0
110199  1  0  0  0  0
110200  1  0  0  0  0
110201  1  0  0  0  0
111202  1  0  0  0  0
112203  1  0  0  0  0
115204  1  0  0  0  0
120205  1  0  0  0  0
125206  1  0  0  0  0
M  END
