153

C         -7.46540        2.19960       -8.59670
C         -7.88510        2.00490       -9.87400
C         -7.15070        1.26110      -10.93370
O         -6.19880        0.52490      -10.82080
C         -7.78980        1.67220      -12.20500
C         -7.42820        1.31430      -13.48840
C         -8.16940        1.82220      -14.54810
Cl        -7.77450        1.41740      -16.17140
C         -9.24700        2.67340      -14.28440
F         -9.95150        3.16290      -15.31030
C         -9.61640        3.03620      -12.99940
C         -8.87450        2.52680      -11.94360
C         -8.99530        2.70700      -10.50310
C        -10.01990        3.34190       -9.85500
C        -10.16870        3.40310       -8.45200
N        -10.36520        3.47310       -7.32320
C        -11.09080        3.98380      -10.51350
N        -11.97970        4.52550      -10.99590
C         -6.42910        1.50120       -7.88450
C         -5.68780        2.21680       -6.92450
C         -4.70400        1.56470       -6.22590
C         -3.80110        2.08410       -5.16210
O         -3.74880        3.20880       -4.72280
C         -3.02340        0.89500       -4.72830
C         -3.42060       -0.22550       -5.48560
C         -4.45610        0.18870       -6.41870
C         -5.20810       -0.52740       -7.33120
C         -6.18320        0.13400       -8.05960
C         -2.86790       -1.46530       -5.22820
C         -1.99330       -1.59040       -4.16130
C         -1.64900       -0.49570       -3.36380
C         -2.12680        0.77940       -3.69270
C         -0.88560       -0.69810       -2.14710
C         -1.13900       -1.64050       -1.16680
N         -2.22140       -2.50890       -1.15670
C         -2.07610       -3.79260       -0.62040
C         -0.87380       -4.48360       -0.74330
C         -0.72140       -5.74240       -0.19410
C         -1.77760       -6.33820        0.47950
S         -1.71030       -7.93960        1.21940
C          0.00180       -8.47770        0.94750
C         -2.98900       -5.65620        0.59130
C         -3.13760       -4.39900        0.05360
C         -3.43920       -2.10360       -1.72370
C         -3.90000       -0.80150       -1.54920
C         -5.01170       -0.34510       -2.22810
C         -5.69570       -1.19350       -3.08820
S         -7.05000       -0.69380       -4.10530
C         -7.28240        1.06100       -3.71080
C         -5.29270       -2.52310       -3.19510
C         -4.17860       -2.97510       -2.52400
C         -0.19310       -1.53680       -0.11400
S          0.03950       -2.36200        1.38630
C          1.42870       -1.35140        1.75100
C          1.65480       -0.38540        0.78470
N          2.59290        0.63300        0.84400
C          2.98580        1.19030        2.06840
C          4.32170        1.52940        2.29250
C          4.73090        1.95700        3.53460
C          3.82070        2.05380        4.58560
S          4.48130        2.50130        6.16010
C          3.07790        2.29040        7.29180
C          2.47790        1.79330        4.34710
C          2.06580        1.37510        3.09760
C          3.18080        1.07850       -0.34960
C          3.42790        2.43340       -0.54880
C          3.98980        2.88170       -1.72760
C          4.30920        1.97920       -2.73380
S          5.01450        2.43010       -4.28700
C          5.18110        4.23470       -4.18850
C          4.07190        0.62070       -2.53470
C          3.51970        0.17330       -1.35590
C          0.72860       -0.51810       -0.28380
S          0.44570        0.36550       -1.74280
C          2.14430       -1.51600        2.99820
C          3.53920       -1.34660        3.02800
C          4.16430       -1.26990        4.24730
C          5.58530       -0.95180        4.54700
O          6.49570       -0.82000        3.76460
C          5.62630       -0.82970        6.02800
C          4.35420       -1.13100        6.55870
C          3.44620       -1.40020        5.45260
C          2.09570       -1.69270        5.42020
C          1.45690       -1.74660        4.19010
C          4.14180       -1.06120        7.92260
C          5.19710       -0.70280        8.74770
C          6.46280       -0.41040        8.23100
C          6.66630       -0.45320        6.83970
C          7.56700       -0.00980        9.06880
C          7.88510       -0.47760       10.30010
C          7.34660       -1.72250       10.93280
O          6.38300       -2.36710       10.59220
C          8.28630       -2.02900       12.02530
C          8.29700       -3.12870       12.88290
O          7.35770       -4.07840       12.76720
C          9.30930       -3.18800       13.84620
C         10.26790       -2.19640       13.93700
C         10.26220       -1.10050       13.08370
C          9.26260       -1.02120       12.12890
C          8.99530       -0.00800       11.11440
C          9.61230        1.20780       11.00930
C          9.25370        2.21430       10.08500
N          9.00230        3.08970        9.38670
C         10.66370        1.64240       11.84460
N         11.52410        2.05130       12.48470
H         -7.92390        3.00860       -8.03890
H         -6.59060        0.65680      -13.65910
H        -10.45450        3.70030      -12.86380
H         -5.87720        3.26670       -6.75390
H         -5.05260       -1.58580       -7.46920
H         -6.79530       -0.42600       -8.74680
H         -3.13340       -2.32780       -5.81950
H         -1.57530       -2.55790       -3.92590
H         -1.84450        1.64020       -3.10500
H         -0.05040       -4.03610       -1.28080
H          0.22460       -6.24630       -0.30840
H          0.19730       -8.57810       -0.11620
H          0.08200       -9.44760        1.42840
H          0.68890       -7.77710        1.41300
H         -3.80730       -6.12520        1.11560
H         -4.07430       -3.87190        0.15460
H         -3.36500       -0.12990       -0.89420
H         -5.32450        0.67650       -2.08590
H         -8.08990        1.39880       -4.35320
H         -7.56990        1.17160       -2.66930
H         -6.37730        1.61880       -3.93350
H         -5.84990       -3.18830       -3.83640
H         -3.85660       -3.99940       -2.63780
H          5.04410        1.41850        1.49840
H          5.76900        2.18890        3.71420
H          2.67590        1.28670        7.19200
H          2.32060        3.04400        7.09620
H          3.48550        2.42870        8.28830
H          1.74090        1.90820        5.12520
H          1.02030        1.16760        2.92440
H          3.17280        3.13980        0.22720
H          4.16330        3.93830       -1.84990
H          5.61900        4.53860       -5.13420
H          4.20310        4.69240       -4.07170
H          5.84540        4.50310       -3.37220
H          4.33320       -0.07740       -3.31500
H          3.35270       -0.88310       -1.20510
H          4.10750       -1.26310        2.11500
H          1.53350       -1.83960        6.33030
H          0.39140       -1.92270        4.14800
H          3.17200       -1.27330        8.34740
H          5.02680       -0.61140        9.80780
H          7.62900       -0.20880        6.41640
H          8.23520        0.71240        8.61280
H          7.48900       -4.77570       13.42280
H          9.33750       -4.02800       14.52750
H         11.03870       -2.27630       14.68820
H         11.02490       -0.34530       13.16960
