
  xtb     02102219563D
 energy: -277.501192428157 gnorm: 0.000987908963 xtb: 6.4.1 (unknown)
158171  0     0  0            999 V2000
    0.5086   -7.7206    2.4632 C   0  0  0  0  0  0  0  0  0  0  0  0
    1.7850   -8.1006    2.8157 C   0  0  0  0  0  0  0  0  0  0  0  0
    2.9537   -7.2232    2.8645 C   0  0  0  0  0  0  0  0  0  0  0  0
    3.0219   -6.0405    2.5779 O   0  0  0  0  0  0  0  0  0  0  0  0
    4.0775   -8.0654    3.3265 C   0  0  0  0  0  0  0  0  0  0  0  0
    5.3889   -7.6988    3.5461 C   0  0  0  0  0  0  0  0  0  0  0  0
    6.2794   -8.6723    3.9833 C   0  0  0  0  0  0  0  0  0  0  0  0
    7.9295   -8.2838    4.2786 Cl  0  0  0  0  0  0  0  0  0  0  0  0
    5.8230   -9.9761    4.1820 C   0  0  0  0  0  0  0  0  0  0  0  0
    6.6858  -10.9097    4.6027 F   0  0  0  0  0  0  0  0  0  0  0  0
    4.5057  -10.3504    3.9612 C   0  0  0  0  0  0  0  0  0  0  0  0
    3.6192   -9.3782    3.5268 C   0  0  0  0  0  0  0  0  0  0  0  0
    2.1917   -9.4324    3.2084 C   0  0  0  0  0  0  0  0  0  0  0  0
    1.4152  -10.5621    3.2800 C   0  0  0  0  0  0  0  0  0  0  0  0
    0.0394  -10.6409    2.9825 C   0  0  0  0  0  0  0  0  0  0  0  0
   -1.0761  -10.7984    2.7556 N   0  0  0  0  0  0  0  0  0  0  0  0
    1.9004  -11.8293    3.6648 C   0  0  0  0  0  0  0  0  0  0  0  0
    2.2264  -12.8858    3.9746 N   0  0  0  0  0  0  0  0  0  0  0  0
    0.0069   -6.4667    2.1089 C   0  0  0  0  0  0  0  0  0  0  0  0
   -1.3471   -6.2390    1.8462 C   0  0  0  0  0  0  0  0  0  0  0  0
   -1.6731   -4.9192    1.5834 C   0  0  0  0  0  0  0  0  0  0  0  0
   -3.0526   -4.4684    1.3763 C   0  0  0  0  0  0  0  0  0  0  0  0
   -3.8672   -5.1125    0.4496 C   0  0  0  0  0  0  0  0  0  0  0  0
   -5.1889   -4.7431    0.3061 C   0  0  0  0  0  0  0  0  0  0  0  0
   -5.7398   -3.7380    1.0928 C   0  0  0  0  0  0  0  0  0  0  0  0
   -7.2017   -3.4183    0.9914 C   0  0  0  0  0  0  0  0  0  0  0  0
   -8.0379   -4.4891    1.6948 C   0  0  0  0  0  0  0  0  0  0  0  0
   -4.9210   -3.0907    2.0085 C   0  0  0  0  0  0  0  0  0  0  0  0
   -3.5932   -3.4447    2.1487 C   0  0  0  0  0  0  0  0  0  0  0  0
   -0.5458   -4.0863    1.6242 C   0  0  0  0  0  0  0  0  0  0  0  0
    0.9022   -4.9757    1.9795 S   0  0  0  0  0  0  0  0  0  0  0  0
   -0.4732   -2.7107    1.2977 C   0  0  0  0  0  0  0  0  0  0  0  0
    0.5496   -1.8163    1.6235 C   0  0  0  0  0  0  0  0  0  0  0  0
    1.5368   -2.0276    2.5620 N   0  0  0  0  0  0  0  0  0  0  0  0
    2.8116   -1.4890    2.3267 C   0  0  0  0  0  0  0  0  0  0  0  0
    3.3675   -1.5401    1.0481 C   0  0  0  0  0  0  0  0  0  0  0  0
    4.6056   -0.9895    0.8090 C   0  0  0  0  0  0  0  0  0  0  0  0
    5.3221   -0.3844    1.8409 C   0  0  0  0  0  0  0  0  0  0  0  0
    6.8947    0.2849    1.4114 S   0  0  0  0  0  0  0  0  0  0  0  0
    7.5089    1.0004    2.9627 C   0  0  0  0  0  0  0  0  0  0  0  0
    4.7776   -0.3462    3.1183 C   0  0  0  0  0  0  0  0  0  0  0  0
    3.5309   -0.8906    3.3559 C   0  0  0  0  0  0  0  0  0  0  0  0
    1.2740   -2.7212    3.7481 C   0  0  0  0  0  0  0  0  0  0  0  0
    2.2561   -3.5306    4.3245 C   0  0  0  0  0  0  0  0  0  0  0  0
    1.9735   -4.2632    5.4533 C   0  0  0  0  0  0  0  0  0  0  0  0
    0.7066   -4.2143    6.0340 C   0  0  0  0  0  0  0  0  0  0  0  0
    0.4522   -5.2398    7.4457 S   0  0  0  0  0  0  0  0  0  0  0  0
   -1.3032   -5.0099    7.8483 C   0  0  0  0  0  0  0  0  0  0  0  0
   -0.2623   -3.3847    5.4842 C   0  0  0  0  0  0  0  0  0  0  0  0
    0.0243   -2.6421    4.3562 C   0  0  0  0  0  0  0  0  0  0  0  0
    0.4112   -0.6058    0.9032 C   0  0  0  0  0  0  0  0  0  0  0  0
    1.3698    0.8285    0.7744 S   0  0  0  0  0  0  0  0  0  0  0  0
    0.2132    1.5144   -0.3482 C   0  0  0  0  0  0  0  0  0  0  0  0
   -0.8287    0.6472   -0.6464 C   0  0  0  0  0  0  0  0  0  0  0  0
   -1.7746    0.8766   -1.6343 N   0  0  0  0  0  0  0  0  0  0  0  0
   -1.3620    1.5258   -2.8103 C   0  0  0  0  0  0  0  0  0  0  0  0
   -2.1297    2.5349   -3.3911 C   0  0  0  0  0  0  0  0  0  0  0  0
   -1.6275    3.2650   -4.4456 C   0  0  0  0  0  0  0  0  0  0  0  0
   -0.3486    3.0106   -4.9382 C   0  0  0  0  0  0  0  0  0  0  0  0
    0.2713    4.1212   -6.1658 S   0  0  0  0  0  0  0  0  0  0  0  0
    1.9158    3.4669   -6.5611 C   0  0  0  0  0  0  0  0  0  0  0  0
    0.3802    1.9480   -4.4242 C   0  0  0  0  0  0  0  0  0  0  0  0
   -0.1289    1.2108   -3.3743 C   0  0  0  0  0  0  0  0  0  0  0  0
   -3.1067    0.5119   -1.4330 C   0  0  0  0  0  0  0  0  0  0  0  0
   -3.9040    0.1282   -2.5123 C   0  0  0  0  0  0  0  0  0  0  0  0
   -5.2323   -0.1760   -2.3199 C   0  0  0  0  0  0  0  0  0  0  0  0
   -5.7937   -0.1157   -1.0470 C   0  0  0  0  0  0  0  0  0  0  0  0
   -7.5189   -0.4736   -0.9071 S   0  0  0  0  0  0  0  0  0  0  0  0
   -7.9970    0.4387    0.5913 C   0  0  0  0  0  0  0  0  0  0  0  0
   -4.9943    0.2176    0.0366 C   0  0  0  0  0  0  0  0  0  0  0  0
   -3.6650    0.5371   -0.1567 C   0  0  0  0  0  0  0  0  0  0  0  0
   -0.7111   -0.5551    0.0900 C   0  0  0  0  0  0  0  0  0  0  0  0
   -1.6549   -1.9997    0.1935 S   0  0  0  0  0  0  0  0  0  0  0  0
    0.4217    2.8049   -0.9334 C   0  0  0  0  0  0  0  0  0  0  0  0
   -0.5409    3.7813   -1.0979 C   0  0  0  0  0  0  0  0  0  0  0  0
   -0.1004    4.8713   -1.8430 C   0  0  0  0  0  0  0  0  0  0  0  0
   -0.9455    6.0219   -2.1514 C   0  0  0  0  0  0  0  0  0  0  0  0
   -1.0667    6.5195   -3.4481 C   0  0  0  0  0  0  0  0  0  0  0  0
   -1.8437    7.6320   -3.6994 C   0  0  0  0  0  0  0  0  0  0  0  0
   -2.5157    8.2828   -2.6720 C   0  0  0  0  0  0  0  0  0  0  0  0
   -3.3648    9.4861   -2.9552 C   0  0  0  0  0  0  0  0  0  0  0  0
   -4.7918    9.0647   -3.3135 C   0  0  0  0  0  0  0  0  0  0  0  0
   -2.4202    7.7650   -1.3857 C   0  0  0  0  0  0  0  0  0  0  0  0
   -1.6535    6.6471   -1.1262 C   0  0  0  0  0  0  0  0  0  0  0  0
    1.2330    4.7275   -2.2731 C   0  0  0  0  0  0  0  0  0  0  0  0
    1.9136    3.2224   -1.6995 S   0  0  0  0  0  0  0  0  0  0  0  0
    1.8917    5.7017   -3.0288 C   0  0  0  0  0  0  0  0  0  0  0  0
    3.1000    5.6585   -3.6823 C   0  0  0  0  0  0  0  0  0  0  0  0
    4.0004    4.5071   -3.7487 C   0  0  0  0  0  0  0  0  0  0  0  0
    3.9055    3.4433   -3.1622 O   0  0  0  0  0  0  0  0  0  0  0  0
    5.0686    4.8819   -4.7013 C   0  0  0  0  0  0  0  0  0  0  0  0
    6.1423    4.1259   -5.1238 C   0  0  0  0  0  0  0  0  0  0  0  0
    7.0263    4.6909   -6.0355 C   0  0  0  0  0  0  0  0  0  0  0  0
    8.3863    3.8051   -6.6055 Cl  0  0  0  0  0  0  0  0  0  0  0  0
    6.8008    5.9923   -6.4887 C   0  0  0  0  0  0  0  0  0  0  0  0
    7.6533    6.5297   -7.3696 F   0  0  0  0  0  0  0  0  0  0  0  0
    5.7249    6.7576   -6.0648 C   0  0  0  0  0  0  0  0  0  0  0  0
    4.8447    6.1929   -5.1556 C   0  0  0  0  0  0  0  0  0  0  0  0
    3.6344    6.7133   -4.5193 C   0  0  0  0  0  0  0  0  0  0  0  0
    3.1292    7.9749   -4.6999 C   0  0  0  0  0  0  0  0  0  0  0  0
    3.7122    8.9400   -5.5485 C   0  0  0  0  0  0  0  0  0  0  0  0
    4.1336    9.7669   -6.2238 N   0  0  0  0  0  0  0  0  0  0  0  0
    1.9821    8.5115   -4.0769 C   0  0  0  0  0  0  0  0  0  0  0  0
    1.0745    9.0436   -3.6153 N   0  0  0  0  0  0  0  0  0  0  0  0
   -0.2486   -8.4951    2.4691 H   0  0  0  0  0  0  0  0  0  0  0  0
    5.7121   -6.6834    3.3809 H   0  0  0  0  0  0  0  0  0  0  0  0
    4.2218  -11.3754    4.1340 H   0  0  0  0  0  0  0  0  0  0  0  0
   -2.0752   -7.0306    1.8890 H   0  0  0  0  0  0  0  0  0  0  0  0
   -3.4533   -5.9009   -0.1619 H   0  0  0  0  0  0  0  0  0  0  0  0
   -5.8093   -5.2475   -0.4205 H   0  0  0  0  0  0  0  0  0  0  0  0
   -7.4963   -3.3607   -0.0581 H   0  0  0  0  0  0  0  0  0  0  0  0
   -7.4029   -2.4511    1.4536 H   0  0  0  0  0  0  0  0  0  0  0  0
   -9.0965   -4.2524    1.6181 H   0  0  0  0  0  0  0  0  0  0  0  0
   -7.8674   -5.4639    1.2443 H   0  0  0  0  0  0  0  0  0  0  0  0
   -7.7700   -4.5487    2.7479 H   0  0  0  0  0  0  0  0  0  0  0  0
   -5.3307   -2.3077    2.6315 H   0  0  0  0  0  0  0  0  0  0  0  0
   -2.9727   -2.9472    2.8808 H   0  0  0  0  0  0  0  0  0  0  0  0
    2.8248   -2.0245    0.2504 H   0  0  0  0  0  0  0  0  0  0  0  0
    5.0383   -1.0252   -0.1786 H   0  0  0  0  0  0  0  0  0  0  0  0
    7.6305    0.2224    3.7107 H   0  0  0  0  0  0  0  0  0  0  0  0
    6.8335    1.7789    3.3053 H   0  0  0  0  0  0  0  0  0  0  0  0
    8.4754    1.4319    2.7215 H   0  0  0  0  0  0  0  0  0  0  0  0
    5.3078    0.1118    3.9374 H   0  0  0  0  0  0  0  0  0  0  0  0
    3.1074   -0.8479    4.3485 H   0  0  0  0  0  0  0  0  0  0  0  0
    3.2232   -3.6100    3.8548 H   0  0  0  0  0  0  0  0  0  0  0  0
    2.7248   -4.9043    5.8880 H   0  0  0  0  0  0  0  0  0  0  0  0
   -1.4984   -5.6731    8.6852 H   0  0  0  0  0  0  0  0  0  0  0  0
   -1.9182   -5.2957    7.0000 H   0  0  0  0  0  0  0  0  0  0  0  0
   -1.4874   -3.9813    8.1446 H   0  0  0  0  0  0  0  0  0  0  0  0
   -1.2433   -3.3050    5.9243 H   0  0  0  0  0  0  0  0  0  0  0  0
   -0.7333   -1.9952    3.9383 H   0  0  0  0  0  0  0  0  0  0  0  0
   -3.1057    2.7654   -2.9917 H   0  0  0  0  0  0  0  0  0  0  0  0
   -2.2095    4.0654   -4.8752 H   0  0  0  0  0  0  0  0  0  0  0  0
    1.8239    2.4837   -7.0130 H   0  0  0  0  0  0  0  0  0  0  0  0
    2.5302    3.4329   -5.6661 H   0  0  0  0  0  0  0  0  0  0  0  0
    2.3442    4.1625   -7.2764 H   0  0  0  0  0  0  0  0  0  0  0  0
    1.3532    1.6934   -4.8103 H   0  0  0  0  0  0  0  0  0  0  0  0
    0.4555    0.4010   -2.9635 H   0  0  0  0  0  0  0  0  0  0  0  0
   -3.4748    0.0836   -3.5017 H   0  0  0  0  0  0  0  0  0  0  0  0
   -5.8533   -0.4594   -3.1556 H   0  0  0  0  0  0  0  0  0  0  0  0
   -7.6029    1.4488    0.5381 H   0  0  0  0  0  0  0  0  0  0  0  0
   -7.6429   -0.0708    1.4828 H   0  0  0  0  0  0  0  0  0  0  0  0
   -9.0821    0.4607    0.5911 H   0  0  0  0  0  0  0  0  0  0  0  0
   -5.3994    0.2468    1.0353 H   0  0  0  0  0  0  0  0  0  0  0  0
   -3.0576    0.8264    0.6883 H   0  0  0  0  0  0  0  0  0  0  0  0
   -1.5363    3.6977   -0.6984 H   0  0  0  0  0  0  0  0  0  0  0  0
   -0.5703    6.0179   -4.2656 H   0  0  0  0  0  0  0  0  0  0  0  0
   -1.9192    8.0085   -4.7087 H   0  0  0  0  0  0  0  0  0  0  0  0
   -2.9354   10.0492   -3.7853 H   0  0  0  0  0  0  0  0  0  0  0  0
   -3.3906   10.1350   -2.0779 H   0  0  0  0  0  0  0  0  0  0  0  0
   -5.4049    9.9386   -3.5199 H   0  0  0  0  0  0  0  0  0  0  0  0
   -4.7886    8.4266   -4.1944 H   0  0  0  0  0  0  0  0  0  0  0  0
   -5.2415    8.5111   -2.4919 H   0  0  0  0  0  0  0  0  0  0  0  0
   -2.9431    8.2524   -0.5751 H   0  0  0  0  0  0  0  0  0  0  0  0
   -1.5674    6.2705   -0.1171 H   0  0  0  0  0  0  0  0  0  0  0  0
    1.3170    6.6122   -3.1444 H   0  0  0  0  0  0  0  0  0  0  0  0
    6.2908    3.1245   -4.7523 H   0  0  0  0  0  0  0  0  0  0  0  0
    5.6118    7.7557   -6.4550 H   0  0  0  0  0  0  0  0  0  0  0  0
  1  2  2  0  0  0  0
  2  3  1  0  0  0  0
  3  4  2  0  0  0  0
  3  5  1  0  0  0  0
  5  6  2  0  0  0  0
  6  7  1  0  0  0  0
  7  8  1  0  0  0  0
  7  9  2  0  0  0  0
  9 10  1  0  0  0  0
  9 11  1  0  0  0  0
 11 12  2  0  0  0  0
 12 13  1  0  0  0  0
 13 14  2  0  0  0  0
 14 15  1  0  0  0  0
 15 16  3  0  0  0  0
 14 17  1  0  0  0  0
 17 18  3  0  0  0  0
  1 19  1  0  0  0  0
 19 20  2  0  0  0  0
 20 21  1  0  0  0  0
 21 22  1  0  0  0  0
 22 23  2  0  0  0  0
 23 24  1  0  0  0  0
 24 25  2  0  0  0  0
 25 26  1  0  0  0  0
 26 27  1  0  0  0  0
 25 28  1  0  0  0  0
 28 29  2  0  0  0  0
 21 30  2  0  0  0  0
 30 31  1  0  0  0  0
 30 32  1  0  0  0  0
 32 33  2  0  0  0  0
 33 34  1  0  0  0  0
 34 35  1  0  0  0  0
 35 36  2  0  0  0  0
 36 37  1  0  0  0  0
 37 38  2  0  0  0  0
 38 39  1  0  0  0  0
 39 40  1  0  0  0  0
 38 41  1  0  0  0  0
 41 42  2  0  0  0  0
 34 43  1  0  0  0  0
 43 44  2  0  0  0  0
 44 45  1  0  0  0  0
 45 46  2  0  0  0  0
 46 47  1  0  0  0  0
 47 48  1  0  0  0  0
 46 49  1  0  0  0  0
 49 50  2  0  0  0  0
 33 51  1  0  0  0  0
 51 52  1  0  0  0  0
 52 53  1  0  0  0  0
 53 54  2  0  0  0  0
 54 55  1  0  0  0  0
 55 56  1  0  0  0  0
 56 57  2  0  0  0  0
 57 58  1  0  0  0  0
 58 59  2  0  0  0  0
 59 60  1  0  0  0  0
 60 61  1  0  0  0  0
 59 62  1  0  0  0  0
 62 63  2  0  0  0  0
 55 64  1  0  0  0  0
 64 65  2  0  0  0  0
 65 66  1  0  0  0  0
 66 67  2  0  0  0  0
 67 68  1  0  0  0  0
 68 69  1  0  0  0  0
 67 70  1  0  0  0  0
 70 71  2  0  0  0  0
 54 72  1  0  0  0  0
 72 73  1  0  0  0  0
 53 74  1  0  0  0  0
 74 75  2  0  0  0  0
 75 76  1  0  0  0  0
 76 77  1  0  0  0  0
 77 78  2  0  0  0  0
 78 79  1  0  0  0  0
 79 80  2  0  0  0  0
 80 81  1  0  0  0  0
 81 82  1  0  0  0  0
 80 83  1  0  0  0  0
 83 84  2  0  0  0  0
 76 85  2  0  0  0  0
 85 86  1  0  0  0  0
 85 87  1  0  0  0  0
 87 88  2  0  0  0  0
 88 89  1  0  0  0  0
 89 90  2  0  0  0  0
 89 91  1  0  0  0  0
 91 92  2  0  0  0  0
 92 93  1  0  0  0  0
 93 94  1  0  0  0  0
 93 95  2  0  0  0  0
 95 96  1  0  0  0  0
 95 97  1  0  0  0  0
 97 98  2  0  0  0  0
 98 99  1  0  0  0  0
 99100  2  0  0  0  0
100101  1  0  0  0  0
101102  3  0  0  0  0
100103  1  0  0  0  0
103104  3  0  0  0  0
 13  2  1  0  0  0  0
 31 19  1  0  0  0  0
 73 32  1  0  0  0  0
 86 74  1  0  0  0  0
 99 88  1  0  0  0  0
 12  5  1  0  0  0  0
 29 22  1  0  0  0  0
 42 35  1  0  0  0  0
 50 43  1  0  0  0  0
 72 51  2  0  0  0  0
 84 77  1  0  0  0  0
 98 91  1  0  0  0  0
 63 56  1  0  0  0  0
 71 64  1  0  0  0  0
  1105  1  0  0  0  0
  6106  1  0  0  0  0
 11107  1  0  0  0  0
 20108  1  0  0  0  0
 23109  1  0  0  0  0
 24110  1  0  0  0  0
 26111  1  0  0  0  0
 26112  1  0  0  0  0
 27113  1  0  0  0  0
 27114  1  0  0  0  0
 27115  1  0  0  0  0
 28116  1  0  0  0  0
 29117  1  0  0  0  0
 36118  1  0  0  0  0
 37119  1  0  0  0  0
 40120  1  0  0  0  0
 40121  1  0  0  0  0
 40122  1  0  0  0  0
 41123  1  0  0  0  0
 42124  1  0  0  0  0
 44125  1  0  0  0  0
 45126  1  0  0  0  0
 48127  1  0  0  0  0
 48128  1  0  0  0  0
 48129  1  0  0  0  0
 49130  1  0  0  0  0
 50131  1  0  0  0  0
 57132  1  0  0  0  0
 58133  1  0  0  0  0
 61134  1  0  0  0  0
 61135  1  0  0  0  0
 61136  1  0  0  0  0
 62137  1  0  0  0  0
 63138  1  0  0  0  0
 65139  1  0  0  0  0
 66140  1  0  0  0  0
 69141  1  0  0  0  0
 69142  1  0  0  0  0
 69143  1  0  0  0  0
 70144  1  0  0  0  0
 71145  1  0  0  0  0
 75146  1  0  0  0  0
 78147  1  0  0  0  0
 79148  1  0  0  0  0
 81149  1  0  0  0  0
 81150  1  0  0  0  0
 82151  1  0  0  0  0
 82152  1  0  0  0  0
 82153  1  0  0  0  0
 83154  1  0  0  0  0
 84155  1  0  0  0  0
 87156  1  0  0  0  0
 92157  1  0  0  0  0
 97158  1  0  0  0  0
M  END
