
  xtb     02112209213D
 energy: -278.047227814756 gnorm: 0.000501951106 xtb: 6.4.1 (unknown)
150164  0     0  0            999 V2000
    5.1005    4.6580    7.7254 C   0  0  0  0  0  0  0  0  0  0  0  0
    5.3878    4.7462    9.0517 C   0  0  0  0  0  0  0  0  0  0  0  0
    4.4242    4.6355   10.1807 C   0  0  0  0  0  0  0  0  0  0  0  0
    3.2740    4.2634   10.1607 O   0  0  0  0  0  0  0  0  0  0  0  0
    5.1486    5.1622   11.3600 C   0  0  0  0  0  0  0  0  0  0  0  0
    4.6723    5.3179   12.6463 C   0  0  0  0  0  0  0  0  0  0  0  0
    5.5311    5.8327   13.6098 C   0  0  0  0  0  0  0  0  0  0  0  0
    5.0051    6.0475   15.2322 Cl  0  0  0  0  0  0  0  0  0  0  0  0
    6.8373    6.1774   13.2490 C   0  0  0  0  0  0  0  0  0  0  0  0
    7.6556    6.6781   14.1808 F   0  0  0  0  0  0  0  0  0  0  0  0
    7.3228    6.0233   11.9608 C   0  0  0  0  0  0  0  0  0  0  0  0
    6.4636    5.5062   11.0020 C   0  0  0  0  0  0  0  0  0  0  0  0
    6.6590    5.2080    9.5906 C   0  0  0  0  0  0  0  0  0  0  0  0
    7.8531    5.2476    8.9193 C   0  0  0  0  0  0  0  0  0  0  0  0
    9.0657    5.6868    9.4918 C   0  0  0  0  0  0  0  0  0  0  0  0
   10.0758    6.0452    9.9017 N   0  0  0  0  0  0  0  0  0  0  0  0
    8.0410    4.8089    7.5922 C   0  0  0  0  0  0  0  0  0  0  0  0
    8.2734    4.4384    6.5301 N   0  0  0  0  0  0  0  0  0  0  0  0
    3.9430    4.1047    7.0786 C   0  0  0  0  0  0  0  0  0  0  0  0
    3.6018    4.5935    5.8011 C   0  0  0  0  0  0  0  0  0  0  0  0
    2.5524    4.0240    5.1273 C   0  0  0  0  0  0  0  0  0  0  0  0
    2.0475    4.3069    3.7579 C   0  0  0  0  0  0  0  0  0  0  0  0
    2.4385    5.1442    2.9780 O   0  0  0  0  0  0  0  0  0  0  0  0
    1.0058    3.2734    3.5333 C   0  0  0  0  0  0  0  0  0  0  0  0
    0.8716    2.4788    4.6885 C   0  0  0  0  0  0  0  0  0  0  0  0
    1.8275    2.9456    5.6802 C   0  0  0  0  0  0  0  0  0  0  0  0
    2.1621    2.4555    6.9281 C   0  0  0  0  0  0  0  0  0  0  0  0
    3.2157    3.0356    7.6156 C   0  0  0  0  0  0  0  0  0  0  0  0
   -0.0063    1.4104    4.6884 C   0  0  0  0  0  0  0  0  0  0  0  0
   -0.6058    1.0465    3.4926 C   0  0  0  0  0  0  0  0  0  0  0  0
   -0.3611    1.7496    2.3096 C   0  0  0  0  0  0  0  0  0  0  0  0
    0.3661    2.9471    2.3623 C   0  0  0  0  0  0  0  0  0  0  0  0
   -0.6324    1.1182    1.0311 C   0  0  0  0  0  0  0  0  0  0  0  0
    0.2706    1.0241   -0.0176 C   0  0  0  0  0  0  0  0  0  0  0  0
    1.4725    1.7638   -0.1150 N   0  0  0  0  0  0  0  0  0  0  0  0
    2.4485    1.6091    0.8663 C   0  0  0  0  0  0  0  0  0  0  0  0
    2.3190    0.6533    1.8817 C   0  0  0  0  0  0  0  0  0  0  0  0
    3.1877    0.6379    2.9492 C   0  0  0  0  0  0  0  0  0  0  0  0
    4.2445    1.5410    3.0205 C   0  0  0  0  0  0  0  0  0  0  0  0
    5.1934    1.5605    4.5117 S   0  0  0  0  0  0  0  0  0  0  0  0
    6.3861    2.8978    4.2329 C   0  0  0  0  0  0  0  0  0  0  0  0
    4.4924    2.3550    1.9242 C   0  0  0  0  0  0  0  0  0  0  0  0
    3.6167    2.3747    0.8583 C   0  0  0  0  0  0  0  0  0  0  0  0
    1.4154    2.9161   -0.9427 C   0  0  0  0  0  0  0  0  0  0  0  0
    1.7682    4.1863   -0.4856 C   0  0  0  0  0  0  0  0  0  0  0  0
    1.6705    5.2938   -1.3070 C   0  0  0  0  0  0  0  0  0  0  0  0
    1.2081    5.1658   -2.6085 C   0  0  0  0  0  0  0  0  0  0  0  0
    1.0410    6.5047   -3.7452 S   0  0  0  0  0  0  0  0  0  0  0  0
    1.6993    7.9319   -2.8372 C   0  0  0  0  0  0  0  0  0  0  0  0
    0.8412    3.9041   -3.0687 C   0  0  0  0  0  0  0  0  0  0  0  0
    0.9430    2.8012   -2.2501 C   0  0  0  0  0  0  0  0  0  0  0  0
   -0.1435    0.0426   -0.9480 C   0  0  0  0  0  0  0  0  0  0  0  0
    0.5433   -0.6341   -2.3871 S   0  0  0  0  0  0  0  0  0  0  0  0
   -0.7824   -1.7695   -2.5131 C   0  0  0  0  0  0  0  0  0  0  0  0
   -1.7476   -1.5820   -1.5351 C   0  0  0  0  0  0  0  0  0  0  0  0
   -2.9781   -2.2114   -1.4898 N   0  0  0  0  0  0  0  0  0  0  0  0
   -3.4995   -2.5594   -0.2361 C   0  0  0  0  0  0  0  0  0  0  0  0
   -4.8595   -2.4304    0.0280 C   0  0  0  0  0  0  0  0  0  0  0  0
   -5.3698   -2.7591    1.2686 C   0  0  0  0  0  0  0  0  0  0  0  0
   -4.5235   -3.2151    2.2712 C   0  0  0  0  0  0  0  0  0  0  0  0
   -5.0523   -3.6532    3.8966 S   0  0  0  0  0  0  0  0  0  0  0  0
   -6.8361   -3.3210    3.8863 C   0  0  0  0  0  0  0  0  0  0  0  0
   -3.1616   -3.3525    2.0072 C   0  0  0  0  0  0  0  0  0  0  0  0
   -2.6540   -3.0341    0.7677 C   0  0  0  0  0  0  0  0  0  0  0  0
   -3.6384   -2.5905   -2.6652 C   0  0  0  0  0  0  0  0  0  0  0  0
   -4.3683   -3.7783   -2.7164 C   0  0  0  0  0  0  0  0  0  0  0  0
   -4.9376   -4.2011   -3.8976 C   0  0  0  0  0  0  0  0  0  0  0  0
   -4.8066   -3.4403   -5.0550 C   0  0  0  0  0  0  0  0  0  0  0  0
   -5.5171   -4.0854   -6.5416 S   0  0  0  0  0  0  0  0  0  0  0  0
   -5.8867   -2.5751   -7.4794 C   0  0  0  0  0  0  0  0  0  0  0  0
   -4.1240   -2.2321   -5.0018 C   0  0  0  0  0  0  0  0  0  0  0  0
   -3.5534   -1.8113   -3.8180 C   0  0  0  0  0  0  0  0  0  0  0  0
   -1.3471   -0.5707   -0.6274 C   0  0  0  0  0  0  0  0  0  0  0  0
   -1.9951    0.0392    0.8506 S   0  0  0  0  0  0  0  0  0  0  0  0
   -0.8228   -2.7627   -3.5483 C   0  0  0  0  0  0  0  0  0  0  0  0
   -1.2887   -4.0667   -3.2631 C   0  0  0  0  0  0  0  0  0  0  0  0
   -1.5141   -4.6934   -2.0994 N   0  0  0  0  0  0  0  0  0  0  0  0
   -1.8752   -5.8956   -2.4480 N   0  0  0  0  0  0  0  0  0  0  0  0
   -2.1084   -6.9311   -1.4795 C   0  0  0  0  0  0  0  0  0  0  0  0
   -3.2929   -6.6113   -0.5768 C   0  0  0  0  0  0  0  0  0  0  0  0
   -1.9327   -6.1431   -3.7284 N   0  0  0  0  0  0  0  0  0  0  0  0
   -1.5428   -5.0003   -4.3047 C   0  0  0  0  0  0  0  0  0  0  0  0
   -1.3653   -4.6655   -5.6693 C   0  0  0  0  0  0  0  0  0  0  0  0
   -0.7157   -3.4491   -5.8733 C   0  0  0  0  0  0  0  0  0  0  0  0
   -0.4490   -2.5283   -4.8614 C   0  0  0  0  0  0  0  0  0  0  0  0
   -0.2612   -3.1467   -7.0976 F   0  0  0  0  0  0  0  0  0  0  0  0
   -1.8174   -5.5785   -6.6686 C   0  0  0  0  0  0  0  0  0  0  0  0
   -2.3445   -5.2614   -7.8819 C   0  0  0  0  0  0  0  0  0  0  0  0
   -2.7879   -3.9110   -8.3070 C   0  0  0  0  0  0  0  0  0  0  0  0
   -2.6970   -2.8587   -7.7131 O   0  0  0  0  0  0  0  0  0  0  0  0
   -3.4828   -4.1178   -9.5989 C   0  0  0  0  0  0  0  0  0  0  0  0
   -4.0759   -3.1699  -10.4083 C   0  0  0  0  0  0  0  0  0  0  0  0
   -4.7052   -3.5941  -11.5717 C   0  0  0  0  0  0  0  0  0  0  0  0
   -5.4642   -2.4614  -12.6215 Cl  0  0  0  0  0  0  0  0  0  0  0  0
   -4.7194   -4.9551  -11.8851 C   0  0  0  0  0  0  0  0  0  0  0  0
   -5.3356   -5.3572  -13.0031 F   0  0  0  0  0  0  0  0  0  0  0  0
   -4.1170   -5.9112  -11.0835 C   0  0  0  0  0  0  0  0  0  0  0  0
   -3.4867   -5.4841   -9.9245 C   0  0  0  0  0  0  0  0  0  0  0  0
   -2.7581   -6.2174   -8.8955 C   0  0  0  0  0  0  0  0  0  0  0  0
   -2.4601   -7.5524   -8.9289 C   0  0  0  0  0  0  0  0  0  0  0  0
   -2.8767   -8.4281   -9.9550 C   0  0  0  0  0  0  0  0  0  0  0  0
   -3.1883   -9.1894  -10.7550 N   0  0  0  0  0  0  0  0  0  0  0  0
   -1.6778   -8.2422   -7.9767 C   0  0  0  0  0  0  0  0  0  0  0  0
   -1.0395   -8.8800   -7.2669 N   0  0  0  0  0  0  0  0  0  0  0  0
    5.8281    5.0767    7.0388 H   0  0  0  0  0  0  0  0  0  0  0  0
    3.6593    5.0430   12.8937 H   0  0  0  0  0  0  0  0  0  0  0  0
    8.3391    6.3117   11.7466 H   0  0  0  0  0  0  0  0  0  0  0  0
    4.1572    5.4092    5.3606 H   0  0  0  0  0  0  0  0  0  0  0  0
    1.6327    1.6185    7.3561 H   0  0  0  0  0  0  0  0  0  0  0  0
    3.5086    2.6244    8.5667 H   0  0  0  0  0  0  0  0  0  0  0  0
   -0.1727    0.8233    5.5783 H   0  0  0  0  0  0  0  0  0  0  0  0
   -1.2182    0.1568    3.4526 H   0  0  0  0  0  0  0  0  0  0  0  0
    0.4512    3.5737    1.4912 H   0  0  0  0  0  0  0  0  0  0  0  0
    1.5234   -0.0737    1.8495 H   0  0  0  0  0  0  0  0  0  0  0  0
    3.0449   -0.0702    3.7510 H   0  0  0  0  0  0  0  0  0  0  0  0
    5.8546    3.8143    3.9950 H   0  0  0  0  0  0  0  0  0  0  0  0
    6.9366    3.0178    5.1611 H   0  0  0  0  0  0  0  0  0  0  0  0
    7.0712    2.6218    3.4368 H   0  0  0  0  0  0  0  0  0  0  0  0
    5.3620    2.9901    1.8849 H   0  0  0  0  0  0  0  0  0  0  0  0
    3.8474    3.0007    0.0114 H   0  0  0  0  0  0  0  0  0  0  0  0
    2.1294    4.3399    0.5197 H   0  0  0  0  0  0  0  0  0  0  0  0
    1.9536    6.2523   -0.9036 H   0  0  0  0  0  0  0  0  0  0  0  0
    1.6526    8.7657   -3.5310 H   0  0  0  0  0  0  0  0  0  0  0  0
    2.7309    7.7456   -2.5530 H   0  0  0  0  0  0  0  0  0  0  0  0
    1.0809    8.1406   -1.9690 H   0  0  0  0  0  0  0  0  0  0  0  0
    0.4812    3.7972   -4.0803 H   0  0  0  0  0  0  0  0  0  0  0  0
    0.6652    1.8380   -2.6420 H   0  0  0  0  0  0  0  0  0  0  0  0
   -5.5199   -2.0661   -0.7448 H   0  0  0  0  0  0  0  0  0  0  0  0
   -6.4276   -2.6453    1.4409 H   0  0  0  0  0  0  0  0  0  0  0  0
   -7.3301   -3.9571    3.1576 H   0  0  0  0  0  0  0  0  0  0  0  0
   -7.0168   -2.2696    3.6830 H   0  0  0  0  0  0  0  0  0  0  0  0
   -7.1836   -3.5679    4.8847 H   0  0  0  0  0  0  0  0  0  0  0  0
   -2.5117   -3.7207    2.7862 H   0  0  0  0  0  0  0  0  0  0  0  0
   -1.6034   -3.1650    0.5571 H   0  0  0  0  0  0  0  0  0  0  0  0
   -4.4716   -4.3742   -1.8237 H   0  0  0  0  0  0  0  0  0  0  0  0
   -5.4799   -5.1333   -3.9383 H   0  0  0  0  0  0  0  0  0  0  0  0
   -6.4672   -1.9023   -6.8554 H   0  0  0  0  0  0  0  0  0  0  0  0
   -6.4702   -2.8904   -8.3386 H   0  0  0  0  0  0  0  0  0  0  0  0
   -4.9616   -2.1102   -7.8051 H   0  0  0  0  0  0  0  0  0  0  0  0
   -4.0095   -1.6223   -5.8817 H   0  0  0  0  0  0  0  0  0  0  0  0
   -3.0254   -0.8700   -3.7912 H   0  0  0  0  0  0  0  0  0  0  0  0
   -1.2030   -7.0344   -0.8742 H   0  0  0  0  0  0  0  0  0  0  0  0
   -2.2765   -7.8488   -2.0451 H   0  0  0  0  0  0  0  0  0  0  0  0
   -4.2157   -6.5876   -1.1510 H   0  0  0  0  0  0  0  0  0  0  0  0
   -3.3831   -7.3779    0.1875 H   0  0  0  0  0  0  0  0  0  0  0  0
   -3.1448   -5.6498   -0.0899 H   0  0  0  0  0  0  0  0  0  0  0  0
    0.0069   -1.5894   -5.1366 H   0  0  0  0  0  0  0  0  0  0  0  0
   -1.8093   -6.6138   -6.3522 H   0  0  0  0  0  0  0  0  0  0  0  0
   -4.0439   -2.1229  -10.1522 H   0  0  0  0  0  0  0  0  0  0  0  0
   -4.1622   -6.9455  -11.3830 H   0  0  0  0  0  0  0  0  0  0  0  0
  1  2  2  0  0  0  0
  2  3  1  0  0  0  0
  3  4  2  0  0  0  0
  3  5  1  0  0  0  0
  5  6  2  0  0  0  0
  6  7  1  0  0  0  0
  7  8  1  0  0  0  0
  7  9  2  0  0  0  0
  9 10  1  0  0  0  0
  9 11  1  0  0  0  0
 11 12  2  0  0  0  0
 12 13  1  0  0  0  0
 13 14  2  0  0  0  0
 14 15  1  0  0  0  0
 15 16  3  0  0  0  0
 14 17  1  0  0  0  0
 17 18  3  0  0  0  0
  1 19  1  0  0  0  0
 19 20  2  0  0  0  0
 20 21  1  0  0  0  0
 21 22  1  0  0  0  0
 22 23  2  0  0  0  0
 22 24  1  0  0  0  0
 24 25  2  0  0  0  0
 25 26  1  0  0  0  0
 26 27  1  0  0  0  0
 27 28  2  0  0  0  0
 25 29  1  0  0  0  0
 29 30  2  0  0  0  0
 30 31  1  0  0  0  0
 31 32  2  0  0  0  0
 31 33  1  0  0  0  0
 33 34  2  0  0  0  0
 34 35  1  0  0  0  0
 35 36  1  0  0  0  0
 36 37  2  0  0  0  0
 37 38  1  0  0  0  0
 38 39  2  0  0  0  0
 39 40  1  0  0  0  0
 40 41  1  0  0  0  0
 39 42  1  0  0  0  0
 42 43  2  0  0  0  0
 35 44  1  0  0  0  0
 44 45  2  0  0  0  0
 45 46  1  0  0  0  0
 46 47  2  0  0  0  0
 47 48  1  0  0  0  0
 48 49  1  0  0  0  0
 47 50  1  0  0  0  0
 50 51  2  0  0  0  0
 34 52  1  0  0  0  0
 52 53  1  0  0  0  0
 53 54  1  0  0  0  0
 54 55  2  0  0  0  0
 55 56  1  0  0  0  0
 56 57  1  0  0  0  0
 57 58  2  0  0  0  0
 58 59  1  0  0  0  0
 59 60  2  0  0  0  0
 60 61  1  0  0  0  0
 61 62  1  0  0  0  0
 60 63  1  0  0  0  0
 63 64  2  0  0  0  0
 56 65  1  0  0  0  0
 65 66  2  0  0  0  0
 66 67  1  0  0  0  0
 67 68  2  0  0  0  0
 68 69  1  0  0  0  0
 69 70  1  0  0  0  0
 68 71  1  0  0  0  0
 71 72  2  0  0  0  0
 55 73  1  0  0  0  0
 73 74  1  0  0  0  0
 54 75  1  0  0  0  0
 75 76  1  0  0  0  0
 76 77  2  0  0  0  0
 77 78  1  0  0  0  0
 78 79  1  0  0  0  0
 79 80  1  0  0  0  0
 78 81  1  0  0  0  0
 81 82  2  0  0  0  0
 82 83  1  0  0  0  0
 83 84  2  0  0  0  0
 84 85  1  0  0  0  0
 84 86  1  0  0  0  0
 83 87  1  0  0  0  0
 87 88  2  0  0  0  0
 88 89  1  0  0  0  0
 89 90  2  0  0  0  0
 89 91  1  0  0  0  0
 91 92  2  0  0  0  0
 92 93  1  0  0  0  0
 93 94  1  0  0  0  0
 93 95  2  0  0  0  0
 95 96  1  0  0  0  0
 95 97  1  0  0  0  0
 97 98  2  0  0  0  0
 98 99  1  0  0  0  0
 99100  2  0  0  0  0
100101  1  0  0  0  0
101102  3  0  0  0  0
100103  1  0  0  0  0
103104  3  0  0  0  0
 13  2  1  0  0  0  0
 28 19  1  0  0  0  0
 74 33  1  0  0  0  0
 85 75  2  0  0  0  0
 99 88  1  0  0  0  0
 12  5  1  0  0  0  0
 26 21  2  0  0  0  0
 43 36  1  0  0  0  0
 51 44  1  0  0  0  0
 73 52  2  0  0  0  0
 82 76  1  0  0  0  0
 98 91  1  0  0  0  0
 32 24  1  0  0  0  0
 64 57  1  0  0  0  0
 72 65  1  0  0  0  0
  1105  1  0  0  0  0
  6106  1  0  0  0  0
 11107  1  0  0  0  0
 20108  1  0  0  0  0
 27109  1  0  0  0  0
 28110  1  0  0  0  0
 29111  1  0  0  0  0
 30112  1  0  0  0  0
 32113  1  0  0  0  0
 37114  1  0  0  0  0
 38115  1  0  0  0  0
 41116  1  0  0  0  0
 41117  1  0  0  0  0
 41118  1  0  0  0  0
 42119  1  0  0  0  0
 43120  1  0  0  0  0
 45121  1  0  0  0  0
 46122  1  0  0  0  0
 49123  1  0  0  0  0
 49124  1  0  0  0  0
 49125  1  0  0  0  0
 50126  1  0  0  0  0
 51127  1  0  0  0  0
 58128  1  0  0  0  0
 59129  1  0  0  0  0
 62130  1  0  0  0  0
 62131  1  0  0  0  0
 62132  1  0  0  0  0
 63133  1  0  0  0  0
 64134  1  0  0  0  0
 66135  1  0  0  0  0
 67136  1  0  0  0  0
 70137  1  0  0  0  0
 70138  1  0  0  0  0
 70139  1  0  0  0  0
 71140  1  0  0  0  0
 72141  1  0  0  0  0
 79142  1  0  0  0  0
 79143  1  0  0  0  0
 80144  1  0  0  0  0
 80145  1  0  0  0  0
 80146  1  0  0  0  0
 85147  1  0  0  0  0
 87148  1  0  0  0  0
 92149  1  0  0  0  0
 97150  1  0  0  0  0
M  END
