
  xtb     02112204083D
 energy: -295.093836145263 gnorm: 0.000902983472 xtb: 6.4.1 (unknown)
162177  0     0  0            999 V2000
    1.8546   -7.4076    9.7906 C   0  0  0  0  0  0  0  0  0  0  0  0
    2.9498   -6.7031   10.1359 C   0  0  0  0  0  0  0  0  0  0  0  0
    3.3214   -5.4138    9.4757 C   0  0  0  0  0  0  0  0  0  0  0  0
    2.6367   -4.7461    8.7383 O   0  0  0  0  0  0  0  0  0  0  0  0
    4.6547   -5.0765   10.0098 C   0  0  0  0  0  0  0  0  0  0  0  0
    5.4797   -4.0339    9.6369 C   0  0  0  0  0  0  0  0  0  0  0  0
    6.7044   -3.9035   10.2786 C   0  0  0  0  0  0  0  0  0  0  0  0
    7.7877   -2.6383    9.8577 Cl  0  0  0  0  0  0  0  0  0  0  0  0
    7.0553   -4.8175   11.2788 C   0  0  0  0  0  0  0  0  0  0  0  0
    8.2360   -4.6833   11.8924 F   0  0  0  0  0  0  0  0  0  0  0  0
    6.2313   -5.8628   11.6606 C   0  0  0  0  0  0  0  0  0  0  0  0
    5.0102   -5.9974   11.0129 C   0  0  0  0  0  0  0  0  0  0  0  0
    3.9458   -6.9811   11.1672 C   0  0  0  0  0  0  0  0  0  0  0  0
    3.8942   -7.9726   12.1061 C   0  0  0  0  0  0  0  0  0  0  0  0
    2.8339   -8.8955   12.2400 C   0  0  0  0  0  0  0  0  0  0  0  0
    2.0005   -9.6666   12.4056 N   0  0  0  0  0  0  0  0  0  0  0  0
    4.8878   -8.1878   13.0866 C   0  0  0  0  0  0  0  0  0  0  0  0
    5.6614   -8.4110   13.9036 N   0  0  0  0  0  0  0  0  0  0  0  0
    1.0747   -7.0429    8.6097 C   0  0  0  0  0  0  0  0  0  0  0  0
    1.6896   -7.0876    7.3508 C   0  0  0  0  0  0  0  0  0  0  0  0
    0.9797   -6.6525    6.2590 C   0  0  0  0  0  0  0  0  0  0  0  0
    1.3971   -6.5694    4.8351 C   0  0  0  0  0  0  0  0  0  0  0  0
    2.4220   -6.9747    4.3359 O   0  0  0  0  0  0  0  0  0  0  0  0
    0.2865   -5.8462    4.1676 C   0  0  0  0  0  0  0  0  0  0  0  0
   -0.7272   -5.5785    5.1068 C   0  0  0  0  0  0  0  0  0  0  0  0
   -0.3181   -6.1233    6.3972 C   0  0  0  0  0  0  0  0  0  0  0  0
   -0.9433   -6.1333    7.6266 C   0  0  0  0  0  0  0  0  0  0  0  0
   -0.2445   -6.6187    8.7256 C   0  0  0  0  0  0  0  0  0  0  0  0
   -1.8182   -4.8137    4.7503 C   0  0  0  0  0  0  0  0  0  0  0  0
   -1.8393   -4.2508    3.4815 C   0  0  0  0  0  0  0  0  0  0  0  0
   -0.8200   -4.4845    2.5620 C   0  0  0  0  0  0  0  0  0  0  0  0
    0.2331   -5.3432    2.8873 C   0  0  0  0  0  0  0  0  0  0  0  0
   -0.7844   -3.6570    1.3544 C   0  0  0  0  0  0  0  0  0  0  0  0
   -0.4959   -2.3120    1.4050 C   0  0  0  0  0  0  0  0  0  0  0  0
   -0.0988   -1.6443    2.5579 N   0  0  0  0  0  0  0  0  0  0  0  0
   -0.4480   -0.2998    2.7053 C   0  0  0  0  0  0  0  0  0  0  0  0
   -1.7040    0.1437    2.2846 C   0  0  0  0  0  0  0  0  0  0  0  0
   -2.0163    1.4838    2.3143 C   0  0  0  0  0  0  0  0  0  0  0  0
   -1.0896    2.4138    2.7790 C   0  0  0  0  0  0  0  0  0  0  0  0
   -1.5720    4.1122    2.6999 S   0  0  0  0  0  0  0  0  0  0  0  0
   -0.0434    5.0145    3.0799 C   0  0  0  0  0  0  0  0  0  0  0  0
    0.1335    1.9712    3.2644 C   0  0  0  0  0  0  0  0  0  0  0  0
    0.4515    0.6277    3.2243 C   0  0  0  0  0  0  0  0  0  0  0  0
    0.8619   -2.2443    3.3934 C   0  0  0  0  0  0  0  0  0  0  0  0
    1.9507   -2.9159    2.8458 C   0  0  0  0  0  0  0  0  0  0  0  0
    2.8824   -3.5355    3.6551 C   0  0  0  0  0  0  0  0  0  0  0  0
    2.7353   -3.4968    5.0349 C   0  0  0  0  0  0  0  0  0  0  0  0
    3.8729   -4.2291    6.1639 S   0  0  0  0  0  0  0  0  0  0  0  0
    4.9519   -5.2392    5.1070 C   0  0  0  0  0  0  0  0  0  0  0  0
    1.6499   -2.8194    5.5899 C   0  0  0  0  0  0  0  0  0  0  0  0
    0.7262   -2.1951    4.7800 C   0  0  0  0  0  0  0  0  0  0  0  0
   -0.6236   -1.7191    0.1257 C   0  0  0  0  0  0  0  0  0  0  0  0
   -0.4213   -0.1181   -0.4675 S   0  0  0  0  0  0  0  0  0  0  0  0
   -0.8780   -0.6351   -2.0941 C   0  0  0  0  0  0  0  0  0  0  0  0
   -1.0996   -2.0080   -2.1634 C   0  0  0  0  0  0  0  0  0  0  0  0
   -1.3856   -2.7456   -3.2950 N   0  0  0  0  0  0  0  0  0  0  0  0
   -2.2171   -3.8720   -3.1597 C   0  0  0  0  0  0  0  0  0  0  0  0
   -3.3815   -3.7968   -2.3954 C   0  0  0  0  0  0  0  0  0  0  0  0
   -4.1821   -4.9059   -2.2427 C   0  0  0  0  0  0  0  0  0  0  0  0
   -3.8437   -6.1121   -2.8542 C   0  0  0  0  0  0  0  0  0  0  0  0
   -4.9446   -7.4618   -2.5808 S   0  0  0  0  0  0  0  0  0  0  0  0
   -4.1821   -8.8436   -3.4771 C   0  0  0  0  0  0  0  0  0  0  0  0
   -2.6921   -6.1858   -3.6275 C   0  0  0  0  0  0  0  0  0  0  0  0
   -1.8855   -5.0746   -3.7748 C   0  0  0  0  0  0  0  0  0  0  0  0
   -0.8296   -2.4359   -4.5389 C   0  0  0  0  0  0  0  0  0  0  0  0
   -1.5532   -2.6848   -5.7060 C   0  0  0  0  0  0  0  0  0  0  0  0
   -1.0568   -2.2847   -6.9286 C   0  0  0  0  0  0  0  0  0  0  0  0
    0.1632   -1.6302   -7.0022 C   0  0  0  0  0  0  0  0  0  0  0  0
    0.7351   -1.0045   -8.5691 S   0  0  0  0  0  0  0  0  0  0  0  0
    0.5748    0.7738   -8.2090 C   0  0  0  0  0  0  0  0  0  0  0  0
    0.9217   -1.4446   -5.8558 C   0  0  0  0  0  0  0  0  0  0  0  0
    0.4333   -1.8502   -4.6316 C   0  0  0  0  0  0  0  0  0  0  0  0
   -0.9753   -2.6040   -0.8778 C   0  0  0  0  0  0  0  0  0  0  0  0
   -1.1385   -4.2191   -0.2602 S   0  0  0  0  0  0  0  0  0  0  0  0
   -1.0128    0.4257   -3.0333 C   0  0  0  0  0  0  0  0  0  0  0  0
   -0.5809    1.7064   -2.7960 C   0  0  0  0  0  0  0  0  0  0  0  0
   -0.9086    2.6273   -3.8104 C   0  0  0  0  0  0  0  0  0  0  0  0
   -0.6481    4.0058   -3.8707 C   0  0  0  0  0  0  0  0  0  0  0  0
    0.0220    4.6807   -2.8870 O   0  0  0  0  0  0  0  0  0  0  0  0
   -0.6633    4.8538   -1.6522 C   0  0  0  0  0  0  0  0  0  0  0  0
   -1.8304    5.8255   -1.7732 C   0  0  0  0  0  0  0  0  0  0  0  0
   -1.0361    4.6731   -5.0209 C   0  0  0  0  0  0  0  0  0  0  0  0
   -1.6581    4.0241   -6.1244 C   0  0  0  0  0  0  0  0  0  0  0  0
   -1.9645    2.6460   -6.0406 C   0  0  0  0  0  0  0  0  0  0  0  0
   -2.5286    1.9421   -7.0714 O   0  0  0  0  0  0  0  0  0  0  0  0
   -3.8976    2.2128   -7.3520 C   0  0  0  0  0  0  0  0  0  0  0  0
   -4.8195    1.6778   -6.2633 C   0  0  0  0  0  0  0  0  0  0  0  0
   -1.5977    1.9962   -4.8814 C   0  0  0  0  0  0  0  0  0  0  0  0
   -1.8742    0.3049   -4.5560 S   0  0  0  0  0  0  0  0  0  0  0  0
   -1.8767    4.9224   -7.1766 C   0  0  0  0  0  0  0  0  0  0  0  0
   -1.4856    6.2249   -6.8996 C   0  0  0  0  0  0  0  0  0  0  0  0
   -0.7998    6.3721   -5.2927 S   0  0  0  0  0  0  0  0  0  0  0  0
   -1.6522    7.2533   -7.8459 C   0  0  0  0  0  0  0  0  0  0  0  0
   -1.3932    8.5963   -7.7652 C   0  0  0  0  0  0  0  0  0  0  0  0
   -0.8585    9.3109   -6.5948 C   0  0  0  0  0  0  0  0  0  0  0  0
   -0.5476    8.8554   -5.5136 O   0  0  0  0  0  0  0  0  0  0  0  0
   -0.7787   10.7329   -6.9931 C   0  0  0  0  0  0  0  0  0  0  0  0
   -0.3444   11.8054   -6.2414 C   0  0  0  0  0  0  0  0  0  0  0  0
   -0.3609   13.0669   -6.8238 C   0  0  0  0  0  0  0  0  0  0  0  0
    0.1644   14.4483   -5.9448 Cl  0  0  0  0  0  0  0  0  0  0  0  0
   -0.8120   13.2061   -8.1385 C   0  0  0  0  0  0  0  0  0  0  0  0
   -0.8274   14.4238   -8.6936 F   0  0  0  0  0  0  0  0  0  0  0  0
   -1.2486   12.1322   -8.8985 C   0  0  0  0  0  0  0  0  0  0  0  0
   -1.2318   10.8742   -8.3154 C   0  0  0  0  0  0  0  0  0  0  0  0
   -1.6228    9.5611   -8.8252 C   0  0  0  0  0  0  0  0  0  0  0  0
   -2.1177    9.3231  -10.0819 C   0  0  0  0  0  0  0  0  0  0  0  0
   -2.3061   10.3248  -11.0582 C   0  0  0  0  0  0  0  0  0  0  0  0
   -2.4907   11.0887  -11.8950 N   0  0  0  0  0  0  0  0  0  0  0  0
   -2.5157    8.0711  -10.5956 C   0  0  0  0  0  0  0  0  0  0  0  0
   -2.8642    7.0973  -11.0960 N   0  0  0  0  0  0  0  0  0  0  0  0
    1.5320   -8.2704   10.3581 H   0  0  0  0  0  0  0  0  0  0  0  0
    5.1756   -3.3532    8.8576 H   0  0  0  0  0  0  0  0  0  0  0  0
    6.5636   -6.5327   12.4369 H   0  0  0  0  0  0  0  0  0  0  0  0
    2.7024   -7.4465    7.2456 H   0  0  0  0  0  0  0  0  0  0  0  0
   -1.9474   -5.7561    7.7463 H   0  0  0  0  0  0  0  0  0  0  0  0
   -0.7087   -6.6107    9.7008 H   0  0  0  0  0  0  0  0  0  0  0  0
   -2.6135   -4.6099    5.4507 H   0  0  0  0  0  0  0  0  0  0  0  0
   -2.6483   -3.5908    3.2043 H   0  0  0  0  0  0  0  0  0  0  0  0
    1.0171   -5.5536    2.1761 H   0  0  0  0  0  0  0  0  0  0  0  0
   -2.4273   -0.5700    1.9189 H   0  0  0  0  0  0  0  0  0  0  0  0
   -2.9789    1.8283    1.9689 H   0  0  0  0  0  0  0  0  0  0  0  0
   -0.2746    6.0629    2.9191 H   0  0  0  0  0  0  0  0  0  0  0  0
    0.2393    4.8566    4.1167 H   0  0  0  0  0  0  0  0  0  0  0  0
    0.7451    4.7004    2.4025 H   0  0  0  0  0  0  0  0  0  0  0  0
    0.8589    2.6635    3.6602 H   0  0  0  0  0  0  0  0  0  0  0  0
    1.4160    0.2947    3.5779 H   0  0  0  0  0  0  0  0  0  0  0  0
    2.0711   -2.9463    1.7724 H   0  0  0  0  0  0  0  0  0  0  0  0
    3.7153   -4.0444    3.1986 H   0  0  0  0  0  0  0  0  0  0  0  0
    4.3478   -5.9489    4.5483 H   0  0  0  0  0  0  0  0  0  0  0  0
    5.5391   -4.6042    4.4505 H   0  0  0  0  0  0  0  0  0  0  0  0
    5.6116   -5.7695    5.7872 H   0  0  0  0  0  0  0  0  0  0  0  0
    1.5424   -2.8048    6.6636 H   0  0  0  0  0  0  0  0  0  0  0  0
   -0.1129   -1.6708    5.2124 H   0  0  0  0  0  0  0  0  0  0  0  0
   -3.6531   -2.8620   -1.9277 H   0  0  0  0  0  0  0  0  0  0  0  0
   -5.0835   -4.8526   -1.6519 H   0  0  0  0  0  0  0  0  0  0  0  0
   -3.1968   -9.0512   -3.0700 H   0  0  0  0  0  0  0  0  0  0  0  0
   -4.1344   -8.6191   -4.5387 H   0  0  0  0  0  0  0  0  0  0  0  0
   -4.8358   -9.6941   -3.3105 H   0  0  0  0  0  0  0  0  0  0  0  0
   -2.4045   -7.1033   -4.1142 H   0  0  0  0  0  0  0  0  0  0  0  0
   -0.9860   -5.1390   -4.3689 H   0  0  0  0  0  0  0  0  0  0  0  0
   -2.5227   -3.1550   -5.6415 H   0  0  0  0  0  0  0  0  0  0  0  0
   -1.6261   -2.4490   -7.8300 H   0  0  0  0  0  0  0  0  0  0  0  0
    0.8726    1.2977   -9.1111 H   0  0  0  0  0  0  0  0  0  0  0  0
   -0.4605    0.9961   -7.9669 H   0  0  0  0  0  0  0  0  0  0  0  0
    1.2286    1.0452   -7.3853 H   0  0  0  0  0  0  0  0  0  0  0  0
    1.8928   -0.9774   -5.9218 H   0  0  0  0  0  0  0  0  0  0  0  0
    1.0215   -1.6975   -3.7389 H   0  0  0  0  0  0  0  0  0  0  0  0
   -0.0091    1.9688   -1.9235 H   0  0  0  0  0  0  0  0  0  0  0  0
   -1.0179    3.8913   -1.2636 H   0  0  0  0  0  0  0  0  0  0  0  0
    0.0971    5.2523   -0.9770 H   0  0  0  0  0  0  0  0  0  0  0  0
   -2.2625    5.9985   -0.7914 H   0  0  0  0  0  0  0  0  0  0  0  0
   -2.5979    5.4163   -2.4277 H   0  0  0  0  0  0  0  0  0  0  0  0
   -1.4877    6.7700   -2.1885 H   0  0  0  0  0  0  0  0  0  0  0  0
   -4.0582    3.2892   -7.4833 H   0  0  0  0  0  0  0  0  0  0  0  0
   -4.0851    1.7039   -8.3000 H   0  0  0  0  0  0  0  0  0  0  0  0
   -5.8552    1.8229   -6.5572 H   0  0  0  0  0  0  0  0  0  0  0  0
   -4.6433    2.2015   -5.3255 H   0  0  0  0  0  0  0  0  0  0  0  0
   -4.6369    0.6172   -6.1080 H   0  0  0  0  0  0  0  0  0  0  0  0
   -2.2924    4.6420   -8.1290 H   0  0  0  0  0  0  0  0  0  0  0  0
   -2.0642    6.8966   -8.7823 H   0  0  0  0  0  0  0  0  0  0  0  0
   -0.0024   11.6635   -5.2287 H   0  0  0  0  0  0  0  0  0  0  0  0
   -1.5836   12.3125   -9.9067 H   0  0  0  0  0  0  0  0  0  0  0  0
  1  2  2  0  0  0  0
  2  3  1  0  0  0  0
  3  4  2  0  0  0  0
  3  5  1  0  0  0  0
  5  6  2  0  0  0  0
  6  7  1  0  0  0  0
  7  8  1  0  0  0  0
  7  9  2  0  0  0  0
  9 10  1  0  0  0  0
  9 11  1  0  0  0  0
 11 12  2  0  0  0  0
 12 13  1  0  0  0  0
 13 14  2  0  0  0  0
 14 15  1  0  0  0  0
 15 16  3  0  0  0  0
 14 17  1  0  0  0  0
 17 18  3  0  0  0  0
  1 19  1  0  0  0  0
 19 20  2  0  0  0  0
 20 21  1  0  0  0  0
 21 22  1  0  0  0  0
 22 23  2  0  0  0  0
 22 24  1  0  0  0  0
 24 25  2  0  0  0  0
 25 26  1  0  0  0  0
 26 27  1  0  0  0  0
 27 28  2  0  0  0  0
 25 29  1  0  0  0  0
 29 30  2  0  0  0  0
 30 31  1  0  0  0  0
 31 32  2  0  0  0  0
 31 33  1  0  0  0  0
 33 34  2  0  0  0  0
 34 35  1  0  0  0  0
 35 36  1  0  0  0  0
 36 37  2  0  0  0  0
 37 38  1  0  0  0  0
 38 39  2  0  0  0  0
 39 40  1  0  0  0  0
 40 41  1  0  0  0  0
 39 42  1  0  0  0  0
 42 43  2  0  0  0  0
 35 44  1  0  0  0  0
 44 45  2  0  0  0  0
 45 46  1  0  0  0  0
 46 47  2  0  0  0  0
 47 48  1  0  0  0  0
 48 49  1  0  0  0  0
 47 50  1  0  0  0  0
 50 51  2  0  0  0  0
 34 52  1  0  0  0  0
 52 53  1  0  0  0  0
 53 54  1  0  0  0  0
 54 55  2  0  0  0  0
 55 56  1  0  0  0  0
 56 57  1  0  0  0  0
 57 58  2  0  0  0  0
 58 59  1  0  0  0  0
 59 60  2  0  0  0  0
 60 61  1  0  0  0  0
 61 62  1  0  0  0  0
 60 63  1  0  0  0  0
 63 64  2  0  0  0  0
 56 65  1  0  0  0  0
 65 66  2  0  0  0  0
 66 67  1  0  0  0  0
 67 68  2  0  0  0  0
 68 69  1  0  0  0  0
 69 70  1  0  0  0  0
 68 71  1  0  0  0  0
 71 72  2  0  0  0  0
 55 73  1  0  0  0  0
 73 74  1  0  0  0  0
 54 75  1  0  0  0  0
 75 76  2  0  0  0  0
 76 77  1  0  0  0  0
 77 78  2  0  0  0  0
 78 79  1  0  0  0  0
 79 80  1  0  0  0  0
 80 81  1  0  0  0  0
 78 82  1  0  0  0  0
 82 83  2  0  0  0  0
 83 84  1  0  0  0  0
 84 85  1  0  0  0  0
 85 86  1  0  0  0  0
 86 87  1  0  0  0  0
 84 88  2  0  0  0  0
 88 89  1  0  0  0  0
 83 90  1  0  0  0  0
 90 91  2  0  0  0  0
 91 92  1  0  0  0  0
 91 93  1  0  0  0  0
 93 94  2  0  0  0  0
 94 95  1  0  0  0  0
 95 96  2  0  0  0  0
 95 97  1  0  0  0  0
 97 98  2  0  0  0  0
 98 99  1  0  0  0  0
 99100  1  0  0  0  0
 99101  2  0  0  0  0
101102  1  0  0  0  0
101103  1  0  0  0  0
103104  2  0  0  0  0
104105  1  0  0  0  0
105106  2  0  0  0  0
106107  1  0  0  0  0
107108  3  0  0  0  0
106109  1  0  0  0  0
109110  3  0  0  0  0
 13  2  1  0  0  0  0
 28 19  1  0  0  0  0
 74 33  1  0  0  0  0
 89 75  1  0  0  0  0
105 94  1  0  0  0  0
 12  5  1  0  0  0  0
 26 21  2  0  0  0  0
 43 36  1  0  0  0  0
 51 44  1  0  0  0  0
 73 52  2  0  0  0  0
 88 77  1  0  0  0  0
104 97  1  0  0  0  0
 32 24  1  0  0  0  0
 64 57  1  0  0  0  0
 72 65  1  0  0  0  0
 92 82  1  0  0  0  0
  1111  1  0  0  0  0
  6112  1  0  0  0  0
 11113  1  0  0  0  0
 20114  1  0  0  0  0
 27115  1  0  0  0  0
 28116  1  0  0  0  0
 29117  1  0  0  0  0
 30118  1  0  0  0  0
 32119  1  0  0  0  0
 37120  1  0  0  0  0
 38121  1  0  0  0  0
 41122  1  0  0  0  0
 41123  1  0  0  0  0
 41124  1  0  0  0  0
 42125  1  0  0  0  0
 43126  1  0  0  0  0
 45127  1  0  0  0  0
 46128  1  0  0  0  0
 49129  1  0  0  0  0
 49130  1  0  0  0  0
 49131  1  0  0  0  0
 50132  1  0  0  0  0
 51133  1  0  0  0  0
 58134  1  0  0  0  0
 59135  1  0  0  0  0
 62136  1  0  0  0  0
 62137  1  0  0  0  0
 62138  1  0  0  0  0
 63139  1  0  0  0  0
 64140  1  0  0  0  0
 66141  1  0  0  0  0
 67142  1  0  0  0  0
 70143  1  0  0  0  0
 70144  1  0  0  0  0
 70145  1  0  0  0  0
 71146  1  0  0  0  0
 72147  1  0  0  0  0
 76148  1  0  0  0  0
 80149  1  0  0  0  0
 80150  1  0  0  0  0
 81151  1  0  0  0  0
 81152  1  0  0  0  0
 81153  1  0  0  0  0
 86154  1  0  0  0  0
 86155  1  0  0  0  0
 87156  1  0  0  0  0
 87157  1  0  0  0  0
 87158  1  0  0  0  0
 90159  1  0  0  0  0
 93160  1  0  0  0  0
 98161  1  0  0  0  0
103162  1  0  0  0  0
M  END
