
  xtb     02112202273D
 energy: -320.729708263819 gnorm: 0.000530241023 xtb: 6.4.1 (unknown)
174191  0     0  0            999 V2000
    0.8453   11.6498   -4.8176 C   0  0  0  0  0  0  0  0  0  0  0  0
    2.0043   11.8445   -5.4869 C   0  0  0  0  0  0  0  0  0  0  0  0
    2.0283   12.7264   -6.6895 C   0  0  0  0  0  0  0  0  0  0  0  0
    1.1716   13.5028   -7.0354 O   0  0  0  0  0  0  0  0  0  0  0  0
    3.2956   12.3982   -7.3790 C   0  0  0  0  0  0  0  0  0  0  0  0
    3.7479   12.8454   -8.6047 C   0  0  0  0  0  0  0  0  0  0  0  0
    4.9712   12.3768   -9.0682 C   0  0  0  0  0  0  0  0  0  0  0  0
    5.5933   12.8953  -10.5842 Cl  0  0  0  0  0  0  0  0  0  0  0  0
    5.6994   11.4716   -8.2895 C   0  0  0  0  0  0  0  0  0  0  0  0
    6.8676   11.0144   -8.7512 F   0  0  0  0  0  0  0  0  0  0  0  0
    5.2584   11.0254   -7.0542 C   0  0  0  0  0  0  0  0  0  0  0  0
    4.0406   11.5001   -6.5919 C   0  0  0  0  0  0  0  0  0  0  0  0
    3.3296   11.2617   -5.3394 C   0  0  0  0  0  0  0  0  0  0  0  0
    3.8983   10.8090   -4.1816 C   0  0  0  0  0  0  0  0  0  0  0  0
    3.2643   10.8403   -2.9204 C   0  0  0  0  0  0  0  0  0  0  0  0
    2.8367   10.9070   -1.8578 N   0  0  0  0  0  0  0  0  0  0  0  0
    5.2306   10.3503   -4.0907 C   0  0  0  0  0  0  0  0  0  0  0  0
    6.3044    9.9660   -3.9697 N   0  0  0  0  0  0  0  0  0  0  0  0
    0.5375   10.6152   -3.8619 C   0  0  0  0  0  0  0  0  0  0  0  0
    1.0951    9.3311   -3.9846 C   0  0  0  0  0  0  0  0  0  0  0  0
    0.7820    8.3833   -3.0449 C   0  0  0  0  0  0  0  0  0  0  0  0
    1.2424    6.9721   -2.9523 C   0  0  0  0  0  0  0  0  0  0  0  0
    1.9944    6.3912   -3.6971 O   0  0  0  0  0  0  0  0  0  0  0  0
    0.5607    6.4464   -1.7425 C   0  0  0  0  0  0  0  0  0  0  0  0
   -0.2090    7.4692   -1.1518 C   0  0  0  0  0  0  0  0  0  0  0  0
   -0.0735    8.6714   -1.9620 C   0  0  0  0  0  0  0  0  0  0  0  0
   -0.6478    9.9249   -1.8540 C   0  0  0  0  0  0  0  0  0  0  0  0
   -0.3522   10.8776   -2.8158 C   0  0  0  0  0  0  0  0  0  0  0  0
   -0.9280    7.2098   -0.0003 C   0  0  0  0  0  0  0  0  0  0  0  0
   -0.9457    5.9141    0.4959 C   0  0  0  0  0  0  0  0  0  0  0  0
   -0.2590    4.8789   -0.1382 C   0  0  0  0  0  0  0  0  0  0  0  0
    0.5634    5.1697   -1.2404 C   0  0  0  0  0  0  0  0  0  0  0  0
   -0.4452    3.5009    0.2632 C   0  0  0  0  0  0  0  0  0  0  0  0
   -0.6170    2.4126   -0.5760 C   0  0  0  0  0  0  0  0  0  0  0  0
   -0.6822    2.4277   -1.9590 N   0  0  0  0  0  0  0  0  0  0  0  0
   -1.1664    3.5345   -2.6647 C   0  0  0  0  0  0  0  0  0  0  0  0
   -2.2250    4.2928   -2.1702 C   0  0  0  0  0  0  0  0  0  0  0  0
   -2.5986    5.4700   -2.7869 C   0  0  0  0  0  0  0  0  0  0  0  0
   -1.9278    5.9013   -3.9232 C   0  0  0  0  0  0  0  0  0  0  0  0
   -2.2365    7.4422   -4.7303 S   0  0  0  0  0  0  0  0  0  0  0  0
   -3.3782    8.2959   -3.6059 C   0  0  0  0  0  0  0  0  0  0  0  0
   -0.9361    5.0954   -4.4784 C   0  0  0  0  0  0  0  0  0  0  0  0
   -0.5585    3.9261   -3.8591 C   0  0  0  0  0  0  0  0  0  0  0  0
   -0.2111    1.2951   -2.6481 C   0  0  0  0  0  0  0  0  0  0  0  0
   -0.9393    0.7562   -3.7035 C   0  0  0  0  0  0  0  0  0  0  0  0
   -0.5236   -0.4075   -4.3201 C   0  0  0  0  0  0  0  0  0  0  0  0
    0.6252   -1.0561   -3.8840 C   0  0  0  0  0  0  0  0  0  0  0  0
    1.2118   -2.5758   -4.5585 S   0  0  0  0  0  0  0  0  0  0  0  0
   -0.2090   -3.2072   -5.4945 C   0  0  0  0  0  0  0  0  0  0  0  0
    1.3832   -0.4921   -2.8608 C   0  0  0  0  0  0  0  0  0  0  0  0
    0.9742    0.6736   -2.2533 C   0  0  0  0  0  0  0  0  0  0  0  0
   -0.7533    1.2189    0.1785 C   0  0  0  0  0  0  0  0  0  0  0  0
   -0.9475   -0.4443   -0.2350 S   0  0  0  0  0  0  0  0  0  0  0  0
   -0.8942   -0.8998    1.4600 C   0  0  0  0  0  0  0  0  0  0  0  0
   -0.7877    0.1926    2.2980 C   0  0  0  0  0  0  0  0  0  0  0  0
   -0.6246    0.1491    3.6808 N   0  0  0  0  0  0  0  0  0  0  0  0
   -1.6262   -0.3288    4.5247 C   0  0  0  0  0  0  0  0  0  0  0  0
   -2.9654   -0.3100    4.1422 C   0  0  0  0  0  0  0  0  0  0  0  0
   -3.9588   -0.6422    5.0441 C   0  0  0  0  0  0  0  0  0  0  0  0
   -3.6283   -0.9915    6.3455 C   0  0  0  0  0  0  0  0  0  0  0  0
   -4.8190   -1.2721    7.6220 S   0  0  0  0  0  0  0  0  0  0  0  0
   -6.3161   -0.4702    6.9787 C   0  0  0  0  0  0  0  0  0  0  0  0
   -2.2863   -1.1103    6.7013 C   0  0  0  0  0  0  0  0  0  0  0  0
   -1.2968   -0.7907    5.8013 C   0  0  0  0  0  0  0  0  0  0  0  0
    0.4311    0.9246    4.1917 C   0  0  0  0  0  0  0  0  0  0  0  0
    1.6651    0.9094    3.5395 C   0  0  0  0  0  0  0  0  0  0  0  0
    2.7013    1.6939    3.9919 C   0  0  0  0  0  0  0  0  0  0  0  0
    2.5362    2.5075    5.1115 C   0  0  0  0  0  0  0  0  0  0  0  0
    3.9358    3.4656    5.5975 S   0  0  0  0  0  0  0  0  0  0  0  0
    3.3484    4.4054    7.0352 C   0  0  0  0  0  0  0  0  0  0  0  0
    1.3125    2.5209    5.7669 C   0  0  0  0  0  0  0  0  0  0  0  0
    0.2693    1.7420    5.3058 C   0  0  0  0  0  0  0  0  0  0  0  0
   -0.7068    1.3971    1.5494 C   0  0  0  0  0  0  0  0  0  0  0  0
   -0.5347    3.0667    1.9630 S   0  0  0  0  0  0  0  0  0  0  0  0
   -0.7176   -2.3000    1.7185 C   0  0  0  0  0  0  0  0  0  0  0  0
   -1.2564   -3.1591    2.6265 C   0  0  0  0  0  0  0  0  0  0  0  0
   -0.7488   -4.4812    2.5139 C   0  0  0  0  0  0  0  0  0  0  0  0
   -1.1244   -5.6313    3.2350 C   0  0  0  0  0  0  0  0  0  0  0  0
   -2.2673   -5.6608    4.1325 C   0  0  0  0  0  0  0  0  0  0  0  0
   -2.4940   -4.5473    5.4506 S   0  0  0  0  0  0  0  0  0  0  0  0
   -3.9673   -5.3099    5.9457 C   0  0  0  0  0  0  0  0  0  0  0  0
   -4.7764   -4.7982    7.0854 C   0  0  0  0  0  0  0  0  0  0  0  0
   -6.0952   -4.2018    6.5902 C   0  0  0  0  0  0  0  0  0  0  0  0
   -4.2606   -6.3522    5.1182 C   0  0  0  0  0  0  0  0  0  0  0  0
   -5.6312   -7.3663    5.3003 Cl  0  0  0  0  0  0  0  0  0  0  0  0
   -3.3091   -6.5499    4.0847 C   0  0  0  0  0  0  0  0  0  0  0  0
   -3.5388   -7.7220    2.8533 Cl  0  0  0  0  0  0  0  0  0  0  0  0
   -0.4020   -6.7931    2.9839 C   0  0  0  0  0  0  0  0  0  0  0  0
    0.6193   -6.8768    2.0008 C   0  0  0  0  0  0  0  0  0  0  0  0
    0.9332   -5.7524    1.2073 C   0  0  0  0  0  0  0  0  0  0  0  0
    1.9163   -5.8256    0.1493 C   0  0  0  0  0  0  0  0  0  0  0  0
    3.1324   -6.4560    0.1566 C   0  0  0  0  0  0  0  0  0  0  0  0
    3.8216   -6.3488   -1.0642 C   0  0  0  0  0  0  0  0  0  0  0  0
    3.1380   -5.6477   -2.0130 C   0  0  0  0  0  0  0  0  0  0  0  0
    3.5777   -5.2983   -3.3914 C   0  0  0  0  0  0  0  0  0  0  0  0
    4.3604   -3.9832   -3.3930 C   0  0  0  0  0  0  0  0  0  0  0  0
    1.6252   -5.0814   -1.3992 S   0  0  0  0  0  0  0  0  0  0  0  0
    0.2280   -4.5915    1.4915 C   0  0  0  0  0  0  0  0  0  0  0  0
    0.4455   -3.0830    0.6631 S   0  0  0  0  0  0  0  0  0  0  0  0
    1.1365   -8.1780    1.8890 C   0  0  0  0  0  0  0  0  0  0  0  0
    0.5802   -9.0787    2.7655 C   0  0  0  0  0  0  0  0  0  0  0  0
   -0.6002   -8.3087    3.8093 S   0  0  0  0  0  0  0  0  0  0  0  0
    0.8696  -10.4518    2.9268 C   0  0  0  0  0  0  0  0  0  0  0  0
    1.5072  -11.2999    2.0690 C   0  0  0  0  0  0  0  0  0  0  0  0
    2.0728  -12.5661    2.6051 C   0  0  0  0  0  0  0  0  0  0  0  0
    1.8501  -13.0657    3.6821 O   0  0  0  0  0  0  0  0  0  0  0  0
    3.0057  -13.0456    1.5588 C   0  0  0  0  0  0  0  0  0  0  0  0
    3.8669  -14.1230    1.6018 C   0  0  0  0  0  0  0  0  0  0  0  0
    4.6788  -14.3636    0.4993 C   0  0  0  0  0  0  0  0  0  0  0  0
    5.7753  -15.6882    0.4887 Cl  0  0  0  0  0  0  0  0  0  0  0  0
    4.6000  -13.5158   -0.6082 C   0  0  0  0  0  0  0  0  0  0  0  0
    5.3951  -13.7447   -1.6601 F   0  0  0  0  0  0  0  0  0  0  0  0
    3.7294  -12.4386   -0.6640 C   0  0  0  0  0  0  0  0  0  0  0  0
    2.9203  -12.2030    0.4360 C   0  0  0  0  0  0  0  0  0  0  0  0
    1.8863  -11.1970    0.6757 C   0  0  0  0  0  0  0  0  0  0  0  0
    1.2515  -10.4835   -0.3079 C   0  0  0  0  0  0  0  0  0  0  0  0
    0.0640   -9.7470   -0.1152 C   0  0  0  0  0  0  0  0  0  0  0  0
   -0.9255   -9.1708   -0.0379 N   0  0  0  0  0  0  0  0  0  0  0  0
    1.6727  -10.4440   -1.6526 C   0  0  0  0  0  0  0  0  0  0  0  0
    1.9923  -10.3366   -2.7499 N   0  0  0  0  0  0  0  0  0  0  0  0
    0.0397   12.3301   -5.0758 H   0  0  0  0  0  0  0  0  0  0  0  0
    3.1642   13.5417   -9.1854 H   0  0  0  0  0  0  0  0  0  0  0  0
    5.8630   10.3236   -6.5027 H   0  0  0  0  0  0  0  0  0  0  0  0
    1.7300    9.0787   -4.8207 H   0  0  0  0  0  0  0  0  0  0  0  0
   -1.3141   10.1650   -1.0390 H   0  0  0  0  0  0  0  0  0  0  0  0
   -0.7863   11.8638   -2.7396 H   0  0  0  0  0  0  0  0  0  0  0  0
   -1.4915    7.9871    0.4938 H   0  0  0  0  0  0  0  0  0  0  0  0
   -1.5369    5.6834    1.3706 H   0  0  0  0  0  0  0  0  0  0  0  0
    1.1798    4.4071   -1.6894 H   0  0  0  0  0  0  0  0  0  0  0  0
   -2.7440    3.9705   -1.2799 H   0  0  0  0  0  0  0  0  0  0  0  0
   -3.4095    6.0422   -2.3664 H   0  0  0  0  0  0  0  0  0  0  0  0
   -4.3443    7.7996   -3.6036 H   0  0  0  0  0  0  0  0  0  0  0  0
   -3.4823    9.3004   -4.0038 H   0  0  0  0  0  0  0  0  0  0  0  0
   -2.9479    8.3345   -2.6097 H   0  0  0  0  0  0  0  0  0  0  0  0
   -0.4400    5.4164   -5.3809 H   0  0  0  0  0  0  0  0  0  0  0  0
    0.2395    3.3299   -4.2745 H   0  0  0  0  0  0  0  0  0  0  0  0
   -1.8436    1.2476   -4.0312 H   0  0  0  0  0  0  0  0  0  0  0  0
   -1.1124   -0.8057   -5.1306 H   0  0  0  0  0  0  0  0  0  0  0  0
    0.0517   -4.2224   -5.7772 H   0  0  0  0  0  0  0  0  0  0  0  0
   -0.3715   -2.6098   -6.3872 H   0  0  0  0  0  0  0  0  0  0  0  0
   -1.0877   -3.2155   -4.8568 H   0  0  0  0  0  0  0  0  0  0  0  0
    2.2890   -0.9835   -2.5417 H   0  0  0  0  0  0  0  0  0  0  0  0
    1.5635    1.1030   -1.4563 H   0  0  0  0  0  0  0  0  0  0  0  0
   -3.2323   -0.0008    3.1421 H   0  0  0  0  0  0  0  0  0  0  0  0
   -4.9882   -0.5951    4.7258 H   0  0  0  0  0  0  0  0  0  0  0  0
   -7.0065   -0.4222    7.8150 H   0  0  0  0  0  0  0  0  0  0  0  0
   -6.0726    0.5320    6.6396 H   0  0  0  0  0  0  0  0  0  0  0  0
   -6.7535   -1.0609    6.1789 H   0  0  0  0  0  0  0  0  0  0  0  0
   -2.0331   -1.4347    7.6986 H   0  0  0  0  0  0  0  0  0  0  0  0
   -0.2589   -0.8638    6.0871 H   0  0  0  0  0  0  0  0  0  0  0  0
    1.8038    0.2764    2.6753 H   0  0  0  0  0  0  0  0  0  0  0  0
    3.6547    1.6843    3.4864 H   0  0  0  0  0  0  0  0  0  0  0  0
    3.0668    3.7266    7.8350 H   0  0  0  0  0  0  0  0  0  0  0  0
    4.1911    5.0135    7.3489 H   0  0  0  0  0  0  0  0  0  0  0  0
    2.5196    5.0454    6.7472 H   0  0  0  0  0  0  0  0  0  0  0  0
    1.1495    3.1434    6.6316 H   0  0  0  0  0  0  0  0  0  0  0  0
   -0.6839    1.7772    5.8116 H   0  0  0  0  0  0  0  0  0  0  0  0
   -1.9988   -2.8665    3.3464 H   0  0  0  0  0  0  0  0  0  0  0  0
   -4.2072   -4.0367    7.6192 H   0  0  0  0  0  0  0  0  0  0  0  0
   -4.9899   -5.6205    7.7725 H   0  0  0  0  0  0  0  0  0  0  0  0
   -5.8981   -3.4338    5.8465 H   0  0  0  0  0  0  0  0  0  0  0  0
   -6.6347   -3.7587    7.4224 H   0  0  0  0  0  0  0  0  0  0  0  0
   -6.7156   -4.9692    6.1370 H   0  0  0  0  0  0  0  0  0  0  0  0
    3.5450   -6.9326    1.0287 H   0  0  0  0  0  0  0  0  0  0  0  0
    4.7914   -6.7809   -1.2373 H   0  0  0  0  0  0  0  0  0  0  0  0
    4.2073   -6.1013   -3.7802 H   0  0  0  0  0  0  0  0  0  0  0  0
    2.7070   -5.1911   -4.0398 H   0  0  0  0  0  0  0  0  0  0  0  0
    5.2327   -4.0571   -2.7478 H   0  0  0  0  0  0  0  0  0  0  0  0
    4.6867   -3.7443   -4.4012 H   0  0  0  0  0  0  0  0  0  0  0  0
    3.7269   -3.1750   -3.0370 H   0  0  0  0  0  0  0  0  0  0  0  0
    1.9158   -8.4406    1.1985 H   0  0  0  0  0  0  0  0  0  0  0  0
    0.6093  -10.8859    3.8872 H   0  0  0  0  0  0  0  0  0  0  0  0
    3.9065  -14.7609    2.4703 H   0  0  0  0  0  0  0  0  0  0  0  0
    3.7167  -11.8207   -1.5472 H   0  0  0  0  0  0  0  0  0  0  0  0
  1  2  2  0  0  0  0
  2  3  1  0  0  0  0
  3  4  2  0  0  0  0
  3  5  1  0  0  0  0
  5  6  2  0  0  0  0
  6  7  1  0  0  0  0
  7  8  1  0  0  0  0
  7  9  2  0  0  0  0
  9 10  1  0  0  0  0
  9 11  1  0  0  0  0
 11 12  2  0  0  0  0
 12 13  1  0  0  0  0
 13 14  2  0  0  0  0
 14 15  1  0  0  0  0
 15 16  3  0  0  0  0
 14 17  1  0  0  0  0
 17 18  3  0  0  0  0
  1 19  1  0  0  0  0
 19 20  2  0  0  0  0
 20 21  1  0  0  0  0
 21 22  1  0  0  0  0
 22 23  2  0  0  0  0
 22 24  1  0  0  0  0
 24 25  2  0  0  0  0
 25 26  1  0  0  0  0
 26 27  1  0  0  0  0
 27 28  2  0  0  0  0
 25 29  1  0  0  0  0
 29 30  2  0  0  0  0
 30 31  1  0  0  0  0
 31 32  2  0  0  0  0
 31 33  1  0  0  0  0
 33 34  2  0  0  0  0
 34 35  1  0  0  0  0
 35 36  1  0  0  0  0
 36 37  2  0  0  0  0
 37 38  1  0  0  0  0
 38 39  2  0  0  0  0
 39 40  1  0  0  0  0
 40 41  1  0  0  0  0
 39 42  1  0  0  0  0
 42 43  2  0  0  0  0
 35 44  1  0  0  0  0
 44 45  2  0  0  0  0
 45 46  1  0  0  0  0
 46 47  2  0  0  0  0
 47 48  1  0  0  0  0
 48 49  1  0  0  0  0
 47 50  1  0  0  0  0
 50 51  2  0  0  0  0
 34 52  1  0  0  0  0
 52 53  1  0  0  0  0
 53 54  1  0  0  0  0
 54 55  2  0  0  0  0
 55 56  1  0  0  0  0
 56 57  1  0  0  0  0
 57 58  2  0  0  0  0
 58 59  1  0  0  0  0
 59 60  2  0  0  0  0
 60 61  1  0  0  0  0
 61 62  1  0  0  0  0
 60 63  1  0  0  0  0
 63 64  2  0  0  0  0
 56 65  1  0  0  0  0
 65 66  2  0  0  0  0
 66 67  1  0  0  0  0
 67 68  2  0  0  0  0
 68 69  1  0  0  0  0
 69 70  1  0  0  0  0
 68 71  1  0  0  0  0
 71 72  2  0  0  0  0
 55 73  1  0  0  0  0
 73 74  1  0  0  0  0
 54 75  1  0  0  0  0
 75 76  2  0  0  0  0
 76 77  1  0  0  0  0
 77 78  2  0  0  0  0
 78 79  1  0  0  0  0
 79 80  1  0  0  0  0
 80 81  1  0  0  0  0
 81 82  1  0  0  0  0
 82 83  1  0  0  0  0
 81 84  2  0  0  0  0
 84 85  1  0  0  0  0
 84 86  1  0  0  0  0
 86 87  1  0  0  0  0
 78 88  1  0  0  0  0
 88 89  2  0  0  0  0
 89 90  1  0  0  0  0
 90 91  1  0  0  0  0
 91 92  2  0  0  0  0
 92 93  1  0  0  0  0
 93 94  2  0  0  0  0
 94 95  1  0  0  0  0
 95 96  1  0  0  0  0
 94 97  1  0  0  0  0
 90 98  2  0  0  0  0
 98 99  1  0  0  0  0
 89100  1  0  0  0  0
100101  2  0  0  0  0
101102  1  0  0  0  0
101103  1  0  0  0  0
103104  2  0  0  0  0
104105  1  0  0  0  0
105106  2  0  0  0  0
105107  1  0  0  0  0
107108  2  0  0  0  0
108109  1  0  0  0  0
109110  1  0  0  0  0
109111  2  0  0  0  0
111112  1  0  0  0  0
111113  1  0  0  0  0
113114  2  0  0  0  0
114115  1  0  0  0  0
115116  2  0  0  0  0
116117  1  0  0  0  0
117118  3  0  0  0  0
116119  1  0  0  0  0
119120  3  0  0  0  0
 13  2  1  0  0  0  0
 28 19  1  0  0  0  0
 74 33  1  0  0  0  0
 99 75  1  0  0  0  0
115104  1  0  0  0  0
 12  5  1  0  0  0  0
 26 21  2  0  0  0  0
 43 36  1  0  0  0  0
 51 44  1  0  0  0  0
 73 52  2  0  0  0  0
 98 77  1  0  0  0  0
114107  1  0  0  0  0
 32 24  1  0  0  0  0
 64 57  1  0  0  0  0
 72 65  1  0  0  0  0
 86 79  2  0  0  0  0
102 88  1  0  0  0  0
 97 91  1  0  0  0  0
  1121  1  0  0  0  0
  6122  1  0  0  0  0
 11123  1  0  0  0  0
 20124  1  0  0  0  0
 27125  1  0  0  0  0
 28126  1  0  0  0  0
 29127  1  0  0  0  0
 30128  1  0  0  0  0
 32129  1  0  0  0  0
 37130  1  0  0  0  0
 38131  1  0  0  0  0
 41132  1  0  0  0  0
 41133  1  0  0  0  0
 41134  1  0  0  0  0
 42135  1  0  0  0  0
 43136  1  0  0  0  0
 45137  1  0  0  0  0
 46138  1  0  0  0  0
 49139  1  0  0  0  0
 49140  1  0  0  0  0
 49141  1  0  0  0  0
 50142  1  0  0  0  0
 51143  1  0  0  0  0
 58144  1  0  0  0  0
 59145  1  0  0  0  0
 62146  1  0  0  0  0
 62147  1  0  0  0  0
 62148  1  0  0  0  0
 63149  1  0  0  0  0
 64150  1  0  0  0  0
 66151  1  0  0  0  0
 67152  1  0  0  0  0
 70153  1  0  0  0  0
 70154  1  0  0  0  0
 70155  1  0  0  0  0
 71156  1  0  0  0  0
 72157  1  0  0  0  0
 76158  1  0  0  0  0
 82159  1  0  0  0  0
 82160  1  0  0  0  0
 83161  1  0  0  0  0
 83162  1  0  0  0  0
 83163  1  0  0  0  0
 92164  1  0  0  0  0
 93165  1  0  0  0  0
 95166  1  0  0  0  0
 95167  1  0  0  0  0
 96168  1  0  0  0  0
 96169  1  0  0  0  0
 96170  1  0  0  0  0
100171  1  0  0  0  0
103172  1  0  0  0  0
108173  1  0  0  0  0
113174  1  0  0  0  0
M  END
