
  xtb     02112200513D
 energy: -285.979419494753 gnorm: 0.000629293781 xtb: 6.4.1 (unknown)
136150  0     0  0            999 V2000
   10.6422   -4.1622    2.1850 C   0  0  0  0  0  0  0  0  0  0  0  0
   11.9274   -4.5809    2.0145 C   0  0  0  0  0  0  0  0  0  0  0  0
   12.5942   -5.1217    0.8011 C   0  0  0  0  0  0  0  0  0  0  0  0
   12.2020   -5.1444   -0.3436 O   0  0  0  0  0  0  0  0  0  0  0  0
   13.8770   -5.6872    1.2735 C   0  0  0  0  0  0  0  0  0  0  0  0
   14.8304   -6.3525    0.5287 C   0  0  0  0  0  0  0  0  0  0  0  0
   15.9716   -6.8086    1.1760 C   0  0  0  0  0  0  0  0  0  0  0  0
   17.2011   -7.6416    0.3114 Cl  0  0  0  0  0  0  0  0  0  0  0  0
   16.1142   -6.5839    2.5489 C   0  0  0  0  0  0  0  0  0  0  0  0
   17.2116   -7.0322    3.1675 F   0  0  0  0  0  0  0  0  0  0  0  0
   15.1628   -5.9144    3.3009 C   0  0  0  0  0  0  0  0  0  0  0  0
   14.0261   -5.4565    2.6502 C   0  0  0  0  0  0  0  0  0  0  0  0
   12.8639   -4.7188    3.1297 C   0  0  0  0  0  0  0  0  0  0  0  0
   12.7359   -4.1866    4.3833 C   0  0  0  0  0  0  0  0  0  0  0  0
   11.6746   -3.3750    4.8436 C   0  0  0  0  0  0  0  0  0  0  0  0
   10.8767   -2.6890    5.3032 N   0  0  0  0  0  0  0  0  0  0  0  0
   13.6963   -4.3450    5.4078 C   0  0  0  0  0  0  0  0  0  0  0  0
   14.4289   -4.4408    6.2853 N   0  0  0  0  0  0  0  0  0  0  0  0
    9.5597   -3.8946    1.2814 C   0  0  0  0  0  0  0  0  0  0  0  0
    8.2827   -3.7356    1.8666 C   0  0  0  0  0  0  0  0  0  0  0  0
    7.2097   -3.4396    1.0680 C   0  0  0  0  0  0  0  0  0  0  0  0
    5.7851   -3.2160    1.4482 C   0  0  0  0  0  0  0  0  0  0  0  0
    5.3070   -3.2522    2.5546 O   0  0  0  0  0  0  0  0  0  0  0  0
    5.1098   -2.8985    0.1617 C   0  0  0  0  0  0  0  0  0  0  0  0
    6.0551   -2.9236   -0.8834 C   0  0  0  0  0  0  0  0  0  0  0  0
    7.3555   -3.2666   -0.3250 C   0  0  0  0  0  0  0  0  0  0  0  0
    8.6032   -3.4056   -0.9056 C   0  0  0  0  0  0  0  0  0  0  0  0
    9.6900   -3.7176   -0.1039 C   0  0  0  0  0  0  0  0  0  0  0  0
    5.6604   -2.6230   -2.1732 C   0  0  0  0  0  0  0  0  0  0  0  0
    4.3367   -2.2698   -2.3969 C   0  0  0  0  0  0  0  0  0  0  0  0
    3.3981   -2.2282   -1.3642 C   0  0  0  0  0  0  0  0  0  0  0  0
    3.7920   -2.5748   -0.0642 C   0  0  0  0  0  0  0  0  0  0  0  0
    2.0348   -1.7681   -1.6448 C   0  0  0  0  0  0  0  0  0  0  0  0
    1.3642   -0.9097   -0.7320 C   0  0  0  0  0  0  0  0  0  0  0  0
    1.9484   -0.5791    0.4313 N   0  0  0  0  0  0  0  0  0  0  0  0
    1.3269    0.2039    1.2713 C   0  0  0  0  0  0  0  0  0  0  0  0
    1.9958    0.4648    2.5576 C   0  0  0  0  0  0  0  0  0  0  0  0
    2.1810    1.7418    3.0820 C   0  0  0  0  0  0  0  0  0  0  0  0
    2.7532    1.9350    4.3243 C   0  0  0  0  0  0  0  0  0  0  0  0
    3.1830    0.8632    5.1286 C   0  0  0  0  0  0  0  0  0  0  0  0
    3.7104    1.1968    6.3073 O   0  0  0  0  0  0  0  0  0  0  0  0
    4.2347    0.2070    7.1929 C   0  0  0  0  0  0  0  0  0  0  0  0
    4.8087    0.9467    8.3886 C   0  0  0  0  0  0  0  0  0  0  0  0
    2.9970   -0.4185    4.5954 C   0  0  0  0  0  0  0  0  0  0  0  0
    2.4249   -0.6027    3.3429 C   0  0  0  0  0  0  0  0  0  0  0  0
    2.2326   -1.8487    2.9133 F   0  0  0  0  0  0  0  0  0  0  0  0
    3.3448   -1.5158    5.2892 F   0  0  0  0  0  0  0  0  0  0  0  0
    2.8969    3.1832    4.7971 F   0  0  0  0  0  0  0  0  0  0  0  0
    1.8127    2.8188    2.3653 F   0  0  0  0  0  0  0  0  0  0  0  0
    0.0365    0.7297    0.9545 C   0  0  0  0  0  0  0  0  0  0  0  0
   -0.6686    1.6526    1.8598 C   0  0  0  0  0  0  0  0  0  0  0  0
   -0.8364    1.4078    3.2170 C   0  0  0  0  0  0  0  0  0  0  0  0
   -0.4689    0.2237    3.7353 F   0  0  0  0  0  0  0  0  0  0  0  0
   -1.4025    2.3370    4.0798 C   0  0  0  0  0  0  0  0  0  0  0  0
   -1.5078    1.9838    5.3769 F   0  0  0  0  0  0  0  0  0  0  0  0
   -1.8393    3.5855    3.6230 C   0  0  0  0  0  0  0  0  0  0  0  0
   -2.3956    4.5798    4.3209 O   0  0  0  0  0  0  0  0  0  0  0  0
   -2.2813    4.6557    5.7404 C   0  0  0  0  0  0  0  0  0  0  0  0
   -0.8507    4.9232    6.1883 C   0  0  0  0  0  0  0  0  0  0  0  0
   -1.7102    3.8075    2.2391 C   0  0  0  0  0  0  0  0  0  0  0  0
   -2.1390    4.9768    1.7470 F   0  0  0  0  0  0  0  0  0  0  0  0
   -1.1491    2.8756    1.3866 C   0  0  0  0  0  0  0  0  0  0  0  0
   -1.0223    3.1822    0.0935 F   0  0  0  0  0  0  0  0  0  0  0  0
   -0.5378    0.4385   -0.1821 N   0  0  0  0  0  0  0  0  0  0  0  0
    0.0858   -0.3722   -1.0541 C   0  0  0  0  0  0  0  0  0  0  0  0
   -0.5496   -0.7191   -2.2758 C   0  0  0  0  0  0  0  0  0  0  0  0
    0.1067   -1.5972   -3.1126 C   0  0  0  0  0  0  0  0  0  0  0  0
    1.3750   -2.0982   -2.8109 C   0  0  0  0  0  0  0  0  0  0  0  0
   -1.8655   -0.1696   -2.6137 C   0  0  0  0  0  0  0  0  0  0  0  0
   -2.8491   -1.0020   -3.1635 C   0  0  0  0  0  0  0  0  0  0  0  0
   -4.0845   -0.4671   -3.4493 C   0  0  0  0  0  0  0  0  0  0  0  0
   -5.2908   -1.1339   -4.0071 C   0  0  0  0  0  0  0  0  0  0  0  0
   -5.4148   -2.2880   -4.3398 O   0  0  0  0  0  0  0  0  0  0  0  0
   -6.3157   -0.0536   -4.0614 C   0  0  0  0  0  0  0  0  0  0  0  0
   -5.7513    1.1494   -3.5875 C   0  0  0  0  0  0  0  0  0  0  0  0
   -4.3683    0.8916   -3.2073 C   0  0  0  0  0  0  0  0  0  0  0  0
   -3.3945    1.7173   -2.6804 C   0  0  0  0  0  0  0  0  0  0  0  0
   -2.1496    1.1772   -2.3885 C   0  0  0  0  0  0  0  0  0  0  0  0
   -6.5083    2.3054   -3.5590 C   0  0  0  0  0  0  0  0  0  0  0  0
   -7.8345    2.2447   -3.9576 C   0  0  0  0  0  0  0  0  0  0  0  0
   -8.4154    1.0473   -4.3903 C   0  0  0  0  0  0  0  0  0  0  0  0
   -7.6215   -0.1121   -4.4796 C   0  0  0  0  0  0  0  0  0  0  0  0
   -9.7987    0.9604   -4.7839 C   0  0  0  0  0  0  0  0  0  0  0  0
  -10.8547    1.6014   -4.2205 C   0  0  0  0  0  0  0  0  0  0  0  0
  -10.8515    2.2785   -2.8924 C   0  0  0  0  0  0  0  0  0  0  0  0
   -9.9055    2.5807   -2.2015 O   0  0  0  0  0  0  0  0  0  0  0  0
  -12.2752    2.4477   -2.5382 C   0  0  0  0  0  0  0  0  0  0  0  0
  -12.8014    2.9600   -1.3871 C   0  0  0  0  0  0  0  0  0  0  0  0
  -14.2046    3.0320   -1.2472 C   0  0  0  0  0  0  0  0  0  0  0  0
  -14.7995    3.5544   -0.0821 C   0  0  0  0  0  0  0  0  0  0  0  0
  -16.1603    3.6080    0.0301 C   0  0  0  0  0  0  0  0  0  0  0  0
  -16.7253    4.1032    1.1390 F   0  0  0  0  0  0  0  0  0  0  0  0
  -16.9842    3.1438   -1.0156 C   0  0  0  0  0  0  0  0  0  0  0  0
  -18.3144    3.2092   -0.8771 F   0  0  0  0  0  0  0  0  0  0  0  0
  -16.4366    2.6324   -2.1583 C   0  0  0  0  0  0  0  0  0  0  0  0
  -15.0362    2.5632   -2.3060 C   0  0  0  0  0  0  0  0  0  0  0  0
  -14.4616    2.0382   -3.4854 C   0  0  0  0  0  0  0  0  0  0  0  0
  -13.0967    1.9848   -3.6027 C   0  0  0  0  0  0  0  0  0  0  0  0
  -12.2347    1.5122   -4.6789 C   0  0  0  0  0  0  0  0  0  0  0  0
  -12.6460    1.1392   -5.9290 C   0  0  0  0  0  0  0  0  0  0  0  0
  -11.7824    0.7898   -6.9905 C   0  0  0  0  0  0  0  0  0  0  0  0
  -11.1428    0.5174   -7.9036 N   0  0  0  0  0  0  0  0  0  0  0  0
  -13.9977    1.0974   -6.3332 C   0  0  0  0  0  0  0  0  0  0  0  0
  -15.0798    1.0393   -6.7106 N   0  0  0  0  0  0  0  0  0  0  0  0
   10.3501   -4.0083    3.2183 H   0  0  0  0  0  0  0  0  0  0  0  0
   14.6885   -6.5107   -0.5285 H   0  0  0  0  0  0  0  0  0  0  0  0
   15.3352   -5.7783    4.3559 H   0  0  0  0  0  0  0  0  0  0  0  0
    8.1471   -3.8491    2.9324 H   0  0  0  0  0  0  0  0  0  0  0  0
    8.7407   -3.2680   -1.9672 H   0  0  0  0  0  0  0  0  0  0  0  0
   10.6597   -3.8203   -0.5599 H   0  0  0  0  0  0  0  0  0  0  0  0
    6.3647   -2.6394   -2.9911 H   0  0  0  0  0  0  0  0  0  0  0  0
    4.0328   -1.9868   -3.3941 H   0  0  0  0  0  0  0  0  0  0  0  0
    3.0836   -2.5878    0.7461 H   0  0  0  0  0  0  0  0  0  0  0  0
    3.4354   -0.4722    7.5084 H   0  0  0  0  0  0  0  0  0  0  0  0
    5.0156   -0.3707    6.6872 H   0  0  0  0  0  0  0  0  0  0  0  0
    5.2258    0.2321    9.0917 H   0  0  0  0  0  0  0  0  0  0  0  0
    5.5910    1.6282    8.0656 H   0  0  0  0  0  0  0  0  0  0  0  0
    4.0297    1.5216    8.8820 H   0  0  0  0  0  0  0  0  0  0  0  0
   -2.6838    3.7570    6.2156 H   0  0  0  0  0  0  0  0  0  0  0  0
   -2.9214    5.5035    5.9951 H   0  0  0  0  0  0  0  0  0  0  0  0
   -0.4590    5.8000    5.6786 H   0  0  0  0  0  0  0  0  0  0  0  0
   -0.2014    4.0784    5.9736 H   0  0  0  0  0  0  0  0  0  0  0  0
   -0.8377    5.1022    7.2591 H   0  0  0  0  0  0  0  0  0  0  0  0
   -0.3574   -1.8837   -4.0448 H   0  0  0  0  0  0  0  0  0  0  0  0
    1.8433   -2.7752   -3.5101 H   0  0  0  0  0  0  0  0  0  0  0  0
   -2.6588   -2.0513   -3.3329 H   0  0  0  0  0  0  0  0  0  0  0  0
   -3.5877    2.7621   -2.4925 H   0  0  0  0  0  0  0  0  0  0  0  0
   -1.3816    1.8154   -1.9839 H   0  0  0  0  0  0  0  0  0  0  0  0
   -6.0837    3.2408   -3.2293 H   0  0  0  0  0  0  0  0  0  0  0  0
   -8.4231    3.1474   -3.9642 H   0  0  0  0  0  0  0  0  0  0  0  0
   -8.0412   -1.0404   -4.8379 H   0  0  0  0  0  0  0  0  0  0  0  0
  -10.0010    0.2525   -5.5799 H   0  0  0  0  0  0  0  0  0  0  0  0
  -12.1539    3.3056   -0.5957 H   0  0  0  0  0  0  0  0  0  0  0  0
  -14.1824    3.9131    0.7267 H   0  0  0  0  0  0  0  0  0  0  0  0
  -17.0817    2.2831   -2.9493 H   0  0  0  0  0  0  0  0  0  0  0  0
  -15.1164    1.6844   -4.2652 H   0  0  0  0  0  0  0  0  0  0  0  0
  1  2  2  0  0  0  0
  2  3  1  0  0  0  0
  3  4  2  0  0  0  0
  3  5  1  0  0  0  0
  5  6  2  0  0  0  0
  6  7  1  0  0  0  0
  7  8  1  0  0  0  0
  7  9  2  0  0  0  0
  9 10  1  0  0  0  0
  9 11  1  0  0  0  0
 11 12  2  0  0  0  0
 12 13  1  0  0  0  0
 13 14  2  0  0  0  0
 14 15  1  0  0  0  0
 15 16  3  0  0  0  0
 14 17  1  0  0  0  0
 17 18  3  0  0  0  0
  1 19  1  0  0  0  0
 19 20  2  0  0  0  0
 20 21  1  0  0  0  0
 21 22  1  0  0  0  0
 22 23  2  0  0  0  0
 22 24  1  0  0  0  0
 24 25  2  0  0  0  0
 25 26  1  0  0  0  0
 26 27  1  0  0  0  0
 27 28  2  0  0  0  0
 25 29  1  0  0  0  0
 29 30  2  0  0  0  0
 30 31  1  0  0  0  0
 31 32  2  0  0  0  0
 31 33  1  0  0  0  0
 33 34  1  0  0  0  0
 34 35  2  0  0  0  0
 35 36  1  0  0  0  0
 36 37  1  0  0  0  0
 37 38  2  0  0  0  0
 38 39  1  0  0  0  0
 39 40  2  0  0  0  0
 40 41  1  0  0  0  0
 41 42  1  0  0  0  0
 42 43  1  0  0  0  0
 40 44  1  0  0  0  0
 44 45  2  0  0  0  0
 45 46  1  0  0  0  0
 44 47  1  0  0  0  0
 39 48  1  0  0  0  0
 38 49  1  0  0  0  0
 36 50  2  0  0  0  0
 50 51  1  0  0  0  0
 51 52  2  0  0  0  0
 52 53  1  0  0  0  0
 52 54  1  0  0  0  0
 54 55  1  0  0  0  0
 54 56  2  0  0  0  0
 56 57  1  0  0  0  0
 57 58  1  0  0  0  0
 58 59  1  0  0  0  0
 56 60  1  0  0  0  0
 60 61  1  0  0  0  0
 60 62  2  0  0  0  0
 62 63  1  0  0  0  0
 50 64  1  0  0  0  0
 64 65  2  0  0  0  0
 65 66  1  0  0  0  0
 66 67  2  0  0  0  0
 67 68  1  0  0  0  0
 66 69  1  0  0  0  0
 69 70  2  0  0  0  0
 70 71  1  0  0  0  0
 71 72  1  0  0  0  0
 72 73  2  0  0  0  0
 72 74  1  0  0  0  0
 74 75  2  0  0  0  0
 75 76  1  0  0  0  0
 76 77  1  0  0  0  0
 77 78  2  0  0  0  0
 75 79  1  0  0  0  0
 79 80  2  0  0  0  0
 80 81  1  0  0  0  0
 81 82  2  0  0  0  0
 81 83  1  0  0  0  0
 83 84  2  0  0  0  0
 84 85  1  0  0  0  0
 85 86  2  0  0  0  0
 85 87  1  0  0  0  0
 87 88  2  0  0  0  0
 88 89  1  0  0  0  0
 89 90  2  0  0  0  0
 90 91  1  0  0  0  0
 91 92  1  0  0  0  0
 91 93  2  0  0  0  0
 93 94  1  0  0  0  0
 93 95  1  0  0  0  0
 95 96  2  0  0  0  0
 96 97  1  0  0  0  0
 97 98  2  0  0  0  0
 98 99  1  0  0  0  0
 99100  2  0  0  0  0
100101  1  0  0  0  0
101102  3  0  0  0  0
100103  1  0  0  0  0
103104  3  0  0  0  0
 13  2  1  0  0  0  0
 28 19  1  0  0  0  0
 68 33  2  0  0  0  0
 78 69  1  0  0  0  0
 99 84  1  0  0  0  0
 12  5  1  0  0  0  0
 26 21  2  0  0  0  0
 65 34  1  0  0  0  0
 76 71  2  0  0  0  0
 98 87  1  0  0  0  0
 32 24  1  0  0  0  0
 45 37  1  0  0  0  0
 62 51  1  0  0  0  0
 82 74  1  0  0  0  0
 96 89  1  0  0  0  0
  1105  1  0  0  0  0
  6106  1  0  0  0  0
 11107  1  0  0  0  0
 20108  1  0  0  0  0
 27109  1  0  0  0  0
 28110  1  0  0  0  0
 29111  1  0  0  0  0
 30112  1  0  0  0  0
 32113  1  0  0  0  0
 42114  1  0  0  0  0
 42115  1  0  0  0  0
 43116  1  0  0  0  0
 43117  1  0  0  0  0
 43118  1  0  0  0  0
 58119  1  0  0  0  0
 58120  1  0  0  0  0
 59121  1  0  0  0  0
 59122  1  0  0  0  0
 59123  1  0  0  0  0
 67124  1  0  0  0  0
 68125  1  0  0  0  0
 70126  1  0  0  0  0
 77127  1  0  0  0  0
 78128  1  0  0  0  0
 79129  1  0  0  0  0
 80130  1  0  0  0  0
 82131  1  0  0  0  0
 83132  1  0  0  0  0
 88133  1  0  0  0  0
 90134  1  0  0  0  0
 95135  1  0  0  0  0
 97136  1  0  0  0  0
M  END
