
  xtb     02112200383D
 energy: -283.315358342240 gnorm: 0.000850416709 xtb: 6.4.1 (unknown)
144159  0     0  0            999 V2000
    3.8727   -7.9512   -0.8456 C   0  0  0  0  0  0  0  0  0  0  0  0
    5.1496   -8.0374   -0.3393 C   0  0  0  0  0  0  0  0  0  0  0  0
    5.6812   -7.1535    0.7073 C   0  0  0  0  0  0  0  0  0  0  0  0
    5.1209   -6.2391    1.2864 O   0  0  0  0  0  0  0  0  0  0  0  0
    7.0022   -7.7166    1.0700 C   0  0  0  0  0  0  0  0  0  0  0  0
    7.9058   -7.2488    2.0011 C   0  0  0  0  0  0  0  0  0  0  0  0
    9.0858   -7.9591    2.1892 C   0  0  0  0  0  0  0  0  0  0  0  0
   10.2595   -7.4223    3.3288 Cl  0  0  0  0  0  0  0  0  0  0  0  0
    9.3141   -9.1169    1.4452 C   0  0  0  0  0  0  0  0  0  0  0  0
   10.4508   -9.7995    1.6365 F   0  0  0  0  0  0  0  0  0  0  0  0
    8.4061   -9.5970    0.5126 C   0  0  0  0  0  0  0  0  0  0  0  0
    7.2338   -8.8842    0.3239 C   0  0  0  0  0  0  0  0  0  0  0  0
    6.0945   -9.1024   -0.5664 C   0  0  0  0  0  0  0  0  0  0  0  0
    5.9950  -10.0941   -1.5097 C   0  0  0  0  0  0  0  0  0  0  0  0
    6.9607  -11.1033   -1.6959 C   0  0  0  0  0  0  0  0  0  0  0  0
    7.7107  -11.9510   -1.8889 N   0  0  0  0  0  0  0  0  0  0  0  0
    4.9371  -10.2186   -2.4341 C   0  0  0  0  0  0  0  0  0  0  0  0
    4.1300  -10.3770   -3.2354 N   0  0  0  0  0  0  0  0  0  0  0  0
    3.0818   -6.7888   -0.8409 C   0  0  0  0  0  0  0  0  0  0  0  0
    1.6667   -6.8646   -0.8649 C   0  0  0  0  0  0  0  0  0  0  0  0
    0.8169   -5.7056   -0.7041 C   0  0  0  0  0  0  0  0  0  0  0  0
   -0.4750   -6.0301   -0.7594 N   0  0  0  0  0  0  0  0  0  0  0  0
   -0.6090   -7.6177   -0.9816 S   0  0  0  0  0  4  0  0  0  0  0  0
    0.9563   -7.9806   -0.9997 N   0  0  0  0  0  0  0  0  0  0  0  0
    1.3453   -4.3996   -0.5675 C   0  0  0  0  0  0  0  0  0  0  0  0
    2.7350   -4.3114   -0.8183 C   0  0  0  0  0  0  0  0  0  0  0  0
    3.4128   -3.1732   -0.9487 N   0  0  0  0  0  0  0  0  0  0  0  0
    4.9671   -3.5176   -1.1902 S   0  0  0  0  0  0  0  0  0  0  0  0
    4.8559   -5.1182   -1.1328 N   0  0  0  0  0  0  0  0  0  0  0  0
    3.5921   -5.4691   -0.9100 C   0  0  0  0  0  0  0  0  0  0  0  0
    0.6016   -3.2454   -0.2500 C   0  0  0  0  0  0  0  0  0  0  0  0
   -0.6248   -3.1348    0.4327 C   0  0  0  0  0  0  0  0  0  0  0  0
   -1.1812   -4.1086    1.2218 N   0  0  0  0  0  0  0  0  0  0  0  0
   -0.3624   -5.0389    1.8758 C   0  0  0  0  0  0  0  0  0  0  0  0
   -0.7789   -6.3594    2.0548 C   0  0  0  0  0  0  0  0  0  0  0  0
    0.0847   -7.2932    2.5811 C   0  0  0  0  0  0  0  0  0  0  0  0
    1.3829   -6.9362    2.9498 C   0  0  0  0  0  0  0  0  0  0  0  0
    2.4283   -8.2236    3.5248 S   0  0  0  0  0  0  0  0  0  0  0  0
    3.9517   -7.3697    4.0104 C   0  0  0  0  0  0  0  0  0  0  0  0
    1.7747   -5.6054    2.8444 C   0  0  0  0  0  0  0  0  0  0  0  0
    0.9052   -4.6709    2.3251 C   0  0  0  0  0  0  0  0  0  0  0  0
   -2.5718   -4.1577    1.3720 C   0  0  0  0  0  0  0  0  0  0  0  0
   -3.3994   -3.9167    0.2785 C   0  0  0  0  0  0  0  0  0  0  0  0
   -4.7725   -3.9436    0.4152 C   0  0  0  0  0  0  0  0  0  0  0  0
   -5.3420   -4.2178    1.6526 C   0  0  0  0  0  0  0  0  0  0  0  0
   -7.0750   -4.2766    1.9560 S   0  0  0  0  0  0  0  0  0  0  0  0
   -7.8187   -3.8287    0.3621 C   0  0  0  0  0  0  0  0  0  0  0  0
   -4.5140   -4.4754    2.7465 C   0  0  0  0  0  0  0  0  0  0  0  0
   -3.1456   -4.4449    2.6116 C   0  0  0  0  0  0  0  0  0  0  0  0
   -1.1100   -1.8091    0.3560 C   0  0  0  0  0  0  0  0  0  0  0  0
   -2.5262   -1.0096    0.9479 S   0  0  0  0  0  0  0  0  0  0  0  0
   -1.9374    0.5294    0.3393 C   0  0  0  0  0  0  0  0  0  0  0  0
   -0.6698    0.4320   -0.2249 C   0  0  0  0  0  0  0  0  0  0  0  0
    0.1267    1.4760   -0.6510 N   0  0  0  0  0  0  0  0  0  0  0  0
    0.0781    2.7608   -0.0871 C   0  0  0  0  0  0  0  0  0  0  0  0
   -0.1479    2.9647    1.2716 C   0  0  0  0  0  0  0  0  0  0  0  0
   -0.2607    4.2431    1.7852 C   0  0  0  0  0  0  0  0  0  0  0  0
   -0.1249    5.3453    0.9511 C   0  0  0  0  0  0  0  0  0  0  0  0
   -0.2842    7.0264    1.4660 S   0  0  0  0  0  0  0  0  0  0  0  0
   -0.6282    6.9326    3.2441 C   0  0  0  0  0  0  0  0  0  0  0  0
    0.1576    5.1449   -0.3999 C   0  0  0  0  0  0  0  0  0  0  0  0
    0.2559    3.8733   -0.9129 C   0  0  0  0  0  0  0  0  0  0  0  0
    1.1094    1.2044   -1.6225 C   0  0  0  0  0  0  0  0  0  0  0  0
    2.4187    1.6501   -1.4451 C   0  0  0  0  0  0  0  0  0  0  0  0
    3.3918    1.3098   -2.3560 C   0  0  0  0  0  0  0  0  0  0  0  0
    3.0808    0.5213   -3.4632 C   0  0  0  0  0  0  0  0  0  0  0  0
    4.4193    0.0946   -4.5285 S   0  0  0  0  0  0  0  0  0  0  0  0
    3.7310   -1.2274   -5.5658 C   0  0  0  0  0  0  0  0  0  0  0  0
    1.7678    0.1235   -3.6723 C   0  0  0  0  0  0  0  0  0  0  0  0
    0.7909    0.4648   -2.7571 C   0  0  0  0  0  0  0  0  0  0  0  0
   -0.2331   -0.9177   -0.2432 C   0  0  0  0  0  0  0  0  0  0  0  0
    1.2325   -1.6888   -0.7577 S   0  0  0  0  0  0  0  0  0  0  0  0
   -2.7025    1.7336    0.5491 C   0  0  0  0  0  0  0  0  0  0  0  0
   -2.6519    2.7699   -0.4023 C   0  0  0  0  0  0  0  0  0  0  0  0
   -3.1375    4.0032   -0.0506 C   0  0  0  0  0  0  0  0  0  0  0  0
   -3.0149    5.2951   -0.7797 C   0  0  0  0  0  0  0  0  0  0  0  0
   -2.6402    5.4705   -1.9120 O   0  0  0  0  0  0  0  0  0  0  0  0
   -3.4385    6.3143    0.2208 C   0  0  0  0  0  0  0  0  0  0  0  0
   -3.9089    5.6582    1.3782 C   0  0  0  0  0  0  0  0  0  0  0  0
   -3.7211    4.2292    1.2126 C   0  0  0  0  0  0  0  0  0  0  0  0
   -3.9176    3.1712    2.0827 C   0  0  0  0  0  0  0  0  0  0  0  0
   -3.4039    1.9312    1.7413 C   0  0  0  0  0  0  0  0  0  0  0  0
   -4.3300    6.4006    2.4700 C   0  0  0  0  0  0  0  0  0  0  0  0
   -4.1854    7.7732    2.4235 C   0  0  0  0  0  0  0  0  0  0  0  0
   -3.6504    8.4357    1.3029 C   0  0  0  0  0  0  0  0  0  0  0  0
   -3.3095    7.6795    0.1638 C   0  0  0  0  0  0  0  0  0  0  0  0
   -3.3217    9.8192    1.4683 C   0  0  0  0  0  0  0  0  0  0  0  0
   -2.9382   10.7848    0.5893 C   0  0  0  0  0  0  0  0  0  0  0  0
   -3.1358   10.8564   -0.8792 C   0  0  0  0  0  0  0  0  0  0  0  0
   -3.4518    9.9783   -1.6438 O   0  0  0  0  0  0  0  0  0  0  0  0
   -2.9535   12.2908   -1.2193 C   0  0  0  0  0  0  0  0  0  0  0  0
   -3.1631   12.9136   -2.4384 C   0  0  0  0  0  0  0  0  0  0  0  0
   -3.5597   12.0245   -3.8385 Cl  0  0  0  0  0  0  0  0  0  0  0  0
   -3.0468   14.3108   -2.4970 C   0  0  0  0  0  0  0  0  0  0  0  0
   -3.2674   15.1205   -3.9853 Cl  0  0  0  0  0  0  0  0  0  0  0  0
   -2.7902   15.0438   -1.3387 C   0  0  0  0  0  0  0  0  0  0  0  0
   -2.7454   16.7510   -1.4201 Cl  0  0  0  0  0  0  0  0  0  0  0  0
   -2.5809   14.4067   -0.1051 C   0  0  0  0  0  0  0  0  0  0  0  0
   -2.4271   15.3722    1.3035 Cl  0  0  0  0  0  0  0  0  0  0  0  0
   -2.6030   13.0188   -0.0635 C   0  0  0  0  0  0  0  0  0  0  0  0
   -2.3851   12.0652    1.0156 C   0  0  0  0  0  0  0  0  0  0  0  0
   -1.5783   12.2013    2.1123 C   0  0  0  0  0  0  0  0  0  0  0  0
   -1.3127   11.1377    3.0065 C   0  0  0  0  0  0  0  0  0  0  0  0
   -1.0399   10.3172    3.7620 N   0  0  0  0  0  0  0  0  0  0  0  0
   -0.7574   13.3065    2.4277 C   0  0  0  0  0  0  0  0  0  0  0  0
   -0.0028   14.1126    2.7387 N   0  0  0  0  0  0  0  0  0  0  0  0
    3.3939   -8.8382   -1.2411 H   0  0  0  0  0  0  0  0  0  0  0  0
    7.7047   -6.3509    2.5635 H   0  0  0  0  0  0  0  0  0  0  0  0
    8.6394  -10.5017   -0.0248 H   0  0  0  0  0  0  0  0  0  0  0  0
   -1.7693   -6.6532    1.7416 H   0  0  0  0  0  0  0  0  0  0  0  0
   -0.2267   -8.3204    2.6927 H   0  0  0  0  0  0  0  0  0  0  0  0
    4.3783   -6.8549    3.1531 H   0  0  0  0  0  0  0  0  0  0  0  0
    3.7422   -6.6816    4.8243 H   0  0  0  0  0  0  0  0  0  0  0  0
    4.6277   -8.1488    4.3496 H   0  0  0  0  0  0  0  0  0  0  0  0
    2.7578   -5.2883    3.1488 H   0  0  0  0  0  0  0  0  0  0  0  0
    1.2232   -3.6415    2.2522 H   0  0  0  0  0  0  0  0  0  0  0  0
   -2.9572   -3.7278   -0.6879 H   0  0  0  0  0  0  0  0  0  0  0  0
   -5.3848   -3.7581   -0.4519 H   0  0  0  0  0  0  0  0  0  0  0  0
   -8.8909   -3.8244    0.5323 H   0  0  0  0  0  0  0  0  0  0  0  0
   -7.4885   -2.8377    0.0649 H   0  0  0  0  0  0  0  0  0  0  0  0
   -7.5695   -4.5730   -0.3885 H   0  0  0  0  0  0  0  0  0  0  0  0
   -4.9636   -4.6911    3.7033 H   0  0  0  0  0  0  0  0  0  0  0  0
   -2.5107   -4.6326    3.4642 H   0  0  0  0  0  0  0  0  0  0  0  0
   -0.2484    2.1168    1.9328 H   0  0  0  0  0  0  0  0  0  0  0  0
   -0.4519    4.3654    2.8393 H   0  0  0  0  0  0  0  0  0  0  0  0
   -0.7283    7.9642    3.5713 H   0  0  0  0  0  0  0  0  0  0  0  0
    0.2044    6.4609    3.7571 H   0  0  0  0  0  0  0  0  0  0  0  0
   -1.5570    6.3952    3.4129 H   0  0  0  0  0  0  0  0  0  0  0  0
    0.2752    6.0016   -1.0444 H   0  0  0  0  0  0  0  0  0  0  0  0
    0.4508    3.7312   -1.9649 H   0  0  0  0  0  0  0  0  0  0  0  0
    2.6664    2.2437   -0.5781 H   0  0  0  0  0  0  0  0  0  0  0  0
    4.4113    1.6324   -2.2124 H   0  0  0  0  0  0  0  0  0  0  0  0
    3.0013   -0.8220   -6.2608 H   0  0  0  0  0  0  0  0  0  0  0  0
    4.5717   -1.6365   -6.1172 H   0  0  0  0  0  0  0  0  0  0  0  0
    3.2929   -1.9937   -4.9332 H   0  0  0  0  0  0  0  0  0  0  0  0
    1.4905   -0.4525   -4.5400 H   0  0  0  0  0  0  0  0  0  0  0  0
   -0.2289    0.1467   -2.9183 H   0  0  0  0  0  0  0  0  0  0  0  0
   -2.2185    2.6085   -1.3762 H   0  0  0  0  0  0  0  0  0  0  0  0
   -4.4103    3.3121    3.0328 H   0  0  0  0  0  0  0  0  0  0  0  0
   -3.4858    1.1073    2.4358 H   0  0  0  0  0  0  0  0  0  0  0  0
   -4.7189    5.9195    3.3550 H   0  0  0  0  0  0  0  0  0  0  0  0
   -4.4614    8.3593    3.2886 H   0  0  0  0  0  0  0  0  0  0  0  0
   -2.9100    8.1479   -0.7194 H   0  0  0  0  0  0  0  0  0  0  0  0
   -3.3564   10.1356    2.5062 H   0  0  0  0  0  0  0  0  0  0  0  0
  1  2  2  0  0  0  0
  2  3  1  0  0  0  0
  3  4  2  0  0  0  0
  3  5  1  0  0  0  0
  5  6  2  0  0  0  0
  6  7  1  0  0  0  0
  7  8  1  0  0  0  0
  7  9  2  0  0  0  0
  9 10  1  0  0  0  0
  9 11  1  0  0  0  0
 11 12  2  0  0  0  0
 12 13  1  0  0  0  0
 13 14  2  0  0  0  0
 14 15  1  0  0  0  0
 15 16  3  0  0  0  0
 14 17  1  0  0  0  0
 17 18  3  0  0  0  0
  1 19  1  0  0  0  0
 19 20  2  0  0  0  0
 20 21  1  0  0  0  0
 21 22  1  0  0  0  0
 22 23  2  0  0  0  0
 23 24  2  0  0  0  0
 21 25  2  0  0  0  0
 25 26  1  0  0  0  0
 26 27  2  0  0  0  0
 27 28  1  0  0  0  0
 28 29  1  0  0  0  0
 29 30  2  0  0  0  0
 25 31  1  0  0  0  0
 31 32  2  0  0  0  0
 32 33  1  0  0  0  0
 33 34  1  0  0  0  0
 34 35  2  0  0  0  0
 35 36  1  0  0  0  0
 36 37  2  0  0  0  0
 37 38  1  0  0  0  0
 38 39  1  0  0  0  0
 37 40  1  0  0  0  0
 40 41  2  0  0  0  0
 33 42  1  0  0  0  0
 42 43  2  0  0  0  0
 43 44  1  0  0  0  0
 44 45  2  0  0  0  0
 45 46  1  0  0  0  0
 46 47  1  0  0  0  0
 45 48  1  0  0  0  0
 48 49  2  0  0  0  0
 32 50  1  0  0  0  0
 50 51  1  0  0  0  0
 51 52  1  0  0  0  0
 52 53  2  0  0  0  0
 53 54  1  0  0  0  0
 54 55  1  0  0  0  0
 55 56  2  0  0  0  0
 56 57  1  0  0  0  0
 57 58  2  0  0  0  0
 58 59  1  0  0  0  0
 59 60  1  0  0  0  0
 58 61  1  0  0  0  0
 61 62  2  0  0  0  0
 54 63  1  0  0  0  0
 63 64  2  0  0  0  0
 64 65  1  0  0  0  0
 65 66  2  0  0  0  0
 66 67  1  0  0  0  0
 67 68  1  0  0  0  0
 66 69  1  0  0  0  0
 69 70  2  0  0  0  0
 53 71  1  0  0  0  0
 71 72  1  0  0  0  0
 52 73  1  0  0  0  0
 73 74  2  0  0  0  0
 74 75  1  0  0  0  0
 75 76  1  0  0  0  0
 76 77  2  0  0  0  0
 76 78  1  0  0  0  0
 78 79  2  0  0  0  0
 79 80  1  0  0  0  0
 80 81  1  0  0  0  0
 81 82  2  0  0  0  0
 79 83  1  0  0  0  0
 83 84  2  0  0  0  0
 84 85  1  0  0  0  0
 85 86  2  0  0  0  0
 85 87  1  0  0  0  0
 87 88  2  0  0  0  0
 88 89  1  0  0  0  0
 89 90  2  0  0  0  0
 89 91  1  0  0  0  0
 91 92  2  0  0  0  0
 92 93  1  0  0  0  0
 92 94  1  0  0  0  0
 94 95  1  0  0  0  0
 94 96  2  0  0  0  0
 96 97  1  0  0  0  0
 96 98  1  0  0  0  0
 98 99  1  0  0  0  0
 98100  2  0  0  0  0
100101  1  0  0  0  0
101102  2  0  0  0  0
102103  1  0  0  0  0
103104  3  0  0  0  0
102105  1  0  0  0  0
105106  3  0  0  0  0
 13  2  1  0  0  0  0
 30 19  1  0  0  0  0
 72 31  1  0  0  0  0
 82 73  1  0  0  0  0
101 88  1  0  0  0  0
 12  5  1  0  0  0  0
 24 20  1  0  0  0  0
 30 26  1  0  0  0  0
 41 34  1  0  0  0  0
 49 42  1  0  0  0  0
 71 50  2  0  0  0  0
 80 75  2  0  0  0  0
100 91  1  0  0  0  0
 62 55  1  0  0  0  0
 70 63  1  0  0  0  0
 86 78  1  0  0  0  0
  1107  1  0  0  0  0
  6108  1  0  0  0  0
 11109  1  0  0  0  0
 35110  1  0  0  0  0
 36111  1  0  0  0  0
 39112  1  0  0  0  0
 39113  1  0  0  0  0
 39114  1  0  0  0  0
 40115  1  0  0  0  0
 41116  1  0  0  0  0
 43117  1  0  0  0  0
 44118  1  0  0  0  0
 47119  1  0  0  0  0
 47120  1  0  0  0  0
 47121  1  0  0  0  0
 48122  1  0  0  0  0
 49123  1  0  0  0  0
 56124  1  0  0  0  0
 57125  1  0  0  0  0
 60126  1  0  0  0  0
 60127  1  0  0  0  0
 60128  1  0  0  0  0
 61129  1  0  0  0  0
 62130  1  0  0  0  0
 64131  1  0  0  0  0
 65132  1  0  0  0  0
 68133  1  0  0  0  0
 68134  1  0  0  0  0
 68135  1  0  0  0  0
 69136  1  0  0  0  0
 70137  1  0  0  0  0
 74138  1  0  0  0  0
 81139  1  0  0  0  0
 82140  1  0  0  0  0
 83141  1  0  0  0  0
 84142  1  0  0  0  0
 86143  1  0  0  0  0
 87144  1  0  0  0  0
M  END
