
  xtb     02112202243D
 energy: -265.207936954921 gnorm: 0.000390817764 xtb: 6.4.1 (unknown)
133148  0     0  0            999 V2000
   -8.3136   -0.3335    0.0798 C   0  0  0  0  0  0  0  0  0  0  0  0
   -9.2311    0.1256   -0.8282 C   0  0  0  0  0  0  0  0  0  0  0  0
  -10.6770    0.0055   -0.5220 C   0  0  0  0  0  0  0  0  0  0  0  0
  -11.1898   -0.6149    0.3809 O   0  0  0  0  0  0  0  0  0  0  0  0
  -11.3582    0.8511   -1.5342 C   0  0  0  0  0  0  0  0  0  0  0  0
  -12.6981    1.1598   -1.6407 C   0  0  0  0  0  0  0  0  0  0  0  0
  -13.1007    2.0038   -2.6700 C   0  0  0  0  0  0  0  0  0  0  0  0
  -14.7581    2.4301   -2.8564 Cl  0  0  0  0  0  0  0  0  0  0  0  0
  -12.1480    2.5080   -3.5560 C   0  0  0  0  0  0  0  0  0  0  0  0
  -12.5417    3.3326   -4.5365 F   0  0  0  0  0  0  0  0  0  0  0  0
  -10.8010    2.1910   -3.4637 C   0  0  0  0  0  0  0  0  0  0  0  0
  -10.4035    1.3502   -2.4379 C   0  0  0  0  0  0  0  0  0  0  0  0
   -9.0936    0.8025   -2.0884 C   0  0  0  0  0  0  0  0  0  0  0  0
   -8.0072    0.7618   -2.9290 C   0  0  0  0  0  0  0  0  0  0  0  0
   -6.8713   -0.0390   -2.7073 C   0  0  0  0  0  0  0  0  0  0  0  0
   -5.9326   -0.6912   -2.5918 N   0  0  0  0  0  0  0  0  0  0  0  0
   -7.9246    1.4629   -4.1465 C   0  0  0  0  0  0  0  0  0  0  0  0
   -7.7806    2.0430   -5.1275 N   0  0  0  0  0  0  0  0  0  0  0  0
   -6.9431   -0.0337    0.2283 C   0  0  0  0  0  0  0  0  0  0  0  0
   -6.1038   -0.9309    0.9318 C   0  0  0  0  0  0  0  0  0  0  0  0
   -4.6841   -0.7258    1.0594 C   0  0  0  0  0  0  0  0  0  0  0  0
   -4.0918   -1.7399    1.6869 N   0  0  0  0  0  0  0  0  0  0  0  0
   -5.1996   -2.8454    2.0653 S   0  0  0  0  0  4  0  0  0  0  0  0
   -6.4832   -2.0890    1.4697 N   0  0  0  0  0  0  0  0  0  0  0  0
   -4.0034    0.4147    0.5608 C   0  0  0  0  0  0  0  0  0  0  0  0
   -4.8488    1.3329   -0.1089 C   0  0  0  0  0  0  0  0  0  0  0  0
   -4.4580    2.4481   -0.7214 N   0  0  0  0  0  0  0  0  0  0  0  0
   -5.7306    3.1761   -1.3773 S   0  0  0  0  0  0  0  0  0  0  0  0
   -6.8533    2.1120   -0.9293 N   0  0  0  0  0  0  0  0  0  0  0  0
   -6.2759    1.1142   -0.2617 C   0  0  0  0  0  0  0  0  0  0  0  0
   -2.5972    0.4704    0.6477 C   0  0  0  0  0  0  0  0  0  0  0  0
   -1.6793    1.4992    0.3372 C   0  0  0  0  0  0  0  0  0  0  0  0
   -1.9399    2.8418    0.2475 N   0  0  0  0  0  0  0  0  0  0  0  0
   -1.1418    3.5960   -0.6322 C   0  0  0  0  0  0  0  0  0  0  0  0
   -0.5324    4.7752   -0.2158 C   0  0  0  0  0  0  0  0  0  0  0  0
    0.2731    5.4902   -1.0794 C   0  0  0  0  0  0  0  0  0  0  0  0
    0.4810    5.0341   -2.3760 C   0  0  0  0  0  0  0  0  0  0  0  0
    1.4914    5.8486   -3.5626 S   0  0  0  0  0  0  0  0  0  0  0  0
    2.1370    7.2967   -2.6781 C   0  0  0  0  0  0  0  0  0  0  0  0
   -0.1391    3.8567   -2.7975 C   0  0  0  0  0  0  0  0  0  0  0  0
   -0.9404    3.1439   -1.9368 C   0  0  0  0  0  0  0  0  0  0  0  0
   -2.8741    3.4782    1.0607 C   0  0  0  0  0  0  0  0  0  0  0  0
   -3.2261    2.9538    2.3077 C   0  0  0  0  0  0  0  0  0  0  0  0
   -4.1565    3.5912    3.0940 C   0  0  0  0  0  0  0  0  0  0  0  0
   -4.7569    4.7777    2.6698 C   0  0  0  0  0  0  0  0  0  0  0  0
   -5.9397    5.4880    3.7595 S   0  0  0  0  0  0  0  0  0  0  0  0
   -6.4781    6.9977    2.9081 C   0  0  0  0  0  0  0  0  0  0  0  0
   -4.3900    5.3193    1.4424 C   0  0  0  0  0  0  0  0  0  0  0  0
   -3.4587    4.6788    0.6533 C   0  0  0  0  0  0  0  0  0  0  0  0
   -0.3666    0.9850    0.2410 C   0  0  0  0  0  0  0  0  0  0  0  0
    1.1818    1.6924   -0.1041 S   0  0  0  0  0  0  0  0  0  0  0  0
    1.9617    0.1427    0.1563 C   0  0  0  0  0  0  0  0  0  0  0  0
    1.0714   -0.8357    0.6264 C   0  0  0  0  0  0  0  0  0  0  0  0
    1.4023   -2.0445    1.1853 N   0  0  0  0  0  0  0  0  0  0  0  0
    0.4133   -3.0467    1.2019 C   0  0  0  0  0  0  0  0  0  0  0  0
   -0.2793   -3.3640    0.0332 C   0  0  0  0  0  0  0  0  0  0  0  0
   -1.3340   -4.2471    0.0762 C   0  0  0  0  0  0  0  0  0  0  0  0
   -1.7169   -4.8280    1.2848 C   0  0  0  0  0  0  0  0  0  0  0  0
   -3.1485   -5.8528    1.2424 S   0  0  0  0  0  0  0  0  0  0  0  0
   -3.4889   -6.1977    2.9926 C   0  0  0  0  0  0  0  0  0  0  0  0
   -0.9784   -4.5716    2.4337 C   0  0  0  0  0  0  0  0  0  0  0  0
    0.0814   -3.6879    2.3904 C   0  0  0  0  0  0  0  0  0  0  0  0
    2.6360   -2.2812    1.8025 C   0  0  0  0  0  0  0  0  0  0  0  0
    3.2321   -3.5341    1.6849 C   0  0  0  0  0  0  0  0  0  0  0  0
    4.5191   -3.7469    2.1364 C   0  0  0  0  0  0  0  0  0  0  0  0
    5.2337   -2.7089    2.7218 C   0  0  0  0  0  0  0  0  0  0  0  0
    6.9275   -2.8449    3.1870 S   0  0  0  0  0  0  0  0  0  0  0  0
    7.5146   -4.2149    2.1451 C   0  0  0  0  0  0  0  0  0  0  0  0
    4.5951   -1.4910    2.9555 C   0  0  0  0  0  0  0  0  0  0  0  0
    3.3082   -1.2823    2.5113 C   0  0  0  0  0  0  0  0  0  0  0  0
   -0.2535   -0.3483    0.6041 C   0  0  0  0  0  0  0  0  0  0  0  0
   -1.7794   -1.0319    1.0572 S   0  0  0  0  0  0  0  0  0  0  0  0
    3.3618    0.0281   -0.0311 C   0  0  0  0  0  0  0  0  0  0  0  0
    4.2354    1.0866    0.2948 C   0  0  0  0  0  0  0  0  0  0  0  0
    5.6532    0.8722    0.4737 C   0  0  0  0  0  0  0  0  0  0  0  0
    6.2627    1.9784    0.8998 N   0  0  0  0  0  0  0  0  0  0  0  0
    5.1807    3.1535    1.0559 S   0  0  0  0  0  4  0  0  0  0  0  0
    3.8746    2.3317    0.6041 N   0  0  0  0  0  0  0  0  0  0  0  0
    6.2857   -0.3681    0.2284 C   0  0  0  0  0  0  0  0  0  0  0  0
    5.4361   -1.3647   -0.3005 C   0  0  0  0  0  0  0  0  0  0  0  0
    5.7819   -2.6014   -0.6587 N   0  0  0  0  0  0  0  0  0  0  0  0
    4.4950   -3.3689   -1.2297 S   0  0  0  0  0  0  0  0  0  0  0  0
    3.4015   -2.2261   -0.9659 N   0  0  0  0  0  0  0  0  0  0  0  0
    4.0076   -1.1608   -0.4384 C   0  0  0  0  0  0  0  0  0  0  0  0
    7.6266   -0.5614    0.6450 C   0  0  0  0  0  0  0  0  0  0  0  0
    8.5325   -1.4558    0.1573 C   0  0  0  0  0  0  0  0  0  0  0  0
    8.4921   -2.1110   -1.1782 C   0  0  0  0  0  0  0  0  0  0  0  0
    7.7428   -1.8772   -2.0987 O   0  0  0  0  0  0  0  0  0  0  0  0
    9.6741   -2.9986   -1.1960 C   0  0  0  0  0  0  0  0  0  0  0  0
   10.2616   -3.9229   -2.0720 C   0  0  0  0  0  0  0  0  0  0  0  0
   11.4171   -4.4268   -1.5393 C   0  0  0  0  0  0  0  0  0  0  0  0
   12.4407   -5.5842   -2.2570 Cl  0  0  0  0  0  0  0  0  0  0  0  0
   11.8134   -3.7753    0.0321 S   0  0  0  0  0  0  0  0  0  0  0  0
   10.3950   -2.8082   -0.0286 C   0  0  0  0  0  0  0  0  0  0  0  0
    9.7625   -1.8439    0.8298 C   0  0  0  0  0  0  0  0  0  0  0  0
   10.2348   -1.4561    2.0588 C   0  0  0  0  0  0  0  0  0  0  0  0
   11.4319   -2.0018    2.5660 C   0  0  0  0  0  0  0  0  0  0  0  0
   12.4007   -2.4533    2.9846 N   0  0  0  0  0  0  0  0  0  0  0  0
    9.6293   -0.5266    2.9258 C   0  0  0  0  0  0  0  0  0  0  0  0
    9.2051    0.2226    3.6857 N   0  0  0  0  0  0  0  0  0  0  0  0
   -8.7110   -1.0119    0.8289 H   0  0  0  0  0  0  0  0  0  0  0  0
  -13.4140    0.7555   -0.9430 H   0  0  0  0  0  0  0  0  0  0  0  0
  -10.1128    2.6115   -4.1788 H   0  0  0  0  0  0  0  0  0  0  0  0
   -0.6799    5.1248    0.7951 H   0  0  0  0  0  0  0  0  0  0  0  0
    0.7399    6.3946   -0.7254 H   0  0  0  0  0  0  0  0  0  0  0  0
    2.7220    6.9776   -1.8207 H   0  0  0  0  0  0  0  0  0  0  0  0
    2.7764    7.8100   -3.3895 H   0  0  0  0  0  0  0  0  0  0  0  0
    1.3199    7.9482   -2.3827 H   0  0  0  0  0  0  0  0  0  0  0  0
    0.0168    3.5156   -3.8090 H   0  0  0  0  0  0  0  0  0  0  0  0
   -1.4284    2.2386   -2.2640 H   0  0  0  0  0  0  0  0  0  0  0  0
   -2.7602    2.0483    2.6646 H   0  0  0  0  0  0  0  0  0  0  0  0
   -4.4273    3.1828    4.0555 H   0  0  0  0  0  0  0  0  0  0  0  0
   -7.2052    7.4596    3.5687 H   0  0  0  0  0  0  0  0  0  0  0  0
   -5.6338    7.6658    2.7660 H   0  0  0  0  0  0  0  0  0  0  0  0
   -6.9489    6.7444    1.9628 H   0  0  0  0  0  0  0  0  0  0  0  0
   -4.8308    6.2356    1.0848 H   0  0  0  0  0  0  0  0  0  0  0  0
   -3.2043    5.0916   -0.3104 H   0  0  0  0  0  0  0  0  0  0  0  0
    0.0108   -2.8979   -0.8960 H   0  0  0  0  0  0  0  0  0  0  0  0
   -1.8878   -4.4827   -0.8191 H   0  0  0  0  0  0  0  0  0  0  0  0
   -3.5727   -5.2637    3.5402 H   0  0  0  0  0  0  0  0  0  0  0  0
   -4.4391   -6.7222    3.0072 H   0  0  0  0  0  0  0  0  0  0  0  0
   -2.7138   -6.8348    3.4083 H   0  0  0  0  0  0  0  0  0  0  0  0
   -1.2288   -5.0376    3.3725 H   0  0  0  0  0  0  0  0  0  0  0  0
    0.6390   -3.4679    3.2888 H   0  0  0  0  0  0  0  0  0  0  0  0
    2.6963   -4.3300    1.1888 H   0  0  0  0  0  0  0  0  0  0  0  0
    4.9657   -4.7185    2.0023 H   0  0  0  0  0  0  0  0  0  0  0  0
    7.1297   -5.1623    2.5104 H   0  0  0  0  0  0  0  0  0  0  0  0
    7.2180   -4.0312    1.1158 H   0  0  0  0  0  0  0  0  0  0  0  0
    8.5969   -4.2100    2.2323 H   0  0  0  0  0  0  0  0  0  0  0  0
    5.1306   -0.7094    3.4720 H   0  0  0  0  0  0  0  0  0  0  0  0
    2.8268   -0.3319    2.6863 H   0  0  0  0  0  0  0  0  0  0  0  0
    7.9278    0.0809    1.4640 H   0  0  0  0  0  0  0  0  0  0  0  0
    9.8643   -4.2057   -3.0285 H   0  0  0  0  0  0  0  0  0  0  0  0
  1  2  2  0  0  0  0
  2  3  1  0  0  0  0
  3  4  2  0  0  0  0
  3  5  1  0  0  0  0
  5  6  2  0  0  0  0
  6  7  1  0  0  0  0
  7  8  1  0  0  0  0
  7  9  2  0  0  0  0
  9 10  1  0  0  0  0
  9 11  1  0  0  0  0
 11 12  2  0  0  0  0
 12 13  1  0  0  0  0
 13 14  2  0  0  0  0
 14 15  1  0  0  0  0
 15 16  3  0  0  0  0
 14 17  1  0  0  0  0
 17 18  3  0  0  0  0
  1 19  1  0  0  0  0
 19 20  2  0  0  0  0
 20 21  1  0  0  0  0
 21 22  1  0  0  0  0
 22 23  2  0  0  0  0
 23 24  2  0  0  0  0
 21 25  2  0  0  0  0
 25 26  1  0  0  0  0
 26 27  2  0  0  0  0
 27 28  1  0  0  0  0
 28 29  1  0  0  0  0
 29 30  2  0  0  0  0
 25 31  1  0  0  0  0
 31 32  2  0  0  0  0
 32 33  1  0  0  0  0
 33 34  1  0  0  0  0
 34 35  2  0  0  0  0
 35 36  1  0  0  0  0
 36 37  2  0  0  0  0
 37 38  1  0  0  0  0
 38 39  1  0  0  0  0
 37 40  1  0  0  0  0
 40 41  2  0  0  0  0
 33 42  1  0  0  0  0
 42 43  2  0  0  0  0
 43 44  1  0  0  0  0
 44 45  2  0  0  0  0
 45 46  1  0  0  0  0
 46 47  1  0  0  0  0
 45 48  1  0  0  0  0
 48 49  2  0  0  0  0
 32 50  1  0  0  0  0
 50 51  1  0  0  0  0
 51 52  1  0  0  0  0
 52 53  2  0  0  0  0
 53 54  1  0  0  0  0
 54 55  1  0  0  0  0
 55 56  2  0  0  0  0
 56 57  1  0  0  0  0
 57 58  2  0  0  0  0
 58 59  1  0  0  0  0
 59 60  1  0  0  0  0
 58 61  1  0  0  0  0
 61 62  2  0  0  0  0
 54 63  1  0  0  0  0
 63 64  2  0  0  0  0
 64 65  1  0  0  0  0
 65 66  2  0  0  0  0
 66 67  1  0  0  0  0
 67 68  1  0  0  0  0
 66 69  1  0  0  0  0
 69 70  2  0  0  0  0
 53 71  1  0  0  0  0
 71 72  1  0  0  0  0
 52 73  1  0  0  0  0
 73 74  2  0  0  0  0
 74 75  1  0  0  0  0
 75 76  1  0  0  0  0
 76 77  2  0  0  0  0
 77 78  2  0  0  0  0
 75 79  2  0  0  0  0
 79 80  1  0  0  0  0
 80 81  2  0  0  0  0
 81 82  1  0  0  0  0
 82 83  1  0  0  0  0
 83 84  2  0  0  0  0
 79 85  1  0  0  0  0
 85 86  2  0  0  0  0
 86 87  1  0  0  0  0
 87 88  2  0  0  0  0
 87 89  1  0  0  0  0
 89 90  1  0  0  0  0
 90 91  2  0  0  0  0
 91 92  1  0  0  0  0
 91 93  1  0  0  0  0
 93 94  1  0  0  0  0
 94 95  1  0  0  0  0
 95 96  2  0  0  0  0
 96 97  1  0  0  0  0
 97 98  3  0  0  0  0
 96 99  1  0  0  0  0
 99100  3  0  0  0  0
 13  2  1  0  0  0  0
 30 19  1  0  0  0  0
 72 31  1  0  0  0  0
 84 73  1  0  0  0  0
 95 86  1  0  0  0  0
 12  5  1  0  0  0  0
 24 20  1  0  0  0  0
 30 26  1  0  0  0  0
 41 34  1  0  0  0  0
 49 42  1  0  0  0  0
 71 50  2  0  0  0  0
 78 74  1  0  0  0  0
 84 80  1  0  0  0  0
 94 89  2  0  0  0  0
 62 55  1  0  0  0  0
 70 63  1  0  0  0  0
  1101  1  0  0  0  0
  6102  1  0  0  0  0
 11103  1  0  0  0  0
 35104  1  0  0  0  0
 36105  1  0  0  0  0
 39106  1  0  0  0  0
 39107  1  0  0  0  0
 39108  1  0  0  0  0
 40109  1  0  0  0  0
 41110  1  0  0  0  0
 43111  1  0  0  0  0
 44112  1  0  0  0  0
 47113  1  0  0  0  0
 47114  1  0  0  0  0
 47115  1  0  0  0  0
 48116  1  0  0  0  0
 49117  1  0  0  0  0
 56118  1  0  0  0  0
 57119  1  0  0  0  0
 60120  1  0  0  0  0
 60121  1  0  0  0  0
 60122  1  0  0  0  0
 61123  1  0  0  0  0
 62124  1  0  0  0  0
 64125  1  0  0  0  0
 65126  1  0  0  0  0
 68127  1  0  0  0  0
 68128  1  0  0  0  0
 68129  1  0  0  0  0
 69130  1  0  0  0  0
 70131  1  0  0  0  0
 85132  1  0  0  0  0
 90133  1  0  0  0  0
M  END
