
  xtb     02102222363D
 energy: -270.707993652682 gnorm: 0.000592120003 xtb: 6.4.1 (unknown)
144159  0     0  0            999 V2000
   -3.3464  -10.1578   -3.1491 C   0  0  0  0  0  0  0  0  0  0  0  0
   -4.2923  -10.5521   -2.2581 C   0  0  0  0  0  0  0  0  0  0  0  0
   -4.9744   -9.6622   -1.2771 C   0  0  0  0  0  0  0  0  0  0  0  0
   -4.7362   -8.5059   -1.0176 O   0  0  0  0  0  0  0  0  0  0  0  0
   -6.0970  -10.4636   -0.7407 C   0  0  0  0  0  0  0  0  0  0  0  0
   -7.0490  -10.0750    0.1807 C   0  0  0  0  0  0  0  0  0  0  0  0
   -8.0293  -10.9904    0.5422 C   0  0  0  0  0  0  0  0  0  0  0  0
   -9.2430  -10.5748    1.6859 Cl  0  0  0  0  0  0  0  0  0  0  0  0
   -8.0231  -12.2631   -0.0370 C   0  0  0  0  0  0  0  0  0  0  0  0
   -8.9734  -13.1371    0.3105 F   0  0  0  0  0  0  0  0  0  0  0  0
   -7.0722  -12.6591   -0.9635 C   0  0  0  0  0  0  0  0  0  0  0  0
   -6.0926  -11.7435   -1.3204 C   0  0  0  0  0  0  0  0  0  0  0  0
   -4.9719  -11.8408   -2.2486 C   0  0  0  0  0  0  0  0  0  0  0  0
   -4.6035  -12.9640   -2.9376 C   0  0  0  0  0  0  0  0  0  0  0  0
   -3.4833  -13.0678   -3.7911 C   0  0  0  0  0  0  0  0  0  0  0  0
   -2.5891  -13.2384   -4.4904 N   0  0  0  0  0  0  0  0  0  0  0  0
   -5.2991  -14.1916   -2.8769 C   0  0  0  0  0  0  0  0  0  0  0  0
   -5.8225  -15.2124   -2.8733 N   0  0  0  0  0  0  0  0  0  0  0  0
   -2.6190   -8.9142   -3.1416 C   0  0  0  0  0  0  0  0  0  0  0  0
   -2.1755   -8.3116   -1.9514 C   0  0  0  0  0  0  0  0  0  0  0  0
   -1.5151   -7.1108   -2.0299 C   0  0  0  0  0  0  0  0  0  0  0  0
   -0.9641   -6.2707   -0.9324 C   0  0  0  0  0  0  0  0  0  0  0  0
   -0.9670   -6.4960    0.2539 O   0  0  0  0  0  0  0  0  0  0  0  0
   -0.4384   -5.0640   -1.6260 C   0  0  0  0  0  0  0  0  0  0  0  0
   -0.6545   -5.1869   -3.0144 C   0  0  0  0  0  0  0  0  0  0  0  0
   -1.2943   -6.4661   -3.2668 C   0  0  0  0  0  0  0  0  0  0  0  0
   -1.6832   -7.0819   -4.4442 C   0  0  0  0  0  0  0  0  0  0  0  0
   -2.3193   -8.3088   -4.3700 C   0  0  0  0  0  0  0  0  0  0  0  0
   -0.3213   -4.1364   -3.8496 C   0  0  0  0  0  0  0  0  0  0  0  0
    0.2098   -2.9800   -3.3018 C   0  0  0  0  0  0  0  0  0  0  0  0
    0.4589   -2.8581   -1.9275 C   0  0  0  0  0  0  0  0  0  0  0  0
    0.1239   -3.9372   -1.0864 C   0  0  0  0  0  0  0  0  0  0  0  0
    0.9328   -1.6363   -1.3322 C   0  0  0  0  0  0  0  0  0  0  0  0
    1.4818   -0.4877   -1.8987 C   0  0  0  0  0  0  0  0  0  0  0  0
    1.9385   -0.3256   -3.1954 N   0  0  0  0  0  0  0  0  0  0  0  0
    2.6486   -1.3148   -3.8828 C   0  0  0  0  0  0  0  0  0  0  0  0
    3.3003   -2.3559   -3.2207 C   0  0  0  0  0  0  0  0  0  0  0  0
    3.9558   -3.3311   -3.9368 C   0  0  0  0  0  0  0  0  0  0  0  0
    3.9867   -3.2940   -5.3298 C   0  0  0  0  0  0  0  0  0  0  0  0
    4.8399   -4.6138   -6.1308 S   0  0  0  0  0  0  0  0  0  0  0  0
    4.6617   -4.2457   -7.8995 C   0  0  0  0  0  0  0  0  0  0  0  0
    3.3591   -2.2480   -5.9932 C   0  0  0  0  0  0  0  0  0  0  0  0
    2.6949   -1.2735   -5.2757 C   0  0  0  0  0  0  0  0  0  0  0  0
    1.9334    0.9973   -3.6929 C   0  0  0  0  0  0  0  0  0  0  0  0
    3.1118    1.6155   -4.1082 C   0  0  0  0  0  0  0  0  0  0  0  0
    3.1098    2.9554   -4.4229 C   0  0  0  0  0  0  0  0  0  0  0  0
    1.9351    3.7005   -4.3354 C   0  0  0  0  0  0  0  0  0  0  0  0
    2.0666    5.4352   -4.6269 S   0  0  0  0  0  0  0  0  0  0  0  0
    0.5586    6.0977   -3.8611 C   0  0  0  0  0  0  0  0  0  0  0  0
    0.7427    3.0654   -4.0156 C   0  0  0  0  0  0  0  0  0  0  0  0
    0.7456    1.7220   -3.6936 C   0  0  0  0  0  0  0  0  0  0  0  0
    1.5407    0.5658   -0.9511 C   0  0  0  0  0  0  0  0  0  0  0  0
    2.0313    2.2279   -1.0468 S   0  0  0  0  0  0  0  0  0  0  0  0
    1.5209    2.4833    0.6147 C   0  0  0  0  0  0  0  0  0  0  0  0
    1.2000    1.2724    1.2690 C   0  0  0  0  0  0  0  0  0  0  0  0
    1.1183    1.1118    2.6204 N   0  0  0  0  0  0  0  0  0  0  0  0
    1.8360    1.9506    3.4861 C   0  0  0  0  0  0  0  0  0  0  0  0
    1.2921    2.3236    4.7135 C   0  0  0  0  0  0  0  0  0  0  0  0
    1.9637    3.1950    5.5460 C   0  0  0  0  0  0  0  0  0  0  0  0
    3.2081    3.6952    5.1767 C   0  0  0  0  0  0  0  0  0  0  0  0
    4.1604    4.7923    6.1580 S   0  0  0  0  0  0  0  0  0  0  0  0
    2.9557    5.4512    7.3419 C   0  0  0  0  0  0  0  0  0  0  0  0
    3.7786    3.2785    3.9722 C   0  0  0  0  0  0  0  0  0  0  0  0
    3.1034    2.4210    3.1371 C   0  0  0  0  0  0  0  0  0  0  0  0
    0.4077    0.0251    3.1497 C   0  0  0  0  0  0  0  0  0  0  0  0
   -0.8376   -0.3211    2.6304 C   0  0  0  0  0  0  0  0  0  0  0  0
   -1.4917   -1.4519    3.0760 C   0  0  0  0  0  0  0  0  0  0  0  0
   -0.9124   -2.2501    4.0560 C   0  0  0  0  0  0  0  0  0  0  0  0
   -1.6344   -3.7455    4.6393 S   0  0  0  0  0  0  0  0  0  0  0  0
   -2.6754   -4.2687    3.2463 C   0  0  0  0  0  0  0  0  0  0  0  0
    0.2990   -1.8619    4.6294 C   0  0  0  0  0  0  0  0  0  0  0  0
    0.9556   -0.7394    4.1810 C   0  0  0  0  0  0  0  0  0  0  0  0
    1.1316    0.2184    0.3267 C   0  0  0  0  0  0  0  0  0  0  0  0
    0.6589   -1.4406    0.3982 S   0  0  0  0  0  0  0  0  0  0  0  0
    1.3651    3.8124    1.0416 C   0  0  0  0  0  0  0  0  0  0  0  0
    0.5260    4.2512    2.0971 C   0  0  0  0  0  0  0  0  0  0  0  0
    0.4144    5.6444    2.4730 C   0  0  0  0  0  0  0  0  0  0  0  0
   -0.5361    5.8299    3.3820 N   0  0  0  0  0  0  0  0  0  0  0  0
   -1.2009    4.4180    3.7562 S   0  0  0  0  0  4  0  0  0  0  0  0
   -0.3334    3.4872    2.7695 N   0  0  0  0  0  0  0  0  0  0  0  0
    1.1581    6.6750    1.8419 C   0  0  0  0  0  0  0  0  0  0  0  0
    1.8560    6.2525    0.6804 C   0  0  0  0  0  0  0  0  0  0  0  0
    2.5134    7.0382   -0.1700 N   0  0  0  0  0  0  0  0  0  0  0  0
    3.1577    6.1438   -1.3419 S   0  0  0  0  0  0  0  0  0  0  0  0
    2.6535    4.7042   -0.8210 N   0  0  0  0  0  0  0  0  0  0  0  0
    1.9472    4.8680    0.2960 C   0  0  0  0  0  0  0  0  0  0  0  0
    1.1475    8.0283    2.2079 C   0  0  0  0  0  0  0  0  0  0  0  0
    0.8564    8.5608    3.4456 C   0  0  0  0  0  0  0  0  0  0  0  0
    0.9482    7.8567    4.7302 C   0  0  0  0  0  0  0  0  0  0  0  0
    1.2514    6.6981    4.9520 O   0  0  0  0  0  0  0  0  0  0  0  0
    0.7291    8.8959    5.7672 C   0  0  0  0  0  0  0  0  0  0  0  0
    0.7177    8.7527    7.1381 C   0  0  0  0  0  0  0  0  0  0  0  0
    0.5259    9.8988    7.8982 C   0  0  0  0  0  0  0  0  0  0  0  0
    0.4990    9.7523    9.7951 Br  0  0  0  0  0  0  0  0  0  0  0  0
    0.3573   11.1439    7.3125 C   0  0  0  0  0  0  0  0  0  0  0  0
    0.3677   11.2774    5.9307 C   0  0  0  0  0  0  0  0  0  0  0  0
    0.5527   10.1464    5.1513 C   0  0  0  0  0  0  0  0  0  0  0  0
    0.5972    9.9562    3.7021 C   0  0  0  0  0  0  0  0  0  0  0  0
    0.3266   10.9224    2.7644 C   0  0  0  0  0  0  0  0  0  0  0  0
    0.0614   12.2702    3.0763 C   0  0  0  0  0  0  0  0  0  0  0  0
   -0.1558   13.3813    3.2711 N   0  0  0  0  0  0  0  0  0  0  0  0
    0.2268   10.6964    1.3759 C   0  0  0  0  0  0  0  0  0  0  0  0
    0.0878   10.5971    0.2398 N   0  0  0  0  0  0  0  0  0  0  0  0
   -3.1336  -10.8077   -3.9897 H   0  0  0  0  0  0  0  0  0  0  0  0
   -7.0261   -9.0850    0.6077 H   0  0  0  0  0  0  0  0  0  0  0  0
   -7.1284  -13.6536   -1.3749 H   0  0  0  0  0  0  0  0  0  0  0  0
   -2.3207   -8.7901   -0.9967 H   0  0  0  0  0  0  0  0  0  0  0  0
   -1.4966   -6.6202   -5.4018 H   0  0  0  0  0  0  0  0  0  0  0  0
   -2.6341   -8.7996   -5.2799 H   0  0  0  0  0  0  0  0  0  0  0  0
   -0.4984   -4.1933   -4.9129 H   0  0  0  0  0  0  0  0  0  0  0  0
    0.3950   -2.1425   -3.9524 H   0  0  0  0  0  0  0  0  0  0  0  0
    0.2922   -3.8743   -0.0210 H   0  0  0  0  0  0  0  0  0  0  0  0
    3.3019   -2.3949   -2.1428 H   0  0  0  0  0  0  0  0  0  0  0  0
    4.4584   -4.1359   -3.4231 H   0  0  0  0  0  0  0  0  0  0  0  0
    3.6109   -4.2346   -8.1737 H   0  0  0  0  0  0  0  0  0  0  0  0
    5.1432   -3.3010   -8.1348 H   0  0  0  0  0  0  0  0  0  0  0  0
    5.1678   -5.0551   -8.4167 H   0  0  0  0  0  0  0  0  0  0  0  0
    3.3711   -2.1814   -7.0690 H   0  0  0  0  0  0  0  0  0  0  0  0
    2.1998   -0.4697   -5.8009 H   0  0  0  0  0  0  0  0  0  0  0  0
    4.0300    1.0484   -4.1375 H   0  0  0  0  0  0  0  0  0  0  0  0
    4.0255    3.4516   -4.7040 H   0  0  0  0  0  0  0  0  0  0  0  0
    0.7160    7.1680   -3.7687 H   0  0  0  0  0  0  0  0  0  0  0  0
   -0.3037    5.9086   -4.4941 H   0  0  0  0  0  0  0  0  0  0  0  0
    0.4289    5.6545   -2.8782 H   0  0  0  0  0  0  0  0  0  0  0  0
   -0.1888    3.6075   -3.9955 H   0  0  0  0  0  0  0  0  0  0  0  0
   -0.1742    1.2340   -3.4049 H   0  0  0  0  0  0  0  0  0  0  0  0
    0.3226    1.9440    4.9994 H   0  0  0  0  0  0  0  0  0  0  0  0
    1.5061    3.4834    6.4777 H   0  0  0  0  0  0  0  0  0  0  0  0
    2.6702    4.6880    8.0601 H   0  0  0  0  0  0  0  0  0  0  0  0
    2.1055    5.8235    6.7768 H   0  0  0  0  0  0  0  0  0  0  0  0
    3.4594    6.2664    7.8527 H   0  0  0  0  0  0  0  0  0  0  0  0
    4.7594    3.6405    3.7046 H   0  0  0  0  0  0  0  0  0  0  0  0
    3.5593    2.1067    2.2101 H   0  0  0  0  0  0  0  0  0  0  0  0
   -1.2910    0.3086    1.8798 H   0  0  0  0  0  0  0  0  0  0  0  0
   -2.4515   -1.7046    2.6555 H   0  0  0  0  0  0  0  0  0  0  0  0
   -3.5798   -3.6693    3.1981 H   0  0  0  0  0  0  0  0  0  0  0  0
   -2.9322   -5.3046    3.4438 H   0  0  0  0  0  0  0  0  0  0  0  0
   -2.1049   -4.2040    2.3251 H   0  0  0  0  0  0  0  0  0  0  0  0
    0.7287   -2.4713    5.4089 H   0  0  0  0  0  0  0  0  0  0  0  0
    1.9111   -0.4631    4.6008 H   0  0  0  0  0  0  0  0  0  0  0  0
    1.4449    8.7062    1.4166 H   0  0  0  0  0  0  0  0  0  0  0  0
    0.8479    7.7868    7.6009 H   0  0  0  0  0  0  0  0  0  0  0  0
    0.2171   12.0143    7.9348 H   0  0  0  0  0  0  0  0  0  0  0  0
    0.2393   12.2534    5.4925 H   0  0  0  0  0  0  0  0  0  0  0  0
  1  2  2  0  0  0  0
  2  3  1  0  0  0  0
  3  4  2  0  0  0  0
  3  5  1  0  0  0  0
  5  6  2  0  0  0  0
  6  7  1  0  0  0  0
  7  8  1  0  0  0  0
  7  9  2  0  0  0  0
  9 10  1  0  0  0  0
  9 11  1  0  0  0  0
 11 12  2  0  0  0  0
 12 13  1  0  0  0  0
 13 14  2  0  0  0  0
 14 15  1  0  0  0  0
 15 16  3  0  0  0  0
 14 17  1  0  0  0  0
 17 18  3  0  0  0  0
  1 19  1  0  0  0  0
 19 20  2  0  0  0  0
 20 21  1  0  0  0  0
 21 22  1  0  0  0  0
 22 23  2  0  0  0  0
 22 24  1  0  0  0  0
 24 25  2  0  0  0  0
 25 26  1  0  0  0  0
 26 27  1  0  0  0  0
 27 28  2  0  0  0  0
 25 29  1  0  0  0  0
 29 30  2  0  0  0  0
 30 31  1  0  0  0  0
 31 32  2  0  0  0  0
 31 33  1  0  0  0  0
 33 34  2  0  0  0  0
 34 35  1  0  0  0  0
 35 36  1  0  0  0  0
 36 37  2  0  0  0  0
 37 38  1  0  0  0  0
 38 39  2  0  0  0  0
 39 40  1  0  0  0  0
 40 41  1  0  0  0  0
 39 42  1  0  0  0  0
 42 43  2  0  0  0  0
 35 44  1  0  0  0  0
 44 45  2  0  0  0  0
 45 46  1  0  0  0  0
 46 47  2  0  0  0  0
 47 48  1  0  0  0  0
 48 49  1  0  0  0  0
 47 50  1  0  0  0  0
 50 51  2  0  0  0  0
 34 52  1  0  0  0  0
 52 53  1  0  0  0  0
 53 54  1  0  0  0  0
 54 55  2  0  0  0  0
 55 56  1  0  0  0  0
 56 57  1  0  0  0  0
 57 58  2  0  0  0  0
 58 59  1  0  0  0  0
 59 60  2  0  0  0  0
 60 61  1  0  0  0  0
 61 62  1  0  0  0  0
 60 63  1  0  0  0  0
 63 64  2  0  0  0  0
 56 65  1  0  0  0  0
 65 66  2  0  0  0  0
 66 67  1  0  0  0  0
 67 68  2  0  0  0  0
 68 69  1  0  0  0  0
 69 70  1  0  0  0  0
 68 71  1  0  0  0  0
 71 72  2  0  0  0  0
 55 73  1  0  0  0  0
 73 74  1  0  0  0  0
 54 75  1  0  0  0  0
 75 76  2  0  0  0  0
 76 77  1  0  0  0  0
 77 78  1  0  0  0  0
 78 79  2  0  0  0  0
 79 80  2  0  0  0  0
 77 81  2  0  0  0  0
 81 82  1  0  0  0  0
 82 83  2  0  0  0  0
 83 84  1  0  0  0  0
 84 85  1  0  0  0  0
 85 86  2  0  0  0  0
 81 87  1  0  0  0  0
 87 88  2  0  0  0  0
 88 89  1  0  0  0  0
 89 90  2  0  0  0  0
 89 91  1  0  0  0  0
 91 92  2  0  0  0  0
 92 93  1  0  0  0  0
 93 94  1  0  0  0  0
 93 95  2  0  0  0  0
 95 96  1  0  0  0  0
 96 97  2  0  0  0  0
 97 98  1  0  0  0  0
 98 99  2  0  0  0  0
 99100  1  0  0  0  0
100101  3  0  0  0  0
 99102  1  0  0  0  0
102103  3  0  0  0  0
 13  2  1  0  0  0  0
 28 19  1  0  0  0  0
 74 33  1  0  0  0  0
 86 75  1  0  0  0  0
 98 88  1  0  0  0  0
 12  5  1  0  0  0  0
 26 21  2  0  0  0  0
 43 36  1  0  0  0  0
 51 44  1  0  0  0  0
 73 52  2  0  0  0  0
 80 76  1  0  0  0  0
 86 82  1  0  0  0  0
 97 91  1  0  0  0  0
 32 24  1  0  0  0  0
 64 57  1  0  0  0  0
 72 65  1  0  0  0  0
  1104  1  0  0  0  0
  6105  1  0  0  0  0
 11106  1  0  0  0  0
 20107  1  0  0  0  0
 27108  1  0  0  0  0
 28109  1  0  0  0  0
 29110  1  0  0  0  0
 30111  1  0  0  0  0
 32112  1  0  0  0  0
 37113  1  0  0  0  0
 38114  1  0  0  0  0
 41115  1  0  0  0  0
 41116  1  0  0  0  0
 41117  1  0  0  0  0
 42118  1  0  0  0  0
 43119  1  0  0  0  0
 45120  1  0  0  0  0
 46121  1  0  0  0  0
 49122  1  0  0  0  0
 49123  1  0  0  0  0
 49124  1  0  0  0  0
 50125  1  0  0  0  0
 51126  1  0  0  0  0
 58127  1  0  0  0  0
 59128  1  0  0  0  0
 62129  1  0  0  0  0
 62130  1  0  0  0  0
 62131  1  0  0  0  0
 63132  1  0  0  0  0
 64133  1  0  0  0  0
 66134  1  0  0  0  0
 67135  1  0  0  0  0
 70136  1  0  0  0  0
 70137  1  0  0  0  0
 70138  1  0  0  0  0
 71139  1  0  0  0  0
 72140  1  0  0  0  0
 87141  1  0  0  0  0
 92142  1  0  0  0  0
 95143  1  0  0  0  0
 96144  1  0  0  0  0
M  END
