
  xtb     02102221333D
 energy: -213.161659669653 gnorm: 0.000183955235 xtb: 6.4.1 (unknown)
108119  0     0  0            999 V2000
  -10.5081    0.8720   -1.8268 C   0  0  0  0  0  0  0  0  0  0  0  0
  -10.4483    1.2035   -3.1405 C   0  0  0  0  0  0  0  0  0  0  0  0
   -9.3030    0.9038   -4.0484 C   0  0  0  0  0  0  0  0  0  0  0  0
   -8.2257    0.4358   -3.7673 O   0  0  0  0  0  0  0  0  0  0  0  0
   -9.7975    1.2071   -5.4094 C   0  0  0  0  0  0  0  0  0  0  0  0
   -9.1195    1.0703   -6.6045 C   0  0  0  0  0  0  0  0  0  0  0  0
   -9.7780    1.4120   -7.7791 C   0  0  0  0  0  0  0  0  0  0  0  0
   -8.9930    1.2736   -9.3010 Cl  0  0  0  0  0  0  0  0  0  0  0  0
  -11.0970    1.8734   -7.7137 C   0  0  0  0  0  0  0  0  0  0  0  0
  -11.7270    2.1947   -8.8483 F   0  0  0  0  0  0  0  0  0  0  0  0
  -11.7839    2.0103   -6.5187 C   0  0  0  0  0  0  0  0  0  0  0  0
  -11.1219    1.6727   -5.3467 C   0  0  0  0  0  0  0  0  0  0  0  0
  -11.5493    1.7062   -3.9531 C   0  0  0  0  0  0  0  0  0  0  0  0
  -12.7445    2.1889   -3.4964 C   0  0  0  0  0  0  0  0  0  0  0  0
  -13.7679    2.6861   -4.3334 C   0  0  0  0  0  0  0  0  0  0  0  0
  -14.6371    3.0963   -4.9597 N   0  0  0  0  0  0  0  0  0  0  0  0
  -13.1213    2.2786   -2.1382 C   0  0  0  0  0  0  0  0  0  0  0  0
  -13.4965    2.3950   -1.0597 N   0  0  0  0  0  0  0  0  0  0  0  0
   -9.3995    0.4578   -1.0007 C   0  0  0  0  0  0  0  0  0  0  0  0
   -8.1325    1.0556   -1.1128 C   0  0  0  0  0  0  0  0  0  0  0  0
   -7.1178    0.5972   -0.3104 C   0  0  0  0  0  0  0  0  0  0  0  0
   -5.6996    1.0481   -0.2448 C   0  0  0  0  0  0  0  0  0  0  0  0
   -5.1841    1.9664   -0.8341 O   0  0  0  0  0  0  0  0  0  0  0  0
   -5.0687    0.1223    0.7324 C   0  0  0  0  0  0  0  0  0  0  0  0
   -6.0420   -0.7557    1.2487 C   0  0  0  0  0  0  0  0  0  0  0  0
   -7.3160   -0.4573    0.6050 C   0  0  0  0  0  0  0  0  0  0  0  0
   -8.5726   -1.0159    0.7516 C   0  0  0  0  0  0  0  0  0  0  0  0
   -9.6061   -0.5381   -0.0387 C   0  0  0  0  0  0  0  0  0  0  0  0
   -5.6817   -1.7100    2.1800 C   0  0  0  0  0  0  0  0  0  0  0  0
   -4.3505   -1.7942    2.5698 C   0  0  0  0  0  0  0  0  0  0  0  0
   -3.3817   -0.9418    2.0443 C   0  0  0  0  0  0  0  0  0  0  0  0
   -3.7517    0.0395    1.1151 C   0  0  0  0  0  0  0  0  0  0  0  0
   -1.9664   -1.0676    2.4081 C   0  0  0  0  0  0  0  0  0  0  0  0
   -1.3214   -2.2839    2.4656 C   0  0  0  0  0  0  0  0  0  0  0  0
   -1.9985   -3.4260    2.2538 F   0  0  0  0  0  0  0  0  0  0  0  0
    0.0628   -2.3857    2.6821 C   0  0  0  0  0  0  0  0  0  0  0  0
    0.5971   -3.6185    2.7020 F   0  0  0  0  0  0  0  0  0  0  0  0
    0.8629   -1.2798    2.8690 C   0  0  0  0  0  0  0  0  0  0  0  0
    0.2194   -0.0136    2.8772 C   0  0  0  0  0  0  0  0  0  0  0  0
    0.9519    1.1018    3.0584 N   0  0  0  0  0  0  0  0  0  0  0  0
    0.3663    2.2700    3.0391 C   0  0  0  0  0  0  0  0  0  0  0  0
    1.2285    3.4812    3.2299 C   0  0  0  0  0  0  0  0  0  0  0  0
    2.6997    3.1340    3.4129 C   0  0  0  0  0  0  0  0  0  0  0  0
   -1.0480    2.3697    2.8589 C   0  0  0  0  0  0  0  0  0  0  0  0
   -1.7701    1.2963    2.6747 N   0  0  0  0  0  0  0  0  0  0  0  0
   -1.1762    0.0886    2.6488 C   0  0  0  0  0  0  0  0  0  0  0  0
   -1.7846    3.6729    2.8255 C   0  0  0  0  0  0  0  0  0  0  0  0
   -1.8726    4.1946    1.3881 C   0  0  0  0  0  0  0  0  0  0  0  0
    2.3243   -1.3792    2.9642 C   0  0  0  0  0  0  0  0  0  0  0  0
    3.0185   -2.1614    2.0331 C   0  0  0  0  0  0  0  0  0  0  0  0
    4.3928   -2.1804    2.0846 C   0  0  0  0  0  0  0  0  0  0  0  0
    5.3514   -2.8897    1.1957 C   0  0  0  0  0  0  0  0  0  0  0  0
    5.1054   -3.6334    0.2792 O   0  0  0  0  0  0  0  0  0  0  0  0
    6.6909   -2.4751    1.7011 C   0  0  0  0  0  0  0  0  0  0  0  0
    6.5294   -1.6328    2.8201 C   0  0  0  0  0  0  0  0  0  0  0  0
    5.1024   -1.4413    3.0511 C   0  0  0  0  0  0  0  0  0  0  0  0
    4.4154   -0.6872    3.9833 C   0  0  0  0  0  0  0  0  0  0  0  0
    3.0281   -0.6615    3.9286 C   0  0  0  0  0  0  0  0  0  0  0  0
    7.6421   -1.1534    3.4878 C   0  0  0  0  0  0  0  0  0  0  0  0
    8.8983   -1.4979    3.0145 C   0  0  0  0  0  0  0  0  0  0  0  0
    9.0650   -2.2768    1.8628 C   0  0  0  0  0  0  0  0  0  0  0  0
    7.9321   -2.7964    1.2128 C   0  0  0  0  0  0  0  0  0  0  0  0
   10.3996   -2.5677    1.3993 C   0  0  0  0  0  0  0  0  0  0  0  0
   10.7967   -2.6505    0.1044 C   0  0  0  0  0  0  0  0  0  0  0  0
   10.0208   -2.1386   -1.0616 C   0  0  0  0  0  0  0  0  0  0  0  0
    8.9112   -1.6617   -1.0738 O   0  0  0  0  0  0  0  0  0  0  0  0
   10.9444   -2.2323   -2.2137 C   0  0  0  0  0  0  0  0  0  0  0  0
   10.7039   -1.8624   -3.5231 C   0  0  0  0  0  0  0  0  0  0  0  0
   11.7277   -2.0380   -4.4387 C   0  0  0  0  0  0  0  0  0  0  0  0
   11.5408   -1.6985   -5.7180 F   0  0  0  0  0  0  0  0  0  0  0  0
   12.9575   -2.5657   -4.0377 C   0  0  0  0  0  0  0  0  0  0  0  0
   13.9297   -2.7179   -4.9418 F   0  0  0  0  0  0  0  0  0  0  0  0
   13.1995   -2.9335   -2.7235 C   0  0  0  0  0  0  0  0  0  0  0  0
   12.1768   -2.7648   -1.8007 C   0  0  0  0  0  0  0  0  0  0  0  0
   12.1141   -3.0526   -0.3704 C   0  0  0  0  0  0  0  0  0  0  0  0
   13.0971   -3.6548    0.3644 C   0  0  0  0  0  0  0  0  0  0  0  0
   13.0050   -3.9833    1.7353 C   0  0  0  0  0  0  0  0  0  0  0  0
   13.0065   -4.2894    2.8414 N   0  0  0  0  0  0  0  0  0  0  0  0
   14.3492   -4.0479   -0.1587 C   0  0  0  0  0  0  0  0  0  0  0  0
   15.3838   -4.3835   -0.5229 N   0  0  0  0  0  0  0  0  0  0  0  0
  -11.4740    0.8753   -1.3358 H   0  0  0  0  0  0  0  0  0  0  0  0
   -8.1032    0.7101   -6.6194 H   0  0  0  0  0  0  0  0  0  0  0  0
  -12.8007    2.3671   -6.5402 H   0  0  0  0  0  0  0  0  0  0  0  0
   -7.9603    1.8747   -1.7918 H   0  0  0  0  0  0  0  0  0  0  0  0
   -8.7521   -1.8075    1.4630 H   0  0  0  0  0  0  0  0  0  0  0  0
  -10.5919   -0.9701    0.0583 H   0  0  0  0  0  0  0  0  0  0  0  0
   -6.4106   -2.3887    2.5960 H   0  0  0  0  0  0  0  0  0  0  0  0
   -4.0644   -2.5369    3.2990 H   0  0  0  0  0  0  0  0  0  0  0  0
   -3.0161    0.7017    0.6893 H   0  0  0  0  0  0  0  0  0  0  0  0
    0.8679    4.0336    4.1028 H   0  0  0  0  0  0  0  0  0  0  0  0
    1.1057    4.1349    2.3623 H   0  0  0  0  0  0  0  0  0  0  0  0
    3.0593    2.5537    2.5681 H   0  0  0  0  0  0  0  0  0  0  0  0
    3.2898    4.0431    3.4973 H   0  0  0  0  0  0  0  0  0  0  0  0
    2.8386    2.5402    4.3114 H   0  0  0  0  0  0  0  0  0  0  0  0
   -1.2915    4.4103    3.4592 H   0  0  0  0  0  0  0  0  0  0  0  0
   -2.7953    3.5005    3.1972 H   0  0  0  0  0  0  0  0  0  0  0  0
   -0.8822    4.3243    0.9571 H   0  0  0  0  0  0  0  0  0  0  0  0
   -2.4311    3.4965    0.7702 H   0  0  0  0  0  0  0  0  0  0  0  0
   -2.3845    5.1531    1.3726 H   0  0  0  0  0  0  0  0  0  0  0  0
    2.4974   -2.7222    1.2724 H   0  0  0  0  0  0  0  0  0  0  0  0
    4.9398   -0.1196    4.7370 H   0  0  0  0  0  0  0  0  0  0  0  0
    2.4756   -0.0770    4.6463 H   0  0  0  0  0  0  0  0  0  0  0  0
    7.5423   -0.5261    4.3605 H   0  0  0  0  0  0  0  0  0  0  0  0
    9.7772   -1.1272    3.5223 H   0  0  0  0  0  0  0  0  0  0  0  0
    8.0279   -3.4592    0.3683 H   0  0  0  0  0  0  0  0  0  0  0  0
   11.1411   -2.7005    2.1780 H   0  0  0  0  0  0  0  0  0  0  0  0
    9.7524   -1.4548   -3.8255 H   0  0  0  0  0  0  0  0  0  0  0  0
   14.1672   -3.3311   -2.4651 H   0  0  0  0  0  0  0  0  0  0  0  0
  1  2  2  0  0  0  0
  2  3  1  0  0  0  0
  3  4  2  0  0  0  0
  3  5  1  0  0  0  0
  5  6  2  0  0  0  0
  6  7  1  0  0  0  0
  7  8  1  0  0  0  0
  7  9  2  0  0  0  0
  9 10  1  0  0  0  0
  9 11  1  0  0  0  0
 11 12  2  0  0  0  0
 12 13  1  0  0  0  0
 13 14  2  0  0  0  0
 14 15  1  0  0  0  0
 15 16  3  0  0  0  0
 14 17  1  0  0  0  0
 17 18  3  0  0  0  0
  1 19  1  0  0  0  0
 19 20  2  0  0  0  0
 20 21  1  0  0  0  0
 21 22  1  0  0  0  0
 22 23  2  0  0  0  0
 22 24  1  0  0  0  0
 24 25  2  0  0  0  0
 25 26  1  0  0  0  0
 26 27  1  0  0  0  0
 27 28  2  0  0  0  0
 25 29  1  0  0  0  0
 29 30  2  0  0  0  0
 30 31  1  0  0  0  0
 31 32  2  0  0  0  0
 31 33  1  0  0  0  0
 33 34  2  0  0  0  0
 34 35  1  0  0  0  0
 34 36  1  0  0  0  0
 36 37  1  0  0  0  0
 36 38  2  0  0  0  0
 38 39  1  0  0  0  0
 39 40  2  0  0  0  0
 40 41  1  0  0  0  0
 41 42  1  0  0  0  0
 42 43  1  0  0  0  0
 41 44  2  0  0  0  0
 44 45  1  0  0  0  0
 45 46  2  0  0  0  0
 44 47  1  0  0  0  0
 47 48  1  0  0  0  0
 38 49  1  0  0  0  0
 49 50  2  0  0  0  0
 50 51  1  0  0  0  0
 51 52  1  0  0  0  0
 52 53  2  0  0  0  0
 52 54  1  0  0  0  0
 54 55  2  0  0  0  0
 55 56  1  0  0  0  0
 56 57  1  0  0  0  0
 57 58  2  0  0  0  0
 55 59  1  0  0  0  0
 59 60  2  0  0  0  0
 60 61  1  0  0  0  0
 61 62  2  0  0  0  0
 61 63  1  0  0  0  0
 63 64  2  0  0  0  0
 64 65  1  0  0  0  0
 65 66  2  0  0  0  0
 65 67  1  0  0  0  0
 67 68  2  0  0  0  0
 68 69  1  0  0  0  0
 69 70  1  0  0  0  0
 69 71  2  0  0  0  0
 71 72  1  0  0  0  0
 71 73  1  0  0  0  0
 73 74  2  0  0  0  0
 74 75  1  0  0  0  0
 75 76  2  0  0  0  0
 76 77  1  0  0  0  0
 77 78  3  0  0  0  0
 76 79  1  0  0  0  0
 79 80  3  0  0  0  0
 13  2  1  0  0  0  0
 28 19  1  0  0  0  0
 46 33  1  0  0  0  0
 58 49  1  0  0  0  0
 75 64  1  0  0  0  0
 12  5  1  0  0  0  0
 26 21  2  0  0  0  0
 46 39  1  0  0  0  0
 56 51  2  0  0  0  0
 74 67  1  0  0  0  0
 32 24  1  0  0  0  0
 62 54  1  0  0  0  0
  1 81  1  0  0  0  0
  6 82  1  0  0  0  0
 11 83  1  0  0  0  0
 20 84  1  0  0  0  0
 27 85  1  0  0  0  0
 28 86  1  0  0  0  0
 29 87  1  0  0  0  0
 30 88  1  0  0  0  0
 32 89  1  0  0  0  0
 42 90  1  0  0  0  0
 42 91  1  0  0  0  0
 43 92  1  0  0  0  0
 43 93  1  0  0  0  0
 43 94  1  0  0  0  0
 47 95  1  0  0  0  0
 47 96  1  0  0  0  0
 48 97  1  0  0  0  0
 48 98  1  0  0  0  0
 48 99  1  0  0  0  0
 50100  1  0  0  0  0
 57101  1  0  0  0  0
 58102  1  0  0  0  0
 59103  1  0  0  0  0
 60104  1  0  0  0  0
 62105  1  0  0  0  0
 63106  1  0  0  0  0
 68107  1  0  0  0  0
 73108  1  0  0  0  0
M  END
