154

C         -4.99840       -5.11510        3.08040
C         -6.31120       -4.90840        2.78320
C         -6.86060       -3.65570        2.20620
O         -6.28500       -2.61360        1.97920
C         -8.32410       -3.87100        2.13400
C         -9.28920       -3.01270        1.64780
C        -10.61960       -3.41000        1.71040
Cl       -11.86980       -2.39170        1.11310
C        -10.93740       -4.65060        2.26870
F        -12.22100       -5.02350        2.33370
C         -9.97470       -5.51520        2.76500
C         -8.64760       -5.11890        2.69440
C         -7.41760       -5.78590        3.10920
C         -7.33130       -7.04890        3.63590
C         -6.13020       -7.71270        3.96060
N         -5.19890       -8.32550        4.23850
C         -8.44620       -7.86610        3.91820
N         -9.31180       -8.57250        4.18110
C         -3.90390       -4.38630        2.52160
C         -3.93340       -3.95270        1.16550
N         -4.96810       -4.29770        0.36800
C         -4.97450       -3.87100       -0.85400
C         -3.92080       -3.05840       -1.37020
O         -4.02060       -2.64580       -2.62430
C         -2.92740       -1.89490       -3.14780
C         -3.28350       -1.46920       -4.55950
N         -2.86650       -2.78340       -0.64010
C         -2.84090       -3.23490        0.63080
C         -1.67830       -2.99990        1.41630
C         -1.68400       -3.43790        2.73900
C         -2.75670       -4.13170        3.26550
C         -0.57570       -2.28130        0.86000
C          0.76970       -2.34690        1.22180
N          1.32540       -3.36700        1.96650
C          2.43880       -3.12430        2.77780
C          3.43890       -4.08830        2.91430
C          4.54130       -3.83410        3.69650
C          4.67770       -2.61280        4.35700
S          6.14230       -2.39700        5.31520
C          6.09830       -0.64490        5.78830
C          3.67510       -1.66000        4.24100
C          2.56420       -1.91780        3.46180
C          0.75780       -4.65230        1.89210
C          0.28440       -5.14500        0.67540
C         -0.41420       -6.32790        0.63100
C         -0.64890       -7.05820        1.79700
S         -1.64420       -8.50170        1.63660
C         -2.04530       -8.94380        3.34940
C         -0.10120       -6.61630        2.99380
C          0.59210       -5.42180        3.03960
C          1.49450       -1.28690        0.62640
S          3.13470       -0.75960        0.69330
C          2.76820        0.63430       -0.33200
C          1.44440        0.62780       -0.76670
N          0.80560        1.49800       -1.62960
C          1.41060        2.17300       -2.68990
C          0.84200        3.36490       -3.15140
C          1.41010        4.05460       -4.19470
C          2.56270        3.57690       -4.81880
S          3.17490        4.54230       -6.15540
C          4.63280        3.63850       -6.73370
C          3.12690        2.38890       -4.37500
C          2.55240        1.69430       -3.32750
C         -0.57990        1.65500       -1.42400
C         -1.48410        1.51300       -2.47540
C         -2.83800        1.46990       -2.21860
C         -3.30660        1.54610       -0.91020
S         -5.01610        1.20990       -0.60400
C         -4.89310        0.26520        0.94600
C         -2.41770        1.82180        0.12150
C         -1.06390        1.88490       -0.13750
C          0.73770       -0.47120       -0.19920
S         -0.88370       -1.07250       -0.36100
C          3.86100        1.54040       -0.54660
C          3.67470        2.93370       -0.78380
N          2.46830        3.50200       -0.61320
C          2.31220        4.76510       -0.88520
C          3.37780        5.55030       -1.40030
O          3.29280        6.80800       -1.83800
C          2.03010        7.45630       -1.91410
C          1.62660        8.09460       -0.59030
N          4.58420        5.03580       -1.45690
C          4.78230        3.74750       -1.13210
C          6.10720        3.22130       -1.09550
C          6.26290        1.89860       -0.71370
C          5.17170        1.07650       -0.48180
C          7.21190        4.11690       -1.31800
C          7.09920        5.15140       -2.18390
C          6.01140        5.21040       -3.20770
O          5.53550        4.27000       -3.81080
C          5.92040        6.64020       -3.57930
C          4.97990        7.26850       -4.36750
C          5.11060        8.63450       -4.58050
Cl         3.94520        9.48740       -5.51680
C          6.19510        9.31800       -4.02610
F          6.31180       10.63610       -4.23990
C          7.16110        8.68670       -3.26070
C          7.01750        7.32610       -3.02760
C          7.83020        6.40040       -2.24220
C          9.02810        6.67940       -1.63990
C          9.77140        5.73310       -0.90430
N         10.41540        5.00010       -0.29940
C          9.67580        7.93000       -1.70220
N         10.24880        8.92440       -1.72330
H         -4.73490       -5.89440        3.78380
H         -9.01530       -2.05880        1.22590
H        -10.28780       -6.45550        3.18880
H         -5.79360       -4.16680       -1.49320
H         -2.74730       -1.02800       -2.50430
H         -2.02760       -2.52100       -3.13240
H         -2.47260       -0.88110       -4.97880
H         -3.45210       -2.34120       -5.18550
H         -4.19080       -0.87150       -4.54910
H         -0.85190       -3.19270        3.37950
H         -2.72720       -4.44080        4.30020
H          3.34630       -5.02890        2.39270
H          5.32050       -4.57360        3.79770
H          7.04630       -0.45190        6.28040
H          5.28220       -0.46250        6.48140
H          6.00980       -0.02730        4.89960
H          3.73930       -0.71600        4.75700
H          1.78000       -1.17830        3.39100
H          0.44610       -4.58030       -0.23040
H         -0.79980       -6.69990       -0.30560
H         -1.16420       -9.32520        3.85730
H         -2.46250       -8.08270        3.86100
H         -2.79960       -9.72110        3.28300
H         -0.22530       -7.18250        3.90250
H          0.99060       -5.07080        3.98050
H         -0.04270        3.75330       -2.66950
H          0.96830        4.97560       -4.54600
H          5.04730        4.23300       -7.54200
H          4.33630        2.66180       -7.10510
H          5.34300        3.56400       -5.91650
H          4.01890        1.99530       -4.83180
H          2.99760        0.76440       -3.00770
H         -1.11690        1.38720       -3.48290
H         -3.54320        1.32810       -3.02260
H         -5.75460       -0.39320        0.99200
H         -4.89700        0.93540        1.80080
H         -3.98420       -0.32870        0.92250
H         -2.77670        1.96360        1.12870
H         -0.36260        2.06890        0.66280
H          1.33160        5.17130       -0.68530
H          1.26470        6.75790       -2.27010
H          2.17520        8.23160       -2.67100
H          0.69310        8.63520       -0.71770
H          2.39610        8.79160       -0.26880
H          1.49570        7.34490        0.18660
H          7.25860        1.48470       -0.65500
H          5.34340        0.03230       -0.26360
H          8.08110        3.99720       -0.68560
H          4.15990        6.71500       -4.79800
H          7.97970        9.26790       -2.86780
