136

C          3.84490        6.29620       -2.35740
C          4.97110        6.98140       -1.95640
C          5.69760        6.80400       -0.69100
O          5.46070        6.04270        0.22840
C          6.73730        7.86420       -0.67880
C          7.69690        8.11810        0.27890
C          8.55000        9.19950        0.09250
Cl         9.76900        9.56080        1.25460
C          8.41080        9.99400       -1.04470
F          9.23110       11.03960       -1.21420
C          7.45120        9.74350       -2.01430
C          6.60570        8.66250       -1.82700
C          5.52430        8.12140       -2.64900
C          5.17590        8.57690       -3.89640
C          4.22570        7.98040       -4.75160
N          3.49860        7.55060       -5.53010
C          5.75900        9.70150       -4.51500
N          6.18850       10.61230       -5.06680
C          3.36580        5.06300       -1.89200
C          2.01250        4.69820       -2.12120
C          1.43700        3.48960       -1.58950
N          0.15570        3.35630       -1.92410
S         -0.29010        4.62400       -2.81770
N          1.11720        5.40200       -2.80930
C          2.15640        2.58040       -0.77230
C          3.54900        2.84500       -0.71450
N          4.47850        2.00620       -0.26000
S          5.93410        2.63790       -0.53360
N          5.46350        4.00200       -1.23540
C          4.13690        4.04170       -1.27950
C          1.49620        1.48230       -0.19730
C          1.92380        0.57970        0.80260
N          2.93560        0.78300        1.69770
C          3.26150        2.05740        2.16510
C          2.28850        3.05490        2.26900
C          2.62890        4.31480        2.69870
C          3.94930        4.61910        3.03410
S          4.26840        6.25670        3.57230
C          6.06390        6.41120        3.37380
C          4.91320        3.61760        2.96930
C          4.56940        2.34960        2.55000
C          3.52690       -0.35590        2.27270
C          3.61840       -0.49120        3.65400
C          4.06430       -1.67340        4.21030
C          4.43200       -2.73370        3.39020
S          4.92060       -4.31630        3.98270
C          4.58430       -4.23940        5.76530
C          4.41470       -2.56980        2.00480
C          3.96390       -1.39480        1.45000
C          1.06240       -0.53600        0.86580
S          1.04550       -1.97630        1.83510
C         -0.46300       -2.48510        1.08380
C         -0.99340       -1.48470        0.23360
N         -2.25550       -1.42410       -0.28980
C         -3.38320       -1.90180        0.37630
C         -4.51760       -2.25880       -0.35610
C         -5.66220       -2.69290        0.27680
C         -5.70990       -2.75350        1.66720
S         -7.11680       -3.23220        2.59090
C         -8.40690       -3.50510        1.34390
C         -4.57740       -2.39330        2.40450
C         -3.43200       -1.97670        1.77160
C         -2.42560       -0.63790       -1.44630
C         -3.36290        0.39490       -1.47470
C         -3.40140        1.25690       -2.54610
C         -2.51280        1.10210       -3.60980
S         -2.55430        2.33060       -4.86950
C         -0.92600        2.16120       -5.65640
C         -1.64450        0.01680       -3.62620
C         -1.59950       -0.84340       -2.54780
C         -0.06330       -0.43360        0.06560
S         -0.08070        1.05030       -0.84230
C         -0.87750       -3.80510        1.33270
C         -1.82430       -4.54840        0.58460
C         -2.20570       -5.90220        0.93440
N         -3.05530       -6.41320        0.04640
S         -3.34110       -5.32830       -1.11130
N         -2.40940       -4.14700       -0.54100
C         -1.66580       -6.60150        2.04390
C         -0.60470       -5.91410        2.68720
N          0.14430       -6.39160        3.67770
S          1.20720       -5.27500        4.13060
N          0.76100       -4.11410        3.10390
C         -0.23730       -4.56310        2.34820
C         -2.02530       -7.89190        2.47190
C         -3.14640       -8.63570        2.19320
C         -3.10540      -10.10750        2.35650
O         -2.24860      -10.76930        2.89630
C         -4.32620      -10.60460        1.67070
C         -4.72650      -11.90510        1.45280
C         -5.91600      -12.09680        0.76050
Br        -6.51830      -13.86870        0.42550
C         -6.67740      -11.03040        0.30500
C         -6.27100       -9.72430        0.53930
C         -5.08680       -9.50870        1.22540
C         -4.42360       -8.27890        1.65160
C         -5.01300       -7.03470        1.70570
C         -6.21850       -6.69330        1.07720
N         -7.16480       -6.32590        0.53560
C         -4.47930       -5.96720        2.44770
N         -4.10050       -5.07620        3.06680
H          3.20580        6.76160       -3.09840
H          7.79280        7.49220        1.15110
H          7.39410       10.39590       -2.87020
H          1.26190        2.83430        2.01820
H          1.87730        5.08470        2.78040
H          6.28440        7.46770        3.49340
H          6.31230        6.08130        2.36920
H          6.58470        5.83820        4.13560
H          5.93660        3.81770        3.24110
H          5.32210        1.57810        2.48770
H          3.30490        0.32160        4.29210
H          4.10080       -1.76150        5.28350
H          3.54750       -3.96190        5.93000
H          5.26530       -3.54350        6.24630
H          4.76290       -5.24260        6.13940
H          4.74040       -3.38380        1.37610
H          3.93080       -1.26730        0.37880
H         -4.48330       -2.21930       -1.43430
H         -6.51010       -2.98750       -0.31960
H         -8.54470       -2.60590        0.75150
H         -9.31020       -3.71900        1.90650
H         -8.14560       -4.36360        0.73060
H         -4.61970       -2.43780        3.48050
H         -2.57580       -1.68280        2.35870
H         -4.02240        0.54040       -0.63260
H         -4.09470        2.08310       -2.55830
H         -0.90730        1.29410       -6.30950
H         -0.16440        2.09140       -4.88570
H         -0.78360        3.06320       -6.24330
H         -0.99250       -0.15890       -4.46620
H         -0.91060       -1.67470       -2.54200
H         -1.27590       -8.39500        3.07510
H         -4.13530      -12.73430        1.80940
H         -7.59320      -11.22050       -0.23360
H         -6.87170       -8.90490        0.17830
