144

C          1.29820       -0.03710       10.58210
C          2.53110       -0.44620       10.97190
C          2.67620       -1.11670       12.29760
O          1.85560       -1.15390       13.18200
C          4.00800       -1.75960       12.26190
C          4.58100       -2.60650       13.18940
C          5.84780       -3.11400       12.92560
Cl         6.61830       -4.17420       14.03770
C          6.49720       -2.75670       11.73990
F          7.70940       -3.26090       11.48800
C          5.93360       -1.89950       10.80840
C          4.67150       -1.39280       11.07670
C          3.83200       -0.46160       10.32880
C          4.28280        0.40390        9.36870
C          5.60090        0.40980        8.86470
N          6.65270        0.45720        8.40880
C          3.51730        1.45630        8.82970
N          2.97210        2.36440        8.38680
C          0.80070        0.30180        9.27700
C          1.37730       -0.21910        8.10410
C          0.81350        0.09330        6.89370
C          1.23680       -0.32810        5.53190
O          2.19640       -0.99720        5.23060
C          0.22180        0.27590        4.63220
C         -0.70750        1.01340        5.39460
C         -0.33020        0.91430        6.79630
C         -0.90390        1.42830        7.94620
C         -0.34160        1.10750        9.16990
C         -1.77670        1.62620        4.76680
C         -1.89110        1.52220        3.38860
C         -0.94600        0.83530        2.62440
C          0.11830        0.18030        3.26800
C         -1.02980        0.78860        1.18270
C          0.03480        0.85130        0.29460
N          1.34250        1.12270        0.64770
C          1.61090        2.02870        1.68700
C          0.80740        3.15640        1.86060
C          1.02350        4.00400        2.92030
C          2.05020        3.75370        3.83140
S          2.20170        4.90190        5.15690
C          3.72010        4.40390        6.00950
C          2.87020        2.64830        3.64550
C          2.65250        1.79610        2.57940
C          2.37270        0.58710       -0.13520
C          3.48970        1.34940       -0.47670
C          4.44350        0.83190       -1.32300
C          4.30760       -0.45380       -1.84620
S          5.55370       -0.98430       -2.97530
C          4.90650       -2.55270       -3.62100
C          3.22660       -1.23510       -1.46420
C          2.27070       -0.71700       -0.61370
C         -0.40880        0.69560       -1.04150
S          0.40360        0.55950       -2.55850
C         -1.13800        0.39230       -3.39390
C         -2.22400        0.33280       -2.49880
N         -3.52800       -0.00300       -2.77020
C         -4.52200        0.54800       -1.93790
C         -5.51050       -0.25770       -1.38280
C         -6.47340        0.28390       -0.55440
C         -6.45980        1.64390       -0.26870
S         -7.62070        2.44670        0.78370
C         -8.79690        1.13740        1.22730
C         -5.47390        2.45450       -0.83250
C         -4.51560        1.91480       -1.65900
C         -3.90270       -0.85300       -3.80700
C         -3.03650       -1.83580       -4.28850
C         -3.36390       -2.58370       -5.39920
C         -4.58420       -2.38870       -6.04060
S         -5.05720       -3.21210       -7.51610
C         -3.48420       -3.81370       -8.18530
C         -5.49950       -1.48790       -5.49200
C         -5.16740       -0.73270       -4.39310
C         -1.77980        0.54820       -1.17040
S         -2.57300        0.62200        0.37200
C         -1.08000        0.34390       -4.80710
C          0.12680       -0.03010       -5.45190
C          0.24960       -0.21070       -6.87920
N          1.44390       -0.69740       -7.20910
S          2.34690       -0.83180       -5.89230
N          1.25400       -0.34650       -4.81500
C         -0.82590        0.03740       -7.76320
C         -2.01560        0.46770       -7.12770
N         -3.12090        0.84230       -7.76750
S         -4.18730        1.39810       -6.70050
N         -3.31560        1.17910       -5.36750
C         -2.13480        0.65180       -5.69700
C         -0.77780       -0.14970       -9.15940
C          0.33470       -0.01500       -9.95450
C          1.50430        0.82500       -9.62500
O          1.72400        1.45380       -8.61250
C          2.30810        0.87680      -10.87270
C          3.49410        1.54350      -11.09730
C          4.05960        1.47400      -12.36580
Cl         5.54280        2.27660      -12.70910
C          3.41350        0.74680      -13.36620
F          3.96070        0.69140      -14.58810
C          2.21900        0.07660      -13.14840
C          1.66170        0.14410      -11.88210
C          0.44950       -0.44850      -11.32350
C         -0.36670       -1.35590      -11.95410
C         -0.21670       -1.75470      -13.29660
N         -0.14800       -2.10740      -14.38730
C         -1.41250       -2.05000      -11.31600
N         -2.24130       -2.69390      -10.84800
H          0.55840       -0.03910       11.37800
H          4.05670       -2.86620       14.09510
H          6.48280       -1.66540        9.91070
H          2.21790       -0.89530        8.14880
H         -1.77700        2.06060        7.89690
H         -0.78100        1.50070       10.07510
H         -2.50920        2.18300        5.33070
H         -2.71730        1.99980        2.88180
H          0.82210       -0.41630        2.70940
H          0.01430        3.36280        1.15760
H          0.40440        4.87700        3.05770
H          3.56990        3.45120        6.50980
H          3.90270        5.17530        6.75120
H          4.54440        4.36620        5.30370
H          3.66970        2.42660        4.33360
H          3.28600        0.93150        2.44910
H          3.58740        2.35390       -0.09370
H          5.29790        1.42580       -1.60870
H          4.92240       -3.31280       -2.84500
H          5.57690       -2.83790       -4.42570
H          3.90340       -2.40060       -4.00970
H          3.11270       -2.24580       -1.81960
H          1.43070       -1.32920       -0.31920
H         -5.51800       -1.31620       -1.59620
H         -7.22110       -0.36710       -0.13210
H         -9.25600        0.73270        0.33030
H         -8.29640        0.36350        1.80180
H         -9.55130        1.62020        1.84080
H         -5.47790        3.51150       -0.61600
H         -3.76050        2.54260       -2.10690
H         -2.09030       -2.00590       -3.79740
H         -2.66340       -3.32020       -5.75920
H         -2.74800       -3.01670       -8.15050
H         -3.14980       -4.69080       -7.63850
H         -3.67860       -4.07160       -9.22120
H         -6.46130       -1.36830       -5.96600
H         -5.86070        0.00370       -4.01830
H         -1.73150       -0.36430       -9.62790
H          3.97030        2.10110      -10.30670
H          1.76540       -0.46320      -13.96380
