144

C         -8.06650       -4.55340        4.74830
C         -9.41040       -4.69070        4.88460
C        -10.44430       -4.12320        3.97560
O        -10.31960       -3.27440        3.12380
C        -11.68230       -4.87500        4.28280
C        -12.91150       -4.77210        3.66210
C        -13.94650       -5.58340        4.11010
Cl       -15.50260       -5.50530        3.38440
C        -13.71240       -6.47300        5.16360
F        -14.71160       -7.25590        5.58360
C        -12.48270       -6.58040        5.79240
C        -11.45240       -5.76660        5.34440
C        -10.06930       -5.63110        5.78260
C         -9.51830       -6.21150        6.89110
C        -10.21150       -7.09900        7.74290
N        -10.72330       -7.82820        8.46560
C         -8.20830       -5.96820        7.36110
N         -7.16890       -5.80220        7.81820
C         -7.35470       -3.62700        3.90620
C         -6.15260       -4.05920        3.31470
C         -5.46650       -3.19570        2.49990
C         -4.19830       -3.41430        1.75390
O         -3.55440       -4.43130        1.66630
C         -3.90340       -2.09130        1.14390
C         -4.94320       -1.18860        1.44790
C         -5.91510       -1.87470        2.28510
C         -7.07500       -1.43340        2.89650
C         -7.78690       -2.31260        3.69690
C         -4.88440        0.11060        0.97730
C         -3.74540        0.52280        0.30260
C         -2.66720       -0.33890        0.09110
C         -2.78590       -1.69280        0.45630
C         -1.40910        0.15320       -0.41710
C         -0.13460       -0.21320        0.00120
N          0.17750       -1.05100        1.05150
C          1.44550       -1.66740        1.05400
C          1.89740       -2.35410       -0.07220
C          3.17800       -2.85890       -0.10590
C          4.03010       -2.68970        0.98340
S          5.67430       -3.29700        0.79870
C          6.56180       -2.55860        2.20050
C          3.55780       -2.06680        2.13190
C          2.27380       -1.56080        2.16530
C         -0.66760       -1.22000        2.15740
C         -0.79480       -2.48240        2.73990
C         -1.71750       -2.69610        3.73770
C         -2.53490       -1.65680        4.17960
S         -3.76690       -2.07990        5.37020
C         -4.72550       -0.55130        5.56750
C         -2.34860       -0.37990        3.66660
C         -1.41590       -0.16410        2.67150
C          0.85420        0.45710       -0.76190
S          2.58440        0.44940       -0.73060
C          2.63270        1.59760       -2.06560
C          1.34640        2.08420       -2.39410
N          1.02540        3.16060       -3.17580
C         -0.25060        3.15960       -3.78140
C         -0.65390        2.07070       -4.54630
C         -1.90820        2.04520       -5.12360
C         -2.77790        3.11330       -4.93920
S         -4.40470        3.19350       -5.60480
C         -4.63390        1.58390       -6.41110
C         -2.36600        4.21390       -4.18570
C         -1.11560        4.24010       -3.61300
C          1.85260        4.26260       -3.37830
C          2.82800        4.63480       -2.45140
C          3.69380        5.67640       -2.71190
C          3.58390        6.40090       -3.89570
S          4.64160        7.71650       -4.36280
C          5.91780        7.76740       -3.07770
C          2.55470        6.08390       -4.78790
C          1.70250        5.03810       -4.53500
C          0.35530        1.35970       -1.68520
S         -1.37850        1.40580       -1.64520
C          3.89750        1.81990       -2.64640
C          4.15820        2.39480       -3.91430
C          5.50010        2.70660       -4.35440
N          5.51000        3.23430       -5.57470
S          4.00330        3.30150       -6.13530
N          3.25510        2.68120       -4.85270
C          6.66380        2.40470       -3.60220
C          6.41010        1.72390       -2.38680
N          7.31230        1.35600       -1.48100
S          6.57770        0.63270       -0.25480
N          5.05990        0.80720       -0.76790
C          5.06910        1.42380       -1.94750
C          7.92640        2.84810       -4.02410
C          9.14440        2.29950       -3.68870
C          9.37190        0.88620       -3.36040
O          8.55820       -0.00230       -3.24040
C         10.85260        0.72330       -3.37560
C         11.59030       -0.43060       -3.18950
Cl        10.84830       -1.89380       -2.71770
C         12.97680       -0.37560       -3.39460
Cl        13.93310       -1.77060       -3.13970
C         13.56960        0.80200       -3.84160
Cl        15.24800        0.82160       -4.17600
C         12.81420        1.97070       -4.03430
Cl        13.58560        3.33590       -4.73110
C         11.45900        1.94380       -3.73810
C         10.41620        2.96770       -3.77270
C         10.54440        4.32800       -3.61930
C         11.71970        5.07040       -3.39060
N         12.58970        5.77240       -3.12770
C          9.41920        5.16460       -3.45860
N          8.55760        5.90150       -3.26820
H         -7.43160       -5.25090        5.28300
H        -13.06010       -4.07760        2.85080
H        -12.36620       -7.28970        6.59560
H         -5.78530       -5.06070        3.48120
H         -7.42490       -0.42080        2.76190
H         -8.67310       -1.96350        4.20080
H         -5.68910        0.80730        1.15860
H         -3.66100        1.54780       -0.02970
H         -2.01320       -2.40340        0.21000
H          1.24530       -2.46780       -0.92560
H          3.54060       -3.37470       -0.98130
H          7.61230       -2.76790        2.02410
H          6.39400       -1.48550        2.21220
H          6.24870       -3.02040        3.13250
H          4.18430       -1.95580        3.00190
H          1.91290       -1.05850        3.05080
H         -0.19110       -3.30040        2.37780
H         -1.84090       -3.67960        4.16290
H         -4.11540        0.21670        6.03380
H         -5.55250       -0.81060        6.22110
H         -5.10430       -0.22780        4.60230
H         -2.92590        0.45590        4.02740
H         -1.28320        0.83110        2.27400
H          0.02770        1.24590       -4.69110
H         -2.19210        1.19060       -5.71520
H         -5.65180        1.59020       -6.78830
H         -4.51500        0.78620       -5.68380
H         -3.93750        1.47670       -7.23750
H         -3.04670        5.04020       -4.05180
H         -0.80160        5.08840       -3.02370
H          2.91800        4.09850       -1.51910
H          4.45380        5.91660       -1.98610
H          6.48450        6.84120       -3.07190
H          5.46570        7.97540       -2.11240
H          6.57370        8.58600       -3.35820
H          2.45290        6.66330       -5.69240
H          0.94480        4.77770       -5.25700
H          7.91000        3.68430       -4.71370
